MODEL 1
REMARK VINA RESULT:      -9.4      0.000      0.000
REMARK  Name = CHEMBL25611
REMARK  8 active torsions:
REMARK  status: ('A' for Active; 'I' for Inactive)
REMARK    1  A    between atoms: C_1  and  O_2
REMARK    2  A    between atoms: O_2  and  C_3
REMARK    3  A    between atoms: C_6  and  C_7
REMARK    4  A    between atoms: C_7  and  C_8
REMARK    5  A    between atoms: C_8  and  C_9
REMARK    6  A    between atoms: C_14  and  N_15
REMARK    7  A    between atoms: C_28  and  O_29
REMARK    8  A    between atoms: O_29  and  C_30
REMARK                            x       y       z     vdW  Elec       q    Type
REMARK                         _______ _______ _______ _____ _____    ______ ____
ROOT
ATOM      1  C   UNL     1      -4.688   2.898 126.823  0.00  0.00    +0.000 C 
ATOM      2  O   UNL     1      -3.529   2.729 127.185  0.00  0.00    +0.000 OA
ATOM      3  N   UNL     1      -5.771   3.205 127.683  0.00  0.00    +0.000 N 
ATOM      4  C   UNL     1      -5.704   4.279 128.680  0.00  0.00    +0.000 C 
ATOM      5  C   UNL     1      -6.481   3.932 129.946  0.00  0.00    +0.000 C 
ATOM      6  C   UNL     1      -8.221   3.815 129.588  0.00  0.00    +0.000 C 
ATOM      7  C   UNL     1      -7.929   2.446 128.642  0.00  0.00    +0.000 C 
ATOM      8  C   UNL     1      -7.122   2.734 127.390  0.00  0.00    +0.000 C 
ENDROOT
BRANCH   6   9
ATOM      9  N   UNL     1      -9.114   5.428 129.592  0.00  0.00    +0.000 N 
ATOM     10  C   UNL     1     -10.009   4.743 130.481  0.00  0.00    +0.000 C 
ATOM     11  O   UNL     1      -9.769   4.058 131.514  0.00  0.00    +0.000 OA
ATOM     12  O   UNL     1     -11.229   4.596 130.025  0.00  0.00    +0.000 OA
ATOM     13  C   UNL     1     -11.766   5.667 130.691  0.00  0.00    +0.000 C 
ATOM     14  C   UNL     1     -11.707   6.513 129.507  0.00  0.00    +0.000 A 
ATOM     15  C   UNL     1     -13.061   7.153 129.309  0.00  0.00    +0.000 A 
ATOM     16  C   UNL     1     -13.315   8.207 128.496  0.00  0.00    +0.000 A 
ATOM     17  C   UNL     1     -12.111   8.782 128.164  0.00  0.00    +0.000 A 
ATOM     18  C   UNL     1     -10.651   8.051 128.411  0.00  0.00    +0.000 A 
ATOM     19  C   UNL     1     -10.377   6.622 128.936  0.00  0.00    +0.000 A 
ENDBRANCH   6   9
BRANCH   1  20
ATOM     20  C   UNL     1      -5.078   2.885 125.357  0.00  0.00    +0.000 C 
BRANCH  20  21
ATOM     21  C   UNL     1      -5.334   4.206 124.635  0.00  0.00    +0.000 C 
BRANCH  21  25
ATOM     22  C   UNL     1      -6.494   4.099 120.441  0.00  0.00    +0.000 A 
ATOM     23  C   UNL     1      -5.264   4.621 120.831  0.00  0.00    +0.000 A 
ATOM     24  C   UNL     1      -4.867   4.559 122.176  0.00  0.00    +0.000 A 
ATOM     25  C   UNL     1      -5.736   4.051 123.162  0.00  0.00    +0.000 A 
ATOM     26  C   UNL     1      -6.951   3.476 122.732  0.00  0.00    +0.000 A 
ATOM     27  C   UNL     1      -7.307   3.502 121.390  0.00  0.00    +0.000 A 
BRANCH  22  29
ATOM     28  C   UNL     1      -6.406   5.285 118.416  0.00  0.00    +0.000 C 
ATOM     29  O   UNL     1      -6.825   4.107 119.112  0.00  0.00    +0.000 OA
ENDBRANCH  22  29
BRANCH  26  30
ATOM     30  O   UNL     1      -7.753   2.879 123.660  0.00  0.00    +0.000 OA
ATOM     31  C   UNL     1      -9.035   2.408 123.288  0.00  0.00    +0.000 C 
ENDBRANCH  26  30
ENDBRANCH  21  25
ENDBRANCH  20  21
ENDBRANCH   1  20
TORSDOF 6
ENDMDL
MODEL 2
REMARK VINA RESULT:      -9.3      1.960      3.317
REMARK  Name = CHEMBL25611
REMARK  8 active torsions:
REMARK  status: ('A' for Active; 'I' for Inactive)
REMARK    1  A    between atoms: C_1  and  O_2
REMARK    2  A    between atoms: O_2  and  C_3
REMARK    3  A    between atoms: C_6  and  C_7
REMARK    4  A    between atoms: C_7  and  C_8
REMARK    5  A    between atoms: C_8  and  C_9
REMARK    6  A    between atoms: C_14  and  N_15
REMARK    7  A    between atoms: C_28  and  O_29
REMARK    8  A    between atoms: O_29  and  C_30
REMARK                            x       y       z     vdW  Elec       q    Type
REMARK                         _______ _______ _______ _____ _____    ______ ____
ROOT
ATOM      1  C   UNL     1      -3.714   4.664 128.796  0.00  0.00    +0.000 C 
ATOM      2  O   UNL     1      -2.553   5.040 128.911  0.00  0.00    +0.000 OA
ATOM      3  N   UNL     1      -4.797   5.119 129.588  0.00  0.00    +0.000 N 
ATOM      4  C   UNL     1      -5.060   6.544 129.818  0.00  0.00    +0.000 C 
ATOM      5  C   UNL     1      -5.612   6.803 131.216  0.00  0.00    +0.000 C 
ATOM      6  C   UNL     1      -7.220   6.058 131.391  0.00  0.00    +0.000 C 
ATOM      7  C   UNL     1      -6.517   4.526 131.274  0.00  0.00    +0.000 C 
ATOM      8  C   UNL     1      -5.915   4.236 129.912  0.00  0.00    +0.000 C 
ENDROOT
BRANCH   6   9
ATOM      9  N   UNL     1      -8.613   7.082 130.750  0.00  0.00    +0.000 N 
ATOM     10  C   UNL     1      -9.366   6.394 131.759  0.00  0.00    +0.000 C 
ATOM     11  O   UNL     1      -9.118   6.215 132.984  0.00  0.00    +0.000 OA
ATOM     12  O   UNL     1     -10.328   5.631 131.300  0.00  0.00    +0.000 OA
ATOM     13  C   UNL     1     -11.341   6.534 131.495  0.00  0.00    +0.000 C 
ATOM     14  C   UNL     1     -11.343   6.929 130.094  0.00  0.00    +0.000 A 
ATOM     15  C   UNL     1     -12.763   6.865 129.583  0.00  0.00    +0.000 A 
ATOM     16  C   UNL     1     -13.203   7.423 128.428  0.00  0.00    +0.000 A 
ATOM     17  C   UNL     1     -12.245   8.311 127.999  0.00  0.00    +0.000 A 
ATOM     18  C   UNL     1     -10.706   8.354 128.596  0.00  0.00    +0.000 A 
ATOM     19  C   UNL     1     -10.053   7.394 129.619  0.00  0.00    +0.000 A 
ENDBRANCH   6   9
BRANCH   1  20
ATOM     20  C   UNL     1      -4.141   3.709 127.696  0.00  0.00    +0.000 C 
BRANCH  20  21
ATOM     21  C   UNL     1      -4.535   4.265 126.329  0.00  0.00    +0.000 C 
BRANCH  21  25
ATOM     22  C   UNL     1      -8.412   2.764 125.041  0.00  0.00    +0.000 A 
ATOM     23  C   UNL     1      -7.984   2.606 126.356  0.00  0.00    +0.000 A 
ATOM     24  C   UNL     1      -6.774   3.181 126.776  0.00  0.00    +0.000 A 
ATOM     25  C   UNL     1      -5.935   3.848 125.861  0.00  0.00    +0.000 A 
ATOM     26  C   UNL     1      -6.420   4.043 124.550  0.00  0.00    +0.000 A 
ATOM     27  C   UNL     1      -7.642   3.509 124.164  0.00  0.00    +0.000 A 
BRANCH  22  29
ATOM     28  C   UNL     1      -9.646   1.661 123.375  0.00  0.00    +0.000 C 
ATOM     29  O   UNL     1      -9.631   2.255 124.677  0.00  0.00    +0.000 OA
ENDBRANCH  22  29
BRANCH  26  30
ATOM     30  O   UNL     1      -5.671   4.783 123.683  0.00  0.00    +0.000 OA
ATOM     31  C   UNL     1      -5.385   4.281 122.391  0.00  0.00    +0.000 C 
ENDBRANCH  26  30
ENDBRANCH  21  25
ENDBRANCH  20  21
ENDBRANCH   1  20
TORSDOF 6
ENDMDL
MODEL 3
REMARK VINA RESULT:      -9.1      2.646      3.411
REMARK  Name = CHEMBL25611
REMARK  8 active torsions:
REMARK  status: ('A' for Active; 'I' for Inactive)
REMARK    1  A    between atoms: C_1  and  O_2
REMARK    2  A    between atoms: O_2  and  C_3
REMARK    3  A    between atoms: C_6  and  C_7
REMARK    4  A    between atoms: C_7  and  C_8
REMARK    5  A    between atoms: C_8  and  C_9
REMARK    6  A    between atoms: C_14  and  N_15
REMARK    7  A    between atoms: C_28  and  O_29
REMARK    8  A    between atoms: O_29  and  C_30
REMARK                            x       y       z     vdW  Elec       q    Type
REMARK                         _______ _______ _______ _____ _____    ______ ____
ROOT
ATOM      1  C   UNL     1      -4.034   4.120 129.957  0.00  0.00    +0.000 C 
ATOM      2  O   UNL     1      -2.905   4.476 130.275  0.00  0.00    +0.000 OA
ATOM      3  N   UNL     1      -5.233   4.676 130.463  0.00  0.00    +0.000 N 
ATOM      4  C   UNL     1      -5.474   6.123 130.505  0.00  0.00    +0.000 C 
ATOM      5  C   UNL     1      -6.288   6.531 131.729  0.00  0.00    +0.000 C 
ATOM      6  C   UNL     1      -7.929   5.847 131.634  0.00  0.00    +0.000 C 
ATOM      7  C   UNL     1      -7.286   4.293 131.803  0.00  0.00    +0.000 C 
ATOM      8  C   UNL     1      -6.432   3.857 130.627  0.00  0.00    +0.000 C 
ENDROOT
BRANCH   6   9
ATOM      9  N   UNL     1      -9.115   6.838 130.628  0.00  0.00    +0.000 N 
ATOM     10  C   UNL     1     -10.066   6.385 131.603  0.00  0.00    +0.000 C 
ATOM     11  O   UNL     1     -10.013   6.400 132.864  0.00  0.00    +0.000 OA
ATOM     12  O   UNL     1     -11.018   5.620 131.126  0.00  0.00    +0.000 OA
ATOM     13  C   UNL     1     -11.961   6.609 131.015  0.00  0.00    +0.000 C 
ATOM     14  C   UNL     1     -11.726   6.759 129.586  0.00  0.00    +0.000 A 
ATOM     15  C   UNL     1     -13.058   6.705 128.875  0.00  0.00    +0.000 A 
ATOM     16  C   UNL     1     -13.274   7.085 127.593  0.00  0.00    +0.000 A 
ATOM     17  C   UNL     1     -12.187   7.821 127.183  0.00  0.00    +0.000 A 
ATOM     18  C   UNL     1     -10.752   7.862 127.999  0.00  0.00    +0.000 A 
ATOM     19  C   UNL     1     -10.344   7.049 129.250  0.00  0.00    +0.000 A 
ENDBRANCH   6   9
BRANCH   1  20
ATOM     20  C   UNL     1      -4.269   3.073 128.884  0.00  0.00    +0.000 C 
BRANCH  20  21
ATOM     21  C   UNL     1      -3.867   3.372 127.441  0.00  0.00    +0.000 C 
BRANCH  21  25
ATOM     22  C   UNL     1      -7.375   3.402 124.864  0.00  0.00    +0.000 A 
ATOM     23  C   UNL     1      -6.850   4.586 125.373  0.00  0.00    +0.000 A 
ATOM     24  C   UNL     1      -5.663   4.566 126.122  0.00  0.00    +0.000 A 
ATOM     25  C   UNL     1      -5.034   3.347 126.445  0.00  0.00    +0.000 A 
ATOM     26  C   UNL     1      -5.554   2.169 125.868  0.00  0.00    +0.000 A 
ATOM     27  C   UNL     1      -6.703   2.212 125.089  0.00  0.00    +0.000 A 
BRANCH  22  29
ATOM     28  C   UNL     1      -9.305   2.282 124.133  0.00  0.00    +0.000 C 
ATOM     29  O   UNL     1      -8.494   3.459 124.076  0.00  0.00    +0.000 OA
ENDBRANCH  22  29
BRANCH  26  30
ATOM     30  O   UNL     1      -4.892   0.994 126.078  0.00  0.00    +0.000 OA
ATOM     31  C   UNL     1      -5.473  -0.010 126.888  0.00  0.00    +0.000 C 
ENDBRANCH  26  30
ENDBRANCH  21  25
ENDBRANCH  20  21
ENDBRANCH   1  20
TORSDOF 6
ENDMDL
MODEL 4
REMARK VINA RESULT:      -9.1      2.466      3.946
REMARK  Name = CHEMBL25611
REMARK  8 active torsions:
REMARK  status: ('A' for Active; 'I' for Inactive)
REMARK    1  A    between atoms: C_1  and  O_2
REMARK    2  A    between atoms: O_2  and  C_3
REMARK    3  A    between atoms: C_6  and  C_7
REMARK    4  A    between atoms: C_7  and  C_8
REMARK    5  A    between atoms: C_8  and  C_9
REMARK    6  A    between atoms: C_14  and  N_15
REMARK    7  A    between atoms: C_28  and  O_29
REMARK    8  A    between atoms: O_29  and  C_30
REMARK                            x       y       z     vdW  Elec       q    Type
REMARK                         _______ _______ _______ _____ _____    ______ ____
ROOT
ATOM      1  C   UNL     1      -4.223   3.733 131.034  0.00  0.00    +0.000 C 
ATOM      2  O   UNL     1      -3.189   4.066 131.603  0.00  0.00    +0.000 OA
ATOM      3  N   UNL     1      -5.500   4.292 131.277  0.00  0.00    +0.000 N 
ATOM      4  C   UNL     1      -5.734   5.741 131.301  0.00  0.00    +0.000 C 
ATOM      5  C   UNL     1      -6.795   6.131 132.325  0.00  0.00    +0.000 C 
ATOM      6  C   UNL     1      -8.379   5.470 131.852  0.00  0.00    +0.000 C 
ATOM      7  C   UNL     1      -7.801   3.905 132.119  0.00  0.00    +0.000 C 
ATOM      8  C   UNL     1      -6.712   3.486 131.150  0.00  0.00    +0.000 C 
ENDROOT
BRANCH   6   9
ATOM      9  N   UNL     1      -9.305   6.501 130.635  0.00  0.00    +0.000 N 
ATOM     10  C   UNL     1     -10.379   6.353 131.576  0.00  0.00    +0.000 C 
ATOM     11  O   UNL     1     -10.401   6.532 132.825  0.00  0.00    +0.000 OA
ATOM     12  O   UNL     1     -11.422   5.703 131.120  0.00  0.00    +0.000 OA
ATOM     13  C   UNL     1     -12.164   6.813 130.808  0.00  0.00    +0.000 C 
ATOM     14  C   UNL     1     -11.820   6.723 129.396  0.00  0.00    +0.000 A 
ATOM     15  C   UNL     1     -13.095   6.798 128.588  0.00  0.00    +0.000 A 
ATOM     16  C   UNL     1     -13.161   7.030 127.255  0.00  0.00    +0.000 A 
ATOM     17  C   UNL     1     -11.937   7.508 126.849  0.00  0.00    +0.000 A 
ATOM     18  C   UNL     1     -10.570   7.417 127.772  0.00  0.00    +0.000 A 
ATOM     19  C   UNL     1     -10.391   6.726 129.144  0.00  0.00    +0.000 A 
ENDBRANCH   6   9
BRANCH   1  20
ATOM     20  C   UNL     1      -4.222   2.715 129.908  0.00  0.00    +0.000 C 
BRANCH  20  21
ATOM     21  C   UNL     1      -3.497   3.037 128.603  0.00  0.00    +0.000 C 
BRANCH  21  25
ATOM     22  C   UNL     1      -5.889   3.872 125.064  0.00  0.00    +0.000 A 
ATOM     23  C   UNL     1      -5.477   2.576 125.361  0.00  0.00    +0.000 A 
ATOM     24  C   UNL     1      -4.789   2.312 126.556  0.00  0.00    +0.000 A 
ATOM     25  C   UNL     1      -4.429   3.358 127.428  0.00  0.00    +0.000 A 
ATOM     26  C   UNL     1      -4.909   4.652 127.132  0.00  0.00    +0.000 A 
ATOM     27  C   UNL     1      -5.630   4.888 125.969  0.00  0.00    +0.000 A 
BRANCH  22  29
ATOM     28  C   UNL     1      -7.732   3.201 123.774  0.00  0.00    +0.000 C 
ATOM     29  O   UNL     1      -6.621   4.089 123.928  0.00  0.00    +0.000 OA
ENDBRANCH  22  29
BRANCH  26  30
ATOM     30  O   UNL     1      -4.666   5.656 128.023  0.00  0.00    +0.000 OA
ATOM     31  C   UNL     1      -3.566   6.524 127.826  0.00  0.00    +0.000 C 
ENDBRANCH  26  30
ENDBRANCH  21  25
ENDBRANCH  20  21
ENDBRANCH   1  20
TORSDOF 6
ENDMDL
MODEL 5
REMARK VINA RESULT:      -9.0      3.271      4.977
REMARK  Name = CHEMBL25611
REMARK  8 active torsions:
REMARK  status: ('A' for Active; 'I' for Inactive)
REMARK    1  A    between atoms: C_1  and  O_2
REMARK    2  A    between atoms: O_2  and  C_3
REMARK    3  A    between atoms: C_6  and  C_7
REMARK    4  A    between atoms: C_7  and  C_8
REMARK    5  A    between atoms: C_8  and  C_9
REMARK    6  A    between atoms: C_14  and  N_15
REMARK    7  A    between atoms: C_28  and  O_29
REMARK    8  A    between atoms: O_29  and  C_30
REMARK                            x       y       z     vdW  Elec       q    Type
REMARK                         _______ _______ _______ _____ _____    ______ ____
ROOT
ATOM      1  C   UNL     1      -6.069   1.828 125.842  0.00  0.00    +0.000 C 
ATOM      2  O   UNL     1      -4.878   1.536 125.864  0.00  0.00    +0.000 OA
ATOM      3  N   UNL     1      -6.798   2.343 126.940  0.00  0.00    +0.000 N 
ATOM      4  C   UNL     1      -6.320   3.476 127.741  0.00  0.00    +0.000 C 
ATOM      5  C   UNL     1      -6.703   3.338 129.211  0.00  0.00    +0.000 C 
ATOM      6  C   UNL     1      -8.471   3.425 129.398  0.00  0.00    +0.000 C 
ATOM      7  C   UNL     1      -8.625   1.957 128.574  0.00  0.00    +0.000 C 
ATOM      8  C   UNL     1      -8.215   2.034 127.115  0.00  0.00    +0.000 C 
ENDROOT
BRANCH   6   9
ATOM      9  N   UNL     1      -9.150   5.137 129.476  0.00  0.00    +0.000 N 
ATOM     10  C   UNL     1     -10.024   4.569 130.463  0.00  0.00    +0.000 C 
ATOM     11  O   UNL     1      -9.763   3.858 131.473  0.00  0.00    +0.000 OA
ATOM     12  O   UNL     1     -11.295   4.577 130.140  0.00  0.00    +0.000 OA
ATOM     13  C   UNL     1     -11.620   5.707 130.845  0.00  0.00    +0.000 C 
ATOM     14  C   UNL     1     -11.581   6.540 129.652  0.00  0.00    +0.000 A 
ATOM     15  C   UNL     1     -12.858   7.345 129.590  0.00  0.00    +0.000 A 
ATOM     16  C   UNL     1     -13.064   8.423 128.796  0.00  0.00    +0.000 A 
ATOM     17  C   UNL     1     -11.839   8.843 128.331  0.00  0.00    +0.000 A 
ATOM     18  C   UNL     1     -10.464   7.934 128.432  0.00  0.00    +0.000 A 
ATOM     19  C   UNL     1     -10.317   6.481 128.942  0.00  0.00    +0.000 A 
ENDBRANCH   6   9
BRANCH   1  20
ATOM     20  C   UNL     1      -6.888   1.749 124.567  0.00  0.00    +0.000 C 
BRANCH  20  21
ATOM     21  C   UNL     1      -6.921   0.444 123.774  0.00  0.00    +0.000 C 
BRANCH  21  25
ATOM     22  C   UNL     1      -8.499  -2.758 126.265  0.00  0.00    +0.000 A 
ATOM     23  C   UNL     1      -9.323  -1.732 125.810  0.00  0.00    +0.000 A 
ATOM     24  C   UNL     1      -8.818  -0.762 124.929  0.00  0.00    +0.000 A 
ATOM     25  C   UNL     1      -7.457  -0.758 124.562  0.00  0.00    +0.000 A 
ATOM     26  C   UNL     1      -6.661  -1.841 124.990  0.00  0.00    +0.000 A 
ATOM     27  C   UNL     1      -7.188  -2.819 125.823  0.00  0.00    +0.000 A 
BRANCH  22  29
ATOM     28  C   UNL     1      -8.603  -3.668 128.427  0.00  0.00    +0.000 C 
ATOM     29  O   UNL     1      -9.036  -3.731 127.065  0.00  0.00    +0.000 OA
ENDBRANCH  22  29
BRANCH  26  30
ATOM     30  O   UNL     1      -5.371  -1.914 124.551  0.00  0.00    +0.000 OA
ATOM     31  C   UNL     1      -5.007  -2.877 123.581  0.00  0.00    +0.000 C 
ENDBRANCH  26  30
ENDBRANCH  21  25
ENDBRANCH  20  21
ENDBRANCH   1  20
TORSDOF 6
ENDMDL
MODEL 6
REMARK VINA RESULT:      -8.9      3.045      4.469
REMARK  Name = CHEMBL25611
REMARK  8 active torsions:
REMARK  status: ('A' for Active; 'I' for Inactive)
REMARK    1  A    between atoms: C_1  and  O_2
REMARK    2  A    between atoms: O_2  and  C_3
REMARK    3  A    between atoms: C_6  and  C_7
REMARK    4  A    between atoms: C_7  and  C_8
REMARK    5  A    between atoms: C_8  and  C_9
REMARK    6  A    between atoms: C_14  and  N_15
REMARK    7  A    between atoms: C_28  and  O_29
REMARK    8  A    between atoms: O_29  and  C_30
REMARK                            x       y       z     vdW  Elec       q    Type
REMARK                         _______ _______ _______ _____ _____    ______ ____
ROOT
ATOM      1  C   UNL     1      -5.198   2.793 129.509  0.00  0.00    +0.000 C 
ATOM      2  O   UNL     1      -3.980   2.862 129.391  0.00  0.00    +0.000 OA
ATOM      3  N   UNL     1      -6.003   3.744 130.181  0.00  0.00    +0.000 N 
ATOM      4  C   UNL     1      -5.899   5.186 129.927  0.00  0.00    +0.000 C 
ATOM      5  C   UNL     1      -6.137   6.007 131.190  0.00  0.00    +0.000 C 
ATOM      6  C   UNL     1      -7.819   5.811 131.743  0.00  0.00    +0.000 C 
ATOM      7  C   UNL     1      -7.506   4.191 132.104  0.00  0.00    +0.000 C 
ATOM      8  C   UNL     1      -7.221   3.340 130.881  0.00  0.00    +0.000 C 
ENDROOT
BRANCH   6   9
ATOM      9  N   UNL     1      -9.034   6.916 130.904  0.00  0.00    +0.000 N 
ATOM     10  C   UNL     1      -9.931   6.418 131.908  0.00  0.00    +0.000 C 
ATOM     11  O   UNL     1      -9.790   6.332 133.160  0.00  0.00    +0.000 OA
ATOM     12  O   UNL     1     -10.942   5.724 131.444  0.00  0.00    +0.000 OA
ATOM     13  C   UNL     1     -11.852   6.748 131.477  0.00  0.00    +0.000 C 
ATOM     14  C   UNL     1     -11.712   7.003 130.050  0.00  0.00    +0.000 A 
ATOM     15  C   UNL     1     -13.091   7.047 129.435  0.00  0.00    +0.000 A 
ATOM     16  C   UNL     1     -13.382   7.535 128.205  0.00  0.00    +0.000 A 
ATOM     17  C   UNL     1     -12.299   8.266 127.775  0.00  0.00    +0.000 A 
ATOM     18  C   UNL     1     -10.810   8.196 128.487  0.00  0.00    +0.000 A 
ATOM     19  C   UNL     1     -10.347   7.274 129.639  0.00  0.00    +0.000 A 
ENDBRANCH   6   9
BRANCH   1  20
ATOM     20  C   UNL     1      -6.005   1.693 128.845  0.00  0.00    +0.000 C 
BRANCH  20  21
ATOM     21  C   UNL     1      -6.519   1.891 127.421  0.00  0.00    +0.000 C 
BRANCH  21  25
ATOM     22  C   UNL     1      -9.079  -1.290 125.914  0.00  0.00    +0.000 A 
ATOM     23  C   UNL     1      -8.021  -1.569 126.774  0.00  0.00    +0.000 A 
ATOM     24  C   UNL     1      -7.267  -0.521 127.326  0.00  0.00    +0.000 A 
ATOM     25  C   UNL     1      -7.509   0.816 126.953  0.00  0.00    +0.000 A 
ATOM     26  C   UNL     1      -8.623   1.075 126.127  0.00  0.00    +0.000 A 
ATOM     27  C   UNL     1      -9.389   0.029 125.628  0.00  0.00    +0.000 A 
BRANCH  22  29
ATOM     28  C   UNL     1      -9.187  -3.139 124.470  0.00  0.00    +0.000 C 
ATOM     29  O   UNL     1      -9.844  -2.326 125.448  0.00  0.00    +0.000 OA
ENDBRANCH  22  29
BRANCH  26  30
ATOM     30  O   UNL     1      -8.939   2.372 125.847  0.00  0.00    +0.000 OA
ATOM     31  C   UNL     1      -8.762   2.876 124.537  0.00  0.00    +0.000 C 
ENDBRANCH  26  30
ENDBRANCH  21  25
ENDBRANCH  20  21
ENDBRANCH   1  20
TORSDOF 6
ENDMDL
MODEL 7
REMARK VINA RESULT:      -8.8      3.705      4.941
REMARK  Name = CHEMBL25611
REMARK  8 active torsions:
REMARK  status: ('A' for Active; 'I' for Inactive)
REMARK    1  A    between atoms: C_1  and  O_2
REMARK    2  A    between atoms: O_2  and  C_3
REMARK    3  A    between atoms: C_6  and  C_7
REMARK    4  A    between atoms: C_7  and  C_8
REMARK    5  A    between atoms: C_8  and  C_9
REMARK    6  A    between atoms: C_14  and  N_15
REMARK    7  A    between atoms: C_28  and  O_29
REMARK    8  A    between atoms: O_29  and  C_30
REMARK                            x       y       z     vdW  Elec       q    Type
REMARK                         _______ _______ _______ _____ _____    ______ ____
ROOT
ATOM      1  C   UNL     1      -6.795   0.813 131.085  0.00  0.00    +0.000 C 
ATOM      2  O   UNL     1      -5.618   0.583 131.341  0.00  0.00    +0.000 OA
ATOM      3  N   UNL     1      -7.462   2.031 131.362  0.00  0.00    +0.000 N 
ATOM      4  C   UNL     1      -6.907   3.337 130.986  0.00  0.00    +0.000 C 
ATOM      5  C   UNL     1      -7.245   4.416 132.010  0.00  0.00    +0.000 C 
ATOM      6  C   UNL     1      -9.000   4.712 132.037  0.00  0.00    +0.000 C 
ATOM      7  C   UNL     1      -9.247   3.161 132.662  0.00  0.00    +0.000 C 
ATOM      8  C   UNL     1      -8.885   2.051 131.694  0.00  0.00    +0.000 C 
ENDROOT
BRANCH   6   9
ATOM      9  N   UNL     1      -9.600   5.880 130.743  0.00  0.00    +0.000 N 
ATOM     10  C   UNL     1     -10.577   6.222 131.737  0.00  0.00    +0.000 C 
ATOM     11  O   UNL     1     -10.432   6.520 132.956  0.00  0.00    +0.000 OA
ATOM     12  O   UNL     1     -11.815   5.949 131.407  0.00  0.00    +0.000 OA
ATOM     13  C   UNL     1     -12.141   7.214 130.993  0.00  0.00    +0.000 C 
ATOM     14  C   UNL     1     -11.967   6.868 129.589  0.00  0.00    +0.000 A 
ATOM     15  C   UNL     1     -13.194   7.315 128.831  0.00  0.00    +0.000 A 
ATOM     16  C   UNL     1     -13.283   7.423 127.483  0.00  0.00    +0.000 A 
ATOM     17  C   UNL     1     -12.006   7.386 126.973  0.00  0.00    +0.000 A 
ATOM     18  C   UNL     1     -10.689   6.902 127.843  0.00  0.00    +0.000 A 
ATOM     19  C   UNL     1     -10.654   6.332 129.281  0.00  0.00    +0.000 A 
ENDBRANCH   6   9
BRANCH   1  20
ATOM     20  C   UNL     1      -7.660  -0.184 130.337  0.00  0.00    +0.000 C 
BRANCH  20  21
ATOM     21  C   UNL     1      -7.085  -0.923 129.131  0.00  0.00    +0.000 C 
BRANCH  21  25
ATOM     22  C   UNL     1      -9.347   0.083 125.550  0.00  0.00    +0.000 A 
ATOM     23  C   UNL     1      -8.861   1.078 126.393  0.00  0.00    +0.000 A 
ATOM     24  C   UNL     1      -8.052   0.739 127.490  0.00  0.00    +0.000 A 
ATOM     25  C   UNL     1      -7.792  -0.610 127.806  0.00  0.00    +0.000 A 
ATOM     26  C   UNL     1      -8.248  -1.594 126.902  0.00  0.00    +0.000 A 
ATOM     27  C   UNL     1      -9.006  -1.237 125.795  0.00  0.00    +0.000 A 
BRANCH  22  29
ATOM     28  C   UNL     1      -9.780   1.762 123.968  0.00  0.00    +0.000 C 
ATOM     29  O   UNL     1     -10.073   0.447 124.448  0.00  0.00    +0.000 OA
ENDBRANCH  22  29
BRANCH  26  30
ATOM     30  O   UNL     1      -7.909  -2.895 127.132  0.00  0.00    +0.000 OA
ATOM     31  C   UNL     1      -8.897  -3.821 127.542  0.00  0.00    +0.000 C 
ENDBRANCH  26  30
ENDBRANCH  21  25
ENDBRANCH  20  21
ENDBRANCH   1  20
TORSDOF 6
ENDMDL
MODEL 8
REMARK VINA RESULT:      -8.8      3.566      4.659
REMARK  Name = CHEMBL25611
REMARK  8 active torsions:
REMARK  status: ('A' for Active; 'I' for Inactive)
REMARK    1  A    between atoms: C_1  and  O_2
REMARK    2  A    between atoms: O_2  and  C_3
REMARK    3  A    between atoms: C_6  and  C_7
REMARK    4  A    between atoms: C_7  and  C_8
REMARK    5  A    between atoms: C_8  and  C_9
REMARK    6  A    between atoms: C_14  and  N_15
REMARK    7  A    between atoms: C_28  and  O_29
REMARK    8  A    between atoms: O_29  and  C_30
REMARK                            x       y       z     vdW  Elec       q    Type
REMARK                         _______ _______ _______ _____ _____    ______ ____
ROOT
ATOM      1  C   UNL     1      -6.832   1.450 126.761  0.00  0.00    +0.000 C 
ATOM      2  O   UNL     1      -5.663   1.145 126.551  0.00  0.00    +0.000 OA
ATOM      3  N   UNL     1      -7.283   2.235 127.849  0.00  0.00    +0.000 N 
ATOM      4  C   UNL     1      -6.665   3.518 128.205  0.00  0.00    +0.000 C 
ATOM      5  C   UNL     1      -6.662   3.752 129.712  0.00  0.00    +0.000 C 
ATOM      6  C   UNL     1      -8.330   3.922 130.312  0.00  0.00    +0.000 C 
ATOM      7  C   UNL     1      -8.626   2.302 129.934  0.00  0.00    +0.000 C 
ATOM      8  C   UNL     1      -8.598   2.011 128.445  0.00  0.00    +0.000 C 
ENDROOT
BRANCH   6   9
ATOM      9  N   UNL     1      -9.036   5.617 130.142  0.00  0.00    +0.000 N 
ATOM     10  C   UNL     1      -9.754   5.259 131.332  0.00  0.00    +0.000 C 
ATOM     11  O   UNL     1      -9.342   4.763 132.417  0.00  0.00    +0.000 OA
ATOM     12  O   UNL     1     -11.057   5.205 131.190  0.00  0.00    +0.000 OA
ATOM     13  C   UNL     1     -11.313   6.453 131.697  0.00  0.00    +0.000 C 
ATOM     14  C   UNL     1     -11.456   7.032 130.368  0.00  0.00    +0.000 A 
ATOM     15  C   UNL     1     -12.750   7.810 130.324  0.00  0.00    +0.000 A 
ATOM     16  C   UNL     1     -13.087   8.709 129.367  0.00  0.00    +0.000 A 
ATOM     17  C   UNL     1     -11.947   9.026 128.666  0.00  0.00    +0.000 A 
ATOM     18  C   UNL     1     -10.548   8.152 128.755  0.00  0.00    +0.000 A 
ATOM     19  C   UNL     1     -10.297   6.830 129.518  0.00  0.00    +0.000 A 
ENDBRANCH   6   9
BRANCH   1  20
ATOM     20  C   UNL     1      -7.941   1.081 125.793  0.00  0.00    +0.000 C 
BRANCH  20  21
ATOM     21  C   UNL     1      -8.303  -0.389 125.589  0.00  0.00    +0.000 C 
BRANCH  21  25
ATOM     22  C   UNL     1      -5.375  -2.937 123.620  0.00  0.00    +0.000 A 
ATOM     23  C   UNL     1      -6.101  -1.993 122.901  0.00  0.00    +0.000 A 
ATOM     24  C   UNL     1      -6.970  -1.115 123.568  0.00  0.00    +0.000 A 
ATOM     25  C   UNL     1      -7.188  -1.230 124.956  0.00  0.00    +0.000 A 
ATOM     26  C   UNL     1      -6.396  -2.156 125.668  0.00  0.00    +0.000 A 
ATOM     27  C   UNL     1      -5.505  -2.985 124.998  0.00  0.00    +0.000 A 
BRANCH  22  29
ATOM     28  C   UNL     1      -4.294  -5.021 123.546  0.00  0.00    +0.000 C 
ATOM     29  O   UNL     1      -4.481  -3.732 122.954  0.00  0.00    +0.000 OA
ENDBRANCH  22  29
BRANCH  26  30
ATOM     30  O   UNL     1      -6.512  -2.202 127.027  0.00  0.00    +0.000 OA
ATOM     31  C   UNL     1      -5.351  -2.232 127.834  0.00  0.00    +0.000 C 
ENDBRANCH  26  30
ENDBRANCH  21  25
ENDBRANCH  20  21
ENDBRANCH   1  20
TORSDOF 6
ENDMDL
MODEL 9
REMARK VINA RESULT:      -8.7      4.267      5.687
REMARK  Name = CHEMBL25611
REMARK  8 active torsions:
REMARK  status: ('A' for Active; 'I' for Inactive)
REMARK    1  A    between atoms: C_1  and  O_2
REMARK    2  A    between atoms: O_2  and  C_3
REMARK    3  A    between atoms: C_6  and  C_7
REMARK    4  A    between atoms: C_7  and  C_8
REMARK    5  A    between atoms: C_8  and  C_9
REMARK    6  A    between atoms: C_14  and  N_15
REMARK    7  A    between atoms: C_28  and  O_29
REMARK    8  A    between atoms: O_29  and  C_30
REMARK                            x       y       z     vdW  Elec       q    Type
REMARK                         _______ _______ _______ _____ _____    ______ ____
ROOT
ATOM      1  C   UNL     1      -6.901   0.787 131.066  0.00  0.00    +0.000 C 
ATOM      2  O   UNL     1      -5.727   0.521 131.297  0.00  0.00    +0.000 OA
ATOM      3  N   UNL     1      -7.521   2.031 131.338  0.00  0.00    +0.000 N 
ATOM      4  C   UNL     1      -6.932   3.311 130.925  0.00  0.00    +0.000 C 
ATOM      5  C   UNL     1      -7.207   4.417 131.938  0.00  0.00    +0.000 C 
ATOM      6  C   UNL     1      -8.951   4.773 132.003  0.00  0.00    +0.000 C 
ATOM      7  C   UNL     1      -9.233   3.243 132.662  0.00  0.00    +0.000 C 
ATOM      8  C   UNL     1      -8.933   2.104 131.705  0.00  0.00    +0.000 C 
ENDROOT
BRANCH   6   9
ATOM      9  N   UNL     1      -9.544   5.939 130.704  0.00  0.00    +0.000 N 
ATOM     10  C   UNL     1     -10.581   6.214 131.657  0.00  0.00    +0.000 C 
ATOM     11  O   UNL     1     -10.508   6.493 132.886  0.00  0.00    +0.000 OA
ATOM     12  O   UNL     1     -11.789   5.890 131.262  0.00  0.00    +0.000 OA
ATOM     13  C   UNL     1     -12.155   7.147 130.856  0.00  0.00    +0.000 C 
ATOM     14  C   UNL     1     -11.899   6.838 129.457  0.00  0.00    +0.000 A 
ATOM     15  C   UNL     1     -13.110   7.244 128.649  0.00  0.00    +0.000 A 
ATOM     16  C   UNL     1     -13.140   7.375 127.301  0.00  0.00    +0.000 A 
ATOM     17  C   UNL     1     -11.841   7.408 126.852  0.00  0.00    +0.000 A 
ATOM     18  C   UNL     1     -10.544   6.968 127.775  0.00  0.00    +0.000 A 
ATOM     19  C   UNL     1     -10.549   6.370 129.202  0.00  0.00    +0.000 A 
ENDBRANCH   6   9
BRANCH   1  20
ATOM     20  C   UNL     1      -7.819  -0.193 130.359  0.00  0.00    +0.000 C 
BRANCH  20  21
ATOM     21  C   UNL     1      -7.268  -1.543 129.902  0.00  0.00    +0.000 C 
BRANCH  21  25
ATOM     22  C   UNL     1      -8.608  -3.157 126.088  0.00  0.00    +0.000 A 
ATOM     23  C   UNL     1      -8.896  -3.810 127.283  0.00  0.00    +0.000 A 
ATOM     24  C   UNL     1      -8.540  -3.225 128.509  0.00  0.00    +0.000 A 
ATOM     25  C   UNL     1      -7.812  -2.019 128.549  0.00  0.00    +0.000 A 
ATOM     26  C   UNL     1      -7.585  -1.350 127.327  0.00  0.00    +0.000 A 
ATOM     27  C   UNL     1      -7.986  -1.919 126.126  0.00  0.00    +0.000 A 
BRANCH  22  29
ATOM     28  C   UNL     1      -8.832  -2.877 123.767  0.00  0.00    +0.000 C 
ATOM     29  O   UNL     1      -9.031  -3.714 124.911  0.00  0.00    +0.000 OA
ENDBRANCH  22  29
BRANCH  26  30
ATOM     30  O   UNL     1      -6.981  -0.127 127.357  0.00  0.00    +0.000 OA
ATOM     31  C   UNL     1      -7.541   0.955 126.637  0.00  0.00    +0.000 C 
ENDBRANCH  26  30
ENDBRANCH  21  25
ENDBRANCH  20  21
ENDBRANCH   1  20
TORSDOF 6
ENDMDL
