MODEL 1
REMARK VINA RESULT:     -11.1      0.000      0.000
REMARK  Name = CHEMBL286979
REMARK  7 active torsions:
REMARK  status: ('A' for Active; 'I' for Inactive)
REMARK    1  A    between atoms: C_1  and  C_2
REMARK    2  A    between atoms: N_4  and  C_5
REMARK    3  A    between atoms: N_4  and  C_6
REMARK    4  A    between atoms: C_6  and  C_7
REMARK    5  A    between atoms: C_7  and  N_8
REMARK    6  A    between atoms: C_13  and  C_14
REMARK    7  A    between atoms: C_19  and  N_20
REMARK                            x       y       z     vdW  Elec       q    Type
REMARK                         _______ _______ _______ _____ _____    ______ ____
ROOT
ATOM      1  C   UNL     1      -4.265   4.140 129.019  0.00  0.00    +0.000 C 
ATOM      2  O   UNL     1      -3.043   4.049 129.141  0.00  0.00    +0.000 OA
ATOM      3  N   UNL     1      -5.085   4.628 130.068  0.00  0.00    +0.000 N 
ATOM      4  C   UNL     1      -5.312   6.064 130.036  0.00  0.00    +0.000 C 
ATOM      5  C   UNL     1      -5.770   6.605 131.370  0.00  0.00    +0.000 C 
ATOM      6  C   UNL     1      -7.419   6.047 131.665  0.00  0.00    +0.000 C 
ATOM      7  C   UNL     1      -6.795   4.437 131.884  0.00  0.00    +0.000 C 
ATOM      8  C   UNL     1      -6.201   3.837 130.615  0.00  0.00    +0.000 C 
ENDROOT
BRANCH   6   9
ATOM      9  N   UNL     1      -8.722   7.052 130.801  0.00  0.00    +0.000 N 
ATOM     10  C   UNL     1      -9.590   6.420 131.752  0.00  0.00    +0.000 C 
ATOM     11  O   UNL     1      -9.496   6.314 133.006  0.00  0.00    +0.000 OA
ATOM     12  O   UNL     1     -10.481   5.619 131.224  0.00  0.00    +0.000 OA
ATOM     13  C   UNL     1     -11.503   6.532 131.217  0.00  0.00    +0.000 C 
ATOM     14  C   UNL     1     -11.325   6.773 129.792  0.00  0.00    +0.000 A 
ATOM     15  C   UNL     1     -12.643   6.569 129.079  0.00  0.00    +0.000 A 
ATOM     16  C   UNL     1     -12.939   7.010 127.829  0.00  0.00    +0.000 A 
ATOM     17  C   UNL     1     -12.018   7.973 127.498  0.00  0.00    +0.000 A 
ATOM     18  C   UNL     1     -10.627   8.199 128.358  0.00  0.00    +0.000 A 
ATOM     19  C   UNL     1     -10.014   7.279 129.471  0.00  0.00    +0.000 A 
ENDBRANCH   6   9
BRANCH   1  25
ATOM     20  N   UNL     1      -6.582   2.889 123.998  0.00  0.00    +0.000 N 
ATOM     21  C   UNL     1      -6.737   1.533 124.118  0.00  0.00    +0.000 A 
ATOM     22  C   UNL     1      -6.278   1.164 125.361  0.00  0.00    +0.000 A 
ATOM     23  C   UNL     1      -5.813   2.332 126.024  0.00  0.00    +0.000 A 
ATOM     24  C   UNL     1      -5.251   2.572 127.302  0.00  0.00    +0.000 A 
ATOM     25  C   UNL     1      -4.886   3.877 127.673  0.00  0.00    +0.000 A 
ATOM     26  C   UNL     1      -5.060   4.899 126.741  0.00  0.00    +0.000 A 
ATOM     27  C   UNL     1      -5.628   4.700 125.483  0.00  0.00    +0.000 A 
ATOM     28  C   UNL     1      -6.001   3.401 125.140  0.00  0.00    +0.000 A 
BRANCH  20  29
ATOM     29  C   UNL     1      -6.946   3.634 122.807  0.00  0.00    +0.000 C 
BRANCH  29  30
ATOM     30  C   UNL     1      -5.765   3.921 121.873  0.00  0.00    +0.000 C 
BRANCH  30  34
ATOM     31  C   UNL     1      -5.768   5.950 118.604  0.00  0.00    +0.000 C 
ATOM     32  C   UNL     1      -5.379   5.456 119.981  0.00  0.00    +0.000 C 
ATOM     33  O   UNL     1      -4.427   5.962 120.575  0.00  0.00    +0.000 OA
ATOM     34  N   UNL     1      -6.135   4.420 120.528  0.00  0.00    +0.000 N 
ATOM     35  C   UNL     1      -7.269   3.812 119.844  0.00  0.00    +0.000 C 
ENDBRANCH  30  34
ENDBRANCH  29  30
ENDBRANCH  20  29
ENDBRANCH   1  25
TORSDOF 5
ENDMDL
MODEL 2
REMARK VINA RESULT:     -10.3      2.233      3.567
REMARK  Name = CHEMBL286979
REMARK  7 active torsions:
REMARK  status: ('A' for Active; 'I' for Inactive)
REMARK    1  A    between atoms: C_1  and  C_2
REMARK    2  A    between atoms: N_4  and  C_5
REMARK    3  A    between atoms: N_4  and  C_6
REMARK    4  A    between atoms: C_6  and  C_7
REMARK    5  A    between atoms: C_7  and  N_8
REMARK    6  A    between atoms: C_13  and  C_14
REMARK    7  A    between atoms: C_19  and  N_20
REMARK                            x       y       z     vdW  Elec       q    Type
REMARK                         _______ _______ _______ _____ _____    ______ ____
ROOT
ATOM      1  C   UNL     1      -4.651   3.680 129.331  0.00  0.00    +0.000 C 
ATOM      2  O   UNL     1      -3.438   3.517 129.470  0.00  0.00    +0.000 OA
ATOM      3  N   UNL     1      -5.433   4.335 130.314  0.00  0.00    +0.000 N 
ATOM      4  C   UNL     1      -5.558   5.771 130.127  0.00  0.00    +0.000 C 
ATOM      5  C   UNL     1      -5.975   6.483 131.392  0.00  0.00    +0.000 C 
ATOM      6  C   UNL     1      -7.659   6.078 131.733  0.00  0.00    +0.000 C 
ATOM      7  C   UNL     1      -7.151   4.461 132.129  0.00  0.00    +0.000 C 
ATOM      8  C   UNL     1      -6.602   3.688 130.935  0.00  0.00    +0.000 C 
ENDROOT
BRANCH   6   9
ATOM      9  N   UNL     1      -8.889   7.075 130.758  0.00  0.00    +0.000 N 
ATOM     10  C   UNL     1      -9.825   6.486 131.672  0.00  0.00    +0.000 C 
ATOM     11  O   UNL     1      -9.812   6.420 132.931  0.00  0.00    +0.000 OA
ATOM     12  O   UNL     1     -10.694   5.683 131.113  0.00  0.00    +0.000 OA
ATOM     13  C   UNL     1     -11.698   6.610 131.013  0.00  0.00    +0.000 C 
ATOM     14  C   UNL     1     -11.427   6.802 129.596  0.00  0.00    +0.000 A 
ATOM     15  C   UNL     1     -12.701   6.595 128.808  0.00  0.00    +0.000 A 
ATOM     16  C   UNL     1     -12.910   6.999 127.527  0.00  0.00    +0.000 A 
ATOM     17  C   UNL     1     -11.954   7.937 127.226  0.00  0.00    +0.000 A 
ATOM     18  C   UNL     1     -10.616   8.169 128.164  0.00  0.00    +0.000 A 
ATOM     19  C   UNL     1     -10.090   7.277 129.342  0.00  0.00    +0.000 A 
ENDBRANCH   6   9
BRANCH   1  25
ATOM     20  N   UNL     1      -6.953   2.544 124.276  0.00  0.00    +0.000 N 
ATOM     21  C   UNL     1      -6.377   3.519 123.506  0.00  0.00    +0.000 A 
ATOM     22  C   UNL     1      -5.545   4.259 124.315  0.00  0.00    +0.000 A 
ATOM     23  C   UNL     1      -5.623   3.726 125.630  0.00  0.00    +0.000 A 
ATOM     24  C   UNL     1      -4.998   4.059 126.857  0.00  0.00    +0.000 A 
ATOM     25  C   UNL     1      -5.290   3.318 128.016  0.00  0.00    +0.000 A 
ATOM     26  C   UNL     1      -6.224   2.289 127.920  0.00  0.00    +0.000 A 
ATOM     27  C   UNL     1      -6.841   1.923 126.724  0.00  0.00    +0.000 A 
ATOM     28  C   UNL     1      -6.525   2.658 125.582  0.00  0.00    +0.000 A 
BRANCH  20  29
ATOM     29  C   UNL     1      -7.906   1.576 123.761  0.00  0.00    +0.000 C 
BRANCH  29  30
ATOM     30  C   UNL     1      -7.336   0.160 123.627  0.00  0.00    +0.000 C 
BRANCH  30  34
ATOM     31  C   UNL     1      -9.353  -3.116 123.639  0.00  0.00    +0.000 C 
ATOM     32  C   UNL     1      -8.419  -2.013 123.190  0.00  0.00    +0.000 C 
ATOM     33  O   UNL     1      -7.839  -2.093 122.107  0.00  0.00    +0.000 OA
ATOM     34  N   UNL     1      -8.250  -0.926 124.049  0.00  0.00    +0.000 N 
ATOM     35  C   UNL     1      -8.932  -0.810 125.331  0.00  0.00    +0.000 C 
ENDBRANCH  30  34
ENDBRANCH  29  30
ENDBRANCH  20  29
ENDBRANCH   1  25
TORSDOF 5
ENDMDL
MODEL 3
REMARK VINA RESULT:      -9.8      2.723      3.540
REMARK  Name = CHEMBL286979
REMARK  7 active torsions:
REMARK  status: ('A' for Active; 'I' for Inactive)
REMARK    1  A    between atoms: C_1  and  C_2
REMARK    2  A    between atoms: N_4  and  C_5
REMARK    3  A    between atoms: N_4  and  C_6
REMARK    4  A    between atoms: C_6  and  C_7
REMARK    5  A    between atoms: C_7  and  N_8
REMARK    6  A    between atoms: C_13  and  C_14
REMARK    7  A    between atoms: C_19  and  N_20
REMARK                            x       y       z     vdW  Elec       q    Type
REMARK                         _______ _______ _______ _____ _____    ______ ____
ROOT
ATOM      1  C   UNL     1      -6.621   0.842 130.536  0.00  0.00    +0.000 C 
ATOM      2  O   UNL     1      -5.689   0.260 131.091  0.00  0.00    +0.000 OA
ATOM      3  N   UNL     1      -7.426   1.784 131.223  0.00  0.00    +0.000 N 
ATOM      4  C   UNL     1      -6.957   3.158 131.132  0.00  0.00    +0.000 C 
ATOM      5  C   UNL     1      -7.534   4.037 132.217  0.00  0.00    +0.000 C 
ATOM      6  C   UNL     1      -9.250   4.284 131.885  0.00  0.00    +0.000 C 
ATOM      7  C   UNL     1      -9.531   2.615 132.292  0.00  0.00    +0.000 C 
ATOM      8  C   UNL     1      -8.889   1.636 131.316  0.00  0.00    +0.000 C 
ENDROOT
BRANCH   6   9
ATOM      9  N   UNL     1      -9.593   5.604 130.622  0.00  0.00    +0.000 N 
ATOM     10  C   UNL     1     -10.571   6.023 131.585  0.00  0.00    +0.000 C 
ATOM     11  O   UNL     1     -10.464   6.241 132.823  0.00  0.00    +0.000 OA
ATOM     12  O   UNL     1     -11.810   5.925 131.175  0.00  0.00    +0.000 OA
ATOM     13  C   UNL     1     -11.935   7.235 130.792  0.00  0.00    +0.000 C 
ATOM     14  C   UNL     1     -11.767   6.878 129.391  0.00  0.00    +0.000 A 
ATOM     15  C   UNL     1     -12.928   7.424 128.591  0.00  0.00    +0.000 A 
ATOM     16  C   UNL     1     -12.955   7.572 127.240  0.00  0.00    +0.000 A 
ATOM     17  C   UNL     1     -11.659   7.518 126.791  0.00  0.00    +0.000 A 
ATOM     18  C   UNL     1     -10.416   6.980 127.735  0.00  0.00    +0.000 A 
ATOM     19  C   UNL     1     -10.497   6.252 129.122  0.00  0.00    +0.000 A 
ENDBRANCH   6   9
BRANCH   1  25
ATOM     20  N   UNL     1      -7.478  -0.032 125.000  0.00  0.00    +0.000 N 
ATOM     21  C   UNL     1      -8.393  -1.051 125.040  0.00  0.00    +0.000 A 
ATOM     22  C   UNL     1      -8.647  -1.338 126.361  0.00  0.00    +0.000 A 
ATOM     23  C   UNL     1      -7.852  -0.474 127.161  0.00  0.00    +0.000 A 
ATOM     24  C   UNL     1      -7.700  -0.302 128.559  0.00  0.00    +0.000 A 
ATOM     25  C   UNL     1      -6.810   0.668 129.052  0.00  0.00    +0.000 A 
ATOM     26  C   UNL     1      -6.073   1.413 128.133  0.00  0.00    +0.000 A 
ATOM     27  C   UNL     1      -6.214   1.282 126.752  0.00  0.00    +0.000 A 
ATOM     28  C   UNL     1      -7.115   0.328 126.282  0.00  0.00    +0.000 A 
BRANCH  20  29
ATOM     29  C   UNL     1      -6.957   0.529 123.766  0.00  0.00    +0.000 C 
BRANCH  29  30
ATOM     30  C   UNL     1      -7.745   1.743 123.260  0.00  0.00    +0.000 C 
BRANCH  30  34
ATOM     31  C   UNL     1      -7.853   4.851 125.527  0.00  0.00    +0.000 C 
ATOM     32  C   UNL     1      -8.237   3.535 124.883  0.00  0.00    +0.000 C 
ATOM     33  O   UNL     1      -9.261   2.949 125.231  0.00  0.00    +0.000 OA
ATOM     34  N   UNL     1      -7.387   3.032 123.898  0.00  0.00    +0.000 N 
ATOM     35  C   UNL     1      -6.174   3.713 123.466  0.00  0.00    +0.000 C 
ENDBRANCH  30  34
ENDBRANCH  29  30
ENDBRANCH  20  29
ENDBRANCH   1  25
TORSDOF 5
ENDMDL
MODEL 4
REMARK VINA RESULT:      -9.8      3.727      9.016
REMARK  Name = CHEMBL286979
REMARK  7 active torsions:
REMARK  status: ('A' for Active; 'I' for Inactive)
REMARK    1  A    between atoms: C_1  and  C_2
REMARK    2  A    between atoms: N_4  and  C_5
REMARK    3  A    between atoms: N_4  and  C_6
REMARK    4  A    between atoms: C_6  and  C_7
REMARK    5  A    between atoms: C_7  and  N_8
REMARK    6  A    between atoms: C_13  and  C_14
REMARK    7  A    between atoms: C_19  and  N_20
REMARK                            x       y       z     vdW  Elec       q    Type
REMARK                         _______ _______ _______ _____ _____    ______ ____
ROOT
ATOM      1  C   UNL     1      -6.326   4.683 125.063  0.00  0.00    +0.000 C 
ATOM      2  O   UNL     1      -5.937   5.585 124.320  0.00  0.00    +0.000 OA
ATOM      3  N   UNL     1      -7.077   3.586 124.572  0.00  0.00    +0.000 N 
ATOM      4  C   UNL     1      -6.276   2.444 124.160  0.00  0.00    +0.000 C 
ATOM      5  C   UNL     1      -7.029   1.515 123.237  0.00  0.00    +0.000 C 
ATOM      6  C   UNL     1      -8.275   0.685 124.173  0.00  0.00    +0.000 C 
ATOM      7  C   UNL     1      -9.136   2.192 124.294  0.00  0.00    +0.000 C 
ATOM      8  C   UNL     1      -8.404   3.246 125.115  0.00  0.00    +0.000 C 
ENDROOT
BRANCH   6   9
ATOM      9  N   UNL     1      -7.647  -0.773 125.141  0.00  0.00    +0.000 N 
ATOM     10  C   UNL     1      -8.870  -1.375 124.690  0.00  0.00    +0.000 C 
ATOM     11  O   UNL     1      -9.366  -1.457 123.534  0.00  0.00    +0.000 OA
ATOM     12  O   UNL     1      -9.716  -1.661 125.646  0.00  0.00    +0.000 OA
ATOM     13  C   UNL     1      -9.358  -2.979 125.760  0.00  0.00    +0.000 C 
ATOM     14  C   UNL     1      -8.576  -2.700 126.956  0.00  0.00    +0.000 A 
ATOM     15  C   UNL     1      -9.026  -3.611 128.076  0.00  0.00    +0.000 A 
ATOM     16  C   UNL     1      -8.329  -3.864 129.214  0.00  0.00    +0.000 A 
ATOM     17  C   UNL     1      -7.028  -3.483 128.999  0.00  0.00    +0.000 A 
ATOM     18  C   UNL     1      -6.581  -2.545 127.716  0.00  0.00    +0.000 A 
ATOM     19  C   UNL     1      -7.505  -1.764 126.717  0.00  0.00    +0.000 A 
ENDBRANCH   6   9
BRANCH   1  25
ATOM     20  N   UNL     1      -4.315   4.644 130.364  0.00  0.00    +0.000 N 
ATOM     21  C   UNL     1      -3.015   5.016 130.147  0.00  0.00    +0.000 A 
ATOM     22  C   UNL     1      -2.852   5.217 128.796  0.00  0.00    +0.000 A 
ATOM     23  C   UNL     1      -4.093   4.948 128.158  0.00  0.00    +0.000 A 
ATOM     24  C   UNL     1      -4.530   4.993 126.811  0.00  0.00    +0.000 A 
ATOM     25  C   UNL     1      -5.858   4.663 126.494  0.00  0.00    +0.000 A 
ATOM     26  C   UNL     1      -6.702   4.262 127.529  0.00  0.00    +0.000 A 
ATOM     27  C   UNL     1      -6.310   4.226 128.866  0.00  0.00    +0.000 A 
ATOM     28  C   UNL     1      -4.993   4.576 129.164  0.00  0.00    +0.000 A 
BRANCH  20  29
ATOM     29  C   UNL     1      -4.851   4.333 131.677  0.00  0.00    +0.000 C 
BRANCH  29  30
ATOM     30  C   UNL     1      -5.492   5.534 132.382  0.00  0.00    +0.000 C 
BRANCH  30  34
ATOM     31  C   UNL     1      -8.739   6.950 130.881  0.00  0.00    +0.000 C 
ATOM     32  C   UNL     1      -7.268   6.752 131.180  0.00  0.00    +0.000 C 
ATOM     33  O   UNL     1      -6.424   7.462 130.635  0.00  0.00    +0.000 OA
ATOM     34  N   UNL     1      -6.927   5.744 132.082  0.00  0.00    +0.000 N 
ATOM     35  C   UNL     1      -7.912   4.898 132.742  0.00  0.00    +0.000 C 
ENDBRANCH  30  34
ENDBRANCH  29  30
ENDBRANCH  20  29
ENDBRANCH   1  25
TORSDOF 5
ENDMDL
MODEL 5
REMARK VINA RESULT:      -9.6      4.176      8.655
REMARK  Name = CHEMBL286979
REMARK  7 active torsions:
REMARK  status: ('A' for Active; 'I' for Inactive)
REMARK    1  A    between atoms: C_1  and  C_2
REMARK    2  A    between atoms: N_4  and  C_5
REMARK    3  A    between atoms: N_4  and  C_6
REMARK    4  A    between atoms: C_6  and  C_7
REMARK    5  A    between atoms: C_7  and  N_8
REMARK    6  A    between atoms: C_13  and  C_14
REMARK    7  A    between atoms: C_19  and  N_20
REMARK                            x       y       z     vdW  Elec       q    Type
REMARK                         _______ _______ _______ _____ _____    ______ ____
ROOT
ATOM      1  C   UNL     1      -7.453   0.013 132.381  0.00  0.00    +0.000 C 
ATOM      2  O   UNL     1      -7.475  -0.505 133.497  0.00  0.00    +0.000 OA
ATOM      3  N   UNL     1      -6.950  -0.676 131.249  0.00  0.00    +0.000 N 
ATOM      4  C   UNL     1      -7.949  -1.431 130.510  0.00  0.00    +0.000 C 
ATOM      5  C   UNL     1      -7.333  -2.493 129.630  0.00  0.00    +0.000 C 
ATOM      6  C   UNL     1      -6.505  -1.699 128.288  0.00  0.00    +0.000 C 
ATOM      7  C   UNL     1      -5.309  -1.126 129.415  0.00  0.00    +0.000 C 
ATOM      8  C   UNL     1      -5.857  -0.127 130.427  0.00  0.00    +0.000 C 
ENDROOT
BRANCH   6   9
ATOM      9  N   UNL     1      -7.632  -1.191 126.900  0.00  0.00    +0.000 N 
ATOM     10  C   UNL     1      -6.480  -1.477 126.095  0.00  0.00    +0.000 C 
ATOM     11  O   UNL     1      -5.733  -2.493 126.062  0.00  0.00    +0.000 OA
ATOM     12  O   UNL     1      -5.976  -0.436 125.482  0.00  0.00    +0.000 OA
ATOM     13  C   UNL     1      -6.605  -0.660 124.285  0.00  0.00    +0.000 C 
ATOM     14  C   UNL     1      -7.592   0.371 124.570  0.00  0.00    +0.000 A 
ATOM     15  C   UNL     1      -7.628   1.362 123.429  0.00  0.00    +0.000 A 
ATOM     16  C   UNL     1      -8.626   2.253 123.190  0.00  0.00    +0.000 A 
ATOM     17  C   UNL     1      -9.729   1.842 123.896  0.00  0.00    +0.000 A 
ATOM     18  C   UNL     1      -9.643   0.700 125.086  0.00  0.00    +0.000 A 
ATOM     19  C   UNL     1      -8.361   0.095 125.758  0.00  0.00    +0.000 A 
ENDBRANCH   6   9
BRANCH   1  25
ATOM     20  N   UNL     1      -9.897   5.105 131.879  0.00  0.00    +0.000 N 
ATOM     21  C   UNL     1      -9.459   5.713 133.025  0.00  0.00    +0.000 A 
ATOM     22  C   UNL     1      -8.661   4.819 133.700  0.00  0.00    +0.000 A 
ATOM     23  C   UNL     1      -8.618   3.613 132.948  0.00  0.00    +0.000 A 
ATOM     24  C   UNL     1      -7.964   2.370 133.133  0.00  0.00    +0.000 A 
ATOM     25  C   UNL     1      -8.123   1.348 132.181  0.00  0.00    +0.000 A 
ATOM     26  C   UNL     1      -8.957   1.587 131.091  0.00  0.00    +0.000 A 
ATOM     27  C   UNL     1      -9.598   2.805 130.870  0.00  0.00    +0.000 A 
ATOM     28  C   UNL     1      -9.415   3.814 131.815  0.00  0.00    +0.000 A 
BRANCH  20  29
ATOM     29  C   UNL     1     -10.778   5.745 130.919  0.00  0.00    +0.000 C 
BRANCH  29  30
ATOM     30  C   UNL     1     -10.197   7.024 130.306  0.00  0.00    +0.000 C 
BRANCH  30  34
ATOM     31  C   UNL     1     -11.267   7.611 126.657  0.00  0.00    +0.000 C 
ATOM     32  C   UNL     1     -10.515   7.083 127.861  0.00  0.00    +0.000 C 
ATOM     33  O   UNL     1      -9.589   6.286 127.712  0.00  0.00    +0.000 OA
ATOM     34  N   UNL     1     -10.919   7.534 129.117  0.00  0.00    +0.000 N 
ATOM     35  C   UNL     1     -12.008   8.482 129.313  0.00  0.00    +0.000 C 
ENDBRANCH  30  34
ENDBRANCH  29  30
ENDBRANCH  20  29
ENDBRANCH   1  25
TORSDOF 5
ENDMDL
MODEL 6
REMARK VINA RESULT:      -9.4      2.555      4.056
REMARK  Name = CHEMBL286979
REMARK  7 active torsions:
REMARK  status: ('A' for Active; 'I' for Inactive)
REMARK    1  A    between atoms: C_1  and  C_2
REMARK    2  A    between atoms: N_4  and  C_5
REMARK    3  A    between atoms: N_4  and  C_6
REMARK    4  A    between atoms: C_6  and  C_7
REMARK    5  A    between atoms: C_7  and  N_8
REMARK    6  A    between atoms: C_13  and  C_14
REMARK    7  A    between atoms: C_19  and  N_20
REMARK                            x       y       z     vdW  Elec       q    Type
REMARK                         _______ _______ _______ _____ _____    ______ ____
ROOT
ATOM      1  C   UNL     1      -3.219   3.782 127.499  0.00  0.00    +0.000 C 
ATOM      2  O   UNL     1      -2.120   3.769 126.943  0.00  0.00    +0.000 OA
ATOM      3  N   UNL     1      -3.384   4.290 128.811  0.00  0.00    +0.000 N 
ATOM      4  C   UNL     1      -3.711   5.706 128.872  0.00  0.00    +0.000 C 
ATOM      5  C   UNL     1      -3.424   6.306 130.228  0.00  0.00    +0.000 C 
ATOM      6  C   UNL     1      -4.603   5.676 131.381  0.00  0.00    +0.000 C 
ATOM      7  C   UNL     1      -3.828   4.122 131.268  0.00  0.00    +0.000 C 
ATOM      8  C   UNL     1      -3.962   3.475 129.894  0.00  0.00    +0.000 C 
ENDROOT
BRANCH   6   9
ATOM      9  N   UNL     1      -6.244   6.548 131.335  0.00  0.00    +0.000 N 
ATOM     10  C   UNL     1      -6.383   5.982 132.646  0.00  0.00    +0.000 C 
ATOM     11  O   UNL     1      -5.601   6.001 133.636  0.00  0.00    +0.000 OA
ATOM     12  O   UNL     1      -7.347   5.103 132.756  0.00  0.00    +0.000 OA
ATOM     13  C   UNL     1      -8.273   5.976 133.267  0.00  0.00    +0.000 C 
ATOM     14  C   UNL     1      -8.935   6.083 131.975  0.00  0.00    +0.000 A 
ATOM     15  C   UNL     1     -10.405   5.767 132.136  0.00  0.00    +0.000 A 
ATOM     16  C   UNL     1     -11.380   6.073 131.241  0.00  0.00    +0.000 A 
ATOM     17  C   UNL     1     -10.880   7.031 130.393  0.00  0.00    +0.000 A 
ATOM     18  C   UNL     1      -9.270   7.386 130.311  0.00  0.00    +0.000 A 
ATOM     19  C   UNL     1      -8.069   6.600 130.945  0.00  0.00    +0.000 A 
ENDBRANCH   6   9
BRANCH   1  25
ATOM     20  N   UNL     1      -7.742   2.500 124.329  0.00  0.00    +0.000 N 
ATOM     21  C   UNL     1      -7.421   3.132 123.157  0.00  0.00    +0.000 A 
ATOM     22  C   UNL     1      -6.195   3.735 123.324  0.00  0.00    +0.000 A 
ATOM     23  C   UNL     1      -5.753   3.475 124.649  0.00  0.00    +0.000 A 
ATOM     24  C   UNL     1      -4.588   3.821 125.376  0.00  0.00    +0.000 A 
ATOM     25  C   UNL     1      -4.442   3.397 126.708  0.00  0.00    +0.000 A 
ATOM     26  C   UNL     1      -5.481   2.669 127.285  0.00  0.00    +0.000 A 
ATOM     27  C   UNL     1      -6.631   2.295 126.591  0.00  0.00    +0.000 A 
ATOM     28  C   UNL     1      -6.750   2.709 125.265  0.00  0.00    +0.000 A 
BRANCH  20  29
ATOM     29  C   UNL     1      -8.978   1.766 124.530  0.00  0.00    +0.000 C 
BRANCH  29  30
ATOM     30  C   UNL     1      -8.938   0.332 123.988  0.00  0.00    +0.000 C 
BRANCH  30  34
ATOM     31  C   UNL     1      -5.931  -1.925 124.806  0.00  0.00    +0.000 C 
ATOM     32  C   UNL     1      -6.858  -0.992 124.055  0.00  0.00    +0.000 C 
ATOM     33  O   UNL     1      -6.575  -0.621 122.917  0.00  0.00    +0.000 OA
ATOM     34  N   UNL     1      -8.022  -0.584 124.707  0.00  0.00    +0.000 N 
ATOM     35  C   UNL     1      -8.378  -1.018 126.051  0.00  0.00    +0.000 C 
ENDBRANCH  30  34
ENDBRANCH  29  30
ENDBRANCH  20  29
ENDBRANCH   1  25
TORSDOF 5
ENDMDL
MODEL 7
REMARK VINA RESULT:      -9.3      4.322      9.013
REMARK  Name = CHEMBL286979
REMARK  7 active torsions:
REMARK  status: ('A' for Active; 'I' for Inactive)
REMARK    1  A    between atoms: C_1  and  C_2
REMARK    2  A    between atoms: N_4  and  C_5
REMARK    3  A    between atoms: N_4  and  C_6
REMARK    4  A    between atoms: C_6  and  C_7
REMARK    5  A    between atoms: C_7  and  N_8
REMARK    6  A    between atoms: C_13  and  C_14
REMARK    7  A    between atoms: C_19  and  N_20
REMARK                            x       y       z     vdW  Elec       q    Type
REMARK                         _______ _______ _______ _____ _____    ______ ____
ROOT
ATOM      1  C   UNL     1      -5.118   4.566 127.595  0.00  0.00    +0.000 C 
ATOM      2  O   UNL     1      -4.508   5.618 127.788  0.00  0.00    +0.000 OA
ATOM      3  N   UNL     1      -5.912   4.366 126.438  0.00  0.00    +0.000 N 
ATOM      4  C   UNL     1      -5.204   3.770 125.317  0.00  0.00    +0.000 C 
ATOM      5  C   UNL     1      -5.911   3.997 124.002  0.00  0.00    +0.000 C 
ATOM      6  C   UNL     1      -7.383   3.022 123.981  0.00  0.00    +0.000 C 
ATOM      7  C   UNL     1      -8.059   4.081 125.184  0.00  0.00    +0.000 C 
ATOM      8  C   UNL     1      -7.340   4.013 126.527  0.00  0.00    +0.000 C 
ENDROOT
BRANCH   6   9
ATOM      9  N   UNL     1      -7.101   1.240 123.530  0.00  0.00    +0.000 N 
ATOM     10  C   UNL     1      -8.495   1.288 123.193  0.00  0.00    +0.000 C 
ATOM     11  O   UNL     1      -9.139   2.104 122.478  0.00  0.00    +0.000 OA
ATOM     12  O   UNL     1      -9.257   0.524 123.934  0.00  0.00    +0.000 OA
ATOM     13  C   UNL     1      -9.298  -0.526 123.055  0.00  0.00    +0.000 C 
ATOM     14  C   UNL     1      -8.321  -1.267 123.839  0.00  0.00    +0.000 A 
ATOM     15  C   UNL     1      -8.874  -2.634 124.172  0.00  0.00    +0.000 A 
ATOM     16  C   UNL     1      -8.144  -3.698 124.598  0.00  0.00    +0.000 A 
ATOM     17  C   UNL     1      -6.828  -3.445 124.301  0.00  0.00    +0.000 A 
ATOM     18  C   UNL     1      -6.291  -1.944 123.872  0.00  0.00    +0.000 A 
ATOM     19  C   UNL     1      -7.059  -0.578 123.954  0.00  0.00    +0.000 A 
ENDBRANCH   6   9
BRANCH   1  25
ATOM     20  N   UNL     1      -4.152   0.374 131.288  0.00  0.00    +0.000 N 
ATOM     21  C   UNL     1      -3.784   1.089 132.397  0.00  0.00    +0.000 A 
ATOM     22  C   UNL     1      -3.840   2.426 132.076  0.00  0.00    +0.000 A 
ATOM     23  C   UNL     1      -4.245   2.536 130.718  0.00  0.00    +0.000 A 
ATOM     24  C   UNL     1      -4.482   3.634 129.855  0.00  0.00    +0.000 A 
ATOM     25  C   UNL     1      -4.888   3.407 128.529  0.00  0.00    +0.000 A 
ATOM     26  C   UNL     1      -5.012   2.088 128.094  0.00  0.00    +0.000 A 
ATOM     27  C   UNL     1      -4.806   0.986 128.924  0.00  0.00    +0.000 A 
ATOM     28  C   UNL     1      -4.421   1.231 130.241  0.00  0.00    +0.000 A 
BRANCH  20  29
ATOM     29  C   UNL     1      -4.196  -1.077 131.250  0.00  0.00    +0.000 C 
BRANCH  29  30
ATOM     30  C   UNL     1      -5.601  -1.656 131.456  0.00  0.00    +0.000 C 
BRANCH  30  34
ATOM     31  C   UNL     1      -7.775  -2.540 128.408  0.00  0.00    +0.000 C 
ATOM     32  C   UNL     1      -7.221  -1.791 129.601  0.00  0.00    +0.000 C 
ATOM     33  O   UNL     1      -7.702  -0.708 129.931  0.00  0.00    +0.000 OA
ATOM     34  N   UNL     1      -6.159  -2.378 130.289  0.00  0.00    +0.000 N 
ATOM     35  C   UNL     1      -5.580  -3.662 129.918  0.00  0.00    +0.000 C 
ENDBRANCH  30  34
ENDBRANCH  29  30
ENDBRANCH  20  29
ENDBRANCH   1  25
TORSDOF 5
ENDMDL
MODEL 8
REMARK VINA RESULT:      -9.3      5.912      7.439
REMARK  Name = CHEMBL286979
REMARK  7 active torsions:
REMARK  status: ('A' for Active; 'I' for Inactive)
REMARK    1  A    between atoms: C_1  and  C_2
REMARK    2  A    between atoms: N_4  and  C_5
REMARK    3  A    between atoms: N_4  and  C_6
REMARK    4  A    between atoms: C_6  and  C_7
REMARK    5  A    between atoms: C_7  and  N_8
REMARK    6  A    between atoms: C_13  and  C_14
REMARK    7  A    between atoms: C_19  and  N_20
REMARK                            x       y       z     vdW  Elec       q    Type
REMARK                         _______ _______ _______ _____ _____    ______ ____
ROOT
ATOM      1  C   UNL     1      -7.291  -1.945 131.768  0.00  0.00    +0.000 C 
ATOM      2  O   UNL     1      -7.493  -2.991 132.385  0.00  0.00    +0.000 OA
ATOM      3  N   UNL     1      -6.638  -0.840 132.368  0.00  0.00    +0.000 N 
ATOM      4  C   UNL     1      -5.194  -0.826 132.196  0.00  0.00    +0.000 C 
ATOM      5  C   UNL     1      -4.502   0.061 133.204  0.00  0.00    +0.000 C 
ATOM      6  C   UNL     1      -4.866   1.743 132.813  0.00  0.00    +0.000 C 
ATOM      7  C   UNL     1      -6.507   1.469 133.325  0.00  0.00    +0.000 C 
ATOM      8  C   UNL     1      -7.265   0.492 132.434  0.00  0.00    +0.000 C 
ENDROOT
BRANCH   6   9
ATOM      9  N   UNL     1      -3.810   2.449 131.455  0.00  0.00    +0.000 N 
ATOM     10  C   UNL     1      -3.296   3.263 132.518  0.00  0.00    +0.000 C 
ATOM     11  O   UNL     1      -2.860   2.945 133.658  0.00  0.00    +0.000 OA
ATOM     12  O   UNL     1      -3.546   4.542 132.390  0.00  0.00    +0.000 OA
ATOM     13  C   UNL     1      -2.333   4.866 131.840  0.00  0.00    +0.000 C 
ATOM     14  C   UNL     1      -2.916   4.933 130.508  0.00  0.00    +0.000 A 
ATOM     15  C   UNL     1      -2.595   6.273 129.885  0.00  0.00    +0.000 A 
ATOM     16  C   UNL     1      -2.686   6.570 128.562  0.00  0.00    +0.000 A 
ATOM     17  C   UNL     1      -2.731   5.384 127.872  0.00  0.00    +0.000 A 
ATOM     18  C   UNL     1      -3.014   3.937 128.616  0.00  0.00    +0.000 A 
ATOM     19  C   UNL     1      -3.493   3.681 130.088  0.00  0.00    +0.000 A 
ENDBRANCH   6   9
BRANCH   1  25
ATOM     20  N   UNL     1      -8.498  -2.021 126.229  0.00  0.00    +0.000 N 
ATOM     21  C   UNL     1      -8.938  -3.309 126.080  0.00  0.00    +0.000 A 
ATOM     22  C   UNL     1      -8.879  -3.921 127.311  0.00  0.00    +0.000 A 
ATOM     23  C   UNL     1      -8.374  -2.978 128.247  0.00  0.00    +0.000 A 
ATOM     24  C   UNL     1      -8.109  -3.028 129.638  0.00  0.00    +0.000 A 
ATOM     25  C   UNL     1      -7.600  -1.895 130.295  0.00  0.00    +0.000 A 
ATOM     26  C   UNL     1      -7.339  -0.756 129.536  0.00  0.00    +0.000 A 
ATOM     27  C   UNL     1      -7.607  -0.667 128.170  0.00  0.00    +0.000 A 
ATOM     28  C   UNL     1      -8.129  -1.796 127.539  0.00  0.00    +0.000 A 
BRANCH  20  29
ATOM     29  C   UNL     1      -8.407  -1.074 125.132  0.00  0.00    +0.000 C 
BRANCH  29  30
ATOM     30  C   UNL     1      -6.968  -0.733 124.729  0.00  0.00    +0.000 C 
BRANCH  30  34
ATOM     31  C   UNL     1      -4.774  -3.731 123.728  0.00  0.00    +0.000 C 
ATOM     32  C   UNL     1      -5.461  -2.680 124.574  0.00  0.00    +0.000 C 
ATOM     33  O   UNL     1      -5.289  -2.654 125.792  0.00  0.00    +0.000 OA
ATOM     34  N   UNL     1      -6.283  -1.765 123.916  0.00  0.00    +0.000 N 
ATOM     35  C   UNL     1      -6.495  -1.775 122.475  0.00  0.00    +0.000 C 
ENDBRANCH  30  34
ENDBRANCH  29  30
ENDBRANCH  20  29
ENDBRANCH   1  25
TORSDOF 5
ENDMDL
MODEL 9
REMARK VINA RESULT:      -9.2      5.337      7.158
REMARK  Name = CHEMBL286979
REMARK  7 active torsions:
REMARK  status: ('A' for Active; 'I' for Inactive)
REMARK    1  A    between atoms: C_1  and  C_2
REMARK    2  A    between atoms: N_4  and  C_5
REMARK    3  A    between atoms: N_4  and  C_6
REMARK    4  A    between atoms: C_6  and  C_7
REMARK    5  A    between atoms: C_7  and  N_8
REMARK    6  A    between atoms: C_13  and  C_14
REMARK    7  A    between atoms: C_19  and  N_20
REMARK                            x       y       z     vdW  Elec       q    Type
REMARK                         _______ _______ _______ _____ _____    ______ ____
ROOT
ATOM      1  C   UNL     1      -6.848  -2.551 130.917  0.00  0.00    +0.000 C 
ATOM      2  O   UNL     1      -7.002  -3.625 131.500  0.00  0.00    +0.000 OA
ATOM      3  N   UNL     1      -6.417  -1.387 131.601  0.00  0.00    +0.000 N 
ATOM      4  C   UNL     1      -4.975  -1.198 131.620  0.00  0.00    +0.000 C 
ATOM      5  C   UNL     1      -4.533  -0.254 132.712  0.00  0.00    +0.000 C 
ATOM      6  C   UNL     1      -5.043   1.380 132.281  0.00  0.00    +0.000 C 
ATOM      7  C   UNL     1      -6.691   0.903 132.572  0.00  0.00    +0.000 C 
ATOM      8  C   UNL     1      -7.204  -0.141 131.587  0.00  0.00    +0.000 C 
ENDROOT
BRANCH   6   9
ATOM      9  N   UNL     1      -3.911   2.231 131.076  0.00  0.00    +0.000 N 
ATOM     10  C   UNL     1      -3.542   2.995 132.233  0.00  0.00    +0.000 C 
ATOM     11  O   UNL     1      -3.193   2.622 133.386  0.00  0.00    +0.000 OA
ATOM     12  O   UNL     1      -3.853   4.265 132.164  0.00  0.00    +0.000 OA
ATOM     13  C   UNL     1      -2.616   4.689 131.751  0.00  0.00    +0.000 C 
ATOM     14  C   UNL     1      -3.080   4.818 130.378  0.00  0.00    +0.000 A 
ATOM     15  C   UNL     1      -2.782   6.212 129.875  0.00  0.00    +0.000 A 
ATOM     16  C   UNL     1      -2.771   6.595 128.571  0.00  0.00    +0.000 A 
ATOM     17  C   UNL     1      -2.686   5.459 127.805  0.00  0.00    +0.000 A 
ATOM     18  C   UNL     1      -2.950   3.952 128.425  0.00  0.00    +0.000 A 
ATOM     19  C   UNL     1      -3.545   3.569 129.826  0.00  0.00    +0.000 A 
ENDBRANCH   6   9
BRANCH   1  25
ATOM     20  N   UNL     1      -7.523  -2.540 125.288  0.00  0.00    +0.000 N 
ATOM     21  C   UNL     1      -8.782  -3.069 125.179  0.00  0.00    +0.000 A 
ATOM     22  C   UNL     1      -9.244  -3.322 126.450  0.00  0.00    +0.000 A 
ATOM     23  C   UNL     1      -8.230  -2.946 127.371  0.00  0.00    +0.000 A 
ATOM     24  C   UNL     1      -8.137  -2.966 128.785  0.00  0.00    +0.000 A 
ATOM     25  C   UNL     1      -6.967  -2.511 129.416  0.00  0.00    +0.000 A 
ATOM     26  C   UNL     1      -5.910  -2.084 128.615  0.00  0.00    +0.000 A 
ATOM     27  C   UNL     1      -5.976  -2.033 127.223  0.00  0.00    +0.000 A 
ATOM     28  C   UNL     1      -7.152  -2.471 126.615  0.00  0.00    +0.000 A 
BRANCH  20  29
ATOM     29  C   UNL     1      -6.713  -2.161 124.144  0.00  0.00    +0.000 C 
BRANCH  29  30
ATOM     30  C   UNL     1      -7.500  -1.446 123.040  0.00  0.00    +0.000 C 
BRANCH  30  34
ATOM     31  C   UNL     1      -9.881   1.534 123.547  0.00  0.00    +0.000 C 
ATOM     32  C   UNL     1      -9.366   0.164 123.161  0.00  0.00    +0.000 C 
ATOM     33  O   UNL     1     -10.123  -0.663 122.655  0.00  0.00    +0.000 OA
ATOM     34  N   UNL     1      -8.020  -0.108 123.407  0.00  0.00    +0.000 N 
ATOM     35  C   UNL     1      -7.106   0.859 123.999  0.00  0.00    +0.000 C 
ENDBRANCH  30  34
ENDBRANCH  29  30
ENDBRANCH  20  29
ENDBRANCH   1  25
TORSDOF 5
ENDMDL
