MODEL 1
REMARK VINA RESULT:      -9.2      0.000      0.000
REMARK  Name = CHEMBL422044
REMARK  9 active torsions:
REMARK  status: ('A' for Active; 'I' for Inactive)
REMARK    1  A    between atoms: C_1  and  C_2
REMARK    2  A    between atoms: N_4  and  C_5
REMARK    3  A    between atoms: C_7  and  C_8
REMARK    4  A    between atoms: N_20  and  C_21
REMARK    5  A    between atoms: C_21  and  C_22
REMARK    6  A    between atoms: N_24  and  C_25
REMARK    7  A    between atoms: C_25  and  C_26
REMARK    8  A    between atoms: C_25  and  C_35
REMARK    9  A    between atoms: C_26  and  C_27
REMARK                            x       y       z     vdW  Elec       q    Type
REMARK                         _______ _______ _______ _____ _____    ______ ____
ROOT
ATOM      1  C   UNL     1      -7.057   3.520 124.463  0.00  0.00    +0.000 C 
ATOM      2  N   UNL     1      -6.779   2.162 124.847  0.00  0.00    +0.000 NA
ATOM      3  C   UNL     1      -5.904   1.842 125.724  0.00  0.00    +0.000 C 
ATOM      4  C   UNL     1      -4.945   2.763 126.331  0.00  0.00    +0.000 A 
ATOM      5  C   UNL     1      -3.619   2.346 126.517  0.00  0.00    +0.000 A 
ATOM      6  C   UNL     1      -2.689   3.193 127.107  0.00  0.00    +0.000 A 
ATOM      7  C   UNL     1      -3.063   4.486 127.426  0.00  0.00    +0.000 A 
ATOM      8  C   UNL     1      -4.390   4.887 127.236  0.00  0.00    +0.000 A 
ATOM      9  C   UNL     1      -5.386   3.989 126.794  0.00  0.00    +0.000 A 
ATOM     10  N   UNL     1      -6.812   4.216 126.911  0.00  0.00    +0.000 N 
ATOM     11  C   UNL     1      -7.645   4.204 125.742  0.00  0.00    +0.000 C 
ATOM     12  O   UNL     1      -8.710   4.836 125.697  0.00  0.00    +0.000 OA
ENDROOT
BRANCH   3  13
ATOM     13  C   UNL     1      -5.888   0.450 126.169  0.00  0.00    +0.000 A 
ATOM     14  C   UNL     1      -6.108   0.201 127.517  0.00  0.00    +0.000 A 
ATOM     15  C   UNL     1      -6.014  -1.102 127.976  0.00  0.00    +0.000 A 
ATOM     16  C   UNL     1      -5.791  -2.143 127.071  0.00  0.00    +0.000 A 
ATOM     17  C   UNL     1      -5.651  -1.886 125.705  0.00  0.00    +0.000 A 
ATOM     18  C   UNL     1      -5.639  -0.574 125.251  0.00  0.00    +0.000 A 
ENDBRANCH   3  13
BRANCH   1  22
ATOM     19  C   UNL     1      -8.799   3.381 121.049  0.00  0.00    +0.000 C 
ATOM     20  C   UNL     1      -7.662   3.461 122.026  0.00  0.00    +0.000 C 
ATOM     21  O   UNL     1      -6.518   3.466 121.579  0.00  0.00    +0.000 OA
ATOM     22  N   UNL     1      -8.020   3.562 123.355  0.00  0.00    +0.000 N 
ATOM     23  H   UNL     1      -8.984   3.371 123.604  0.00  0.00    +0.000 HD
ENDBRANCH   1  22
BRANCH  10  24
ATOM     24  C   UNL     1      -7.399   4.748 128.176  0.00  0.00    +0.000 C 
BRANCH  24  25
ATOM     25  C   UNL     1      -8.508   3.879 128.971  0.00  0.00    +0.000 C 
ATOM     26  O   UNL     1      -8.696   2.663 128.732  0.00  0.00    +0.000 OA
ATOM     27  N   UNL     1      -9.250   4.360 130.025  0.00  0.00    +0.000 N 
ATOM     28  H   UNL     1      -9.896   3.654 130.380  0.00  0.00    +0.000 HD
BRANCH  27  29
ATOM     29  C   UNL     1      -9.342   5.717 130.631  0.00  0.00    +0.000 C 
BRANCH  29  30
ATOM     30  C   UNL     1     -10.789   5.824 131.213  0.00  0.00    +0.000 C 
ATOM     31  N   UNL     1     -10.939   5.867 132.567  0.00  0.00    +0.000 N 
ATOM     32  O   UNL     1     -11.798   5.857 130.505  0.00  0.00    +0.000 OA
ATOM     33  H   UNL     1     -10.190   5.784 133.238  0.00  0.00    +0.000 HD
ATOM     34  H   UNL     1     -11.881   5.913 132.938  0.00  0.00    +0.000 HD
ENDBRANCH  29  30
BRANCH  29  35
ATOM     35  C   UNL     1      -8.211   6.101 131.742  0.00  0.00    +0.000 C 
BRANCH  35  36
ATOM     36  C   UNL     1      -6.710   5.956 131.480  0.00  0.00    +0.000 A 
ATOM     37  C   UNL     1      -6.096   7.069 131.040  0.00  0.00    +0.000 A 
ATOM     38  C   UNL     1      -4.767   7.289 130.756  0.00  0.00    +0.000 A 
ATOM     39  C   UNL     1      -3.924   6.250 130.683  0.00  0.00    +0.000 A 
ATOM     40 CL   UNL     1      -2.358   6.620 130.073  0.00  0.00    +0.000 Cl
ATOM     41  C   UNL     1      -4.449   5.038 131.096  0.00  0.00    +0.000 A 
ATOM     42 CL   UNL     1      -3.455   3.646 130.993  0.00  0.00    +0.000 Cl
ATOM     43  C   UNL     1      -5.811   4.910 131.578  0.00  0.00    +0.000 A 
ENDBRANCH  35  36
ENDBRANCH  29  35
ENDBRANCH  27  29
ENDBRANCH  24  25
ENDBRANCH  10  24
TORSDOF 8
ENDMDL
MODEL 2
REMARK VINA RESULT:      -9.1      4.035      7.551
REMARK  Name = CHEMBL422044
REMARK  9 active torsions:
REMARK  status: ('A' for Active; 'I' for Inactive)
REMARK    1  A    between atoms: C_1  and  C_2
REMARK    2  A    between atoms: N_4  and  C_5
REMARK    3  A    between atoms: C_7  and  C_8
REMARK    4  A    between atoms: N_20  and  C_21
REMARK    5  A    between atoms: C_21  and  C_22
REMARK    6  A    between atoms: N_24  and  C_25
REMARK    7  A    between atoms: C_25  and  C_26
REMARK    8  A    between atoms: C_25  and  C_35
REMARK    9  A    between atoms: C_26  and  C_27
REMARK                            x       y       z     vdW  Elec       q    Type
REMARK                         _______ _______ _______ _____ _____    ______ ____
ROOT
ATOM      1  C   UNL     1      -5.021   1.859 127.791  0.00  0.00    +0.000 C 
ATOM      2  N   UNL     1      -5.330   0.517 128.207  0.00  0.00    +0.000 NA
ATOM      3  C   UNL     1      -6.419   0.193 128.795  0.00  0.00    +0.000 C 
ATOM      4  C   UNL     1      -7.422   1.135 129.287  0.00  0.00    +0.000 A 
ATOM      5  C   UNL     1      -8.017   0.911 130.536  0.00  0.00    +0.000 A 
ATOM      6  C   UNL     1      -8.986   1.779 131.024  0.00  0.00    +0.000 A 
ATOM      7  C   UNL     1      -9.291   2.920 130.303  0.00  0.00    +0.000 A 
ATOM      8  C   UNL     1      -8.689   3.131 129.057  0.00  0.00    +0.000 A 
ATOM      9  C   UNL     1      -7.829   2.176 128.473  0.00  0.00    +0.000 A 
ATOM     10  N   UNL     1      -7.458   2.148 127.072  0.00  0.00    +0.000 N 
ATOM     11  C   UNL     1      -6.077   2.206 126.687  0.00  0.00    +0.000 C 
ATOM     12  O   UNL     1      -5.727   2.657 125.588  0.00  0.00    +0.000 OA
ENDROOT
BRANCH   3  13
ATOM     13  C   UNL     1      -6.687  -1.234 128.957  0.00  0.00    +0.000 A 
ATOM     14  C   UNL     1      -7.715  -1.788 128.205  0.00  0.00    +0.000 A 
ATOM     15  C   UNL     1      -8.043  -3.118 128.405  0.00  0.00    +0.000 A 
ATOM     16  C   UNL     1      -7.284  -3.897 129.284  0.00  0.00    +0.000 A 
ATOM     17  C   UNL     1      -6.201  -3.346 129.974  0.00  0.00    +0.000 A 
ATOM     18  C   UNL     1      -5.932  -1.989 129.859  0.00  0.00    +0.000 A 
ENDBRANCH   3  13
BRANCH   1  22
ATOM     19  C   UNL     1      -1.476   2.937 126.805  0.00  0.00    +0.000 C 
ATOM     20  C   UNL     1      -2.896   3.089 127.267  0.00  0.00    +0.000 C 
ATOM     21  O   UNL     1      -3.281   4.212 127.582  0.00  0.00    +0.000 OA
ATOM     22  N   UNL     1      -3.656   1.938 127.255  0.00  0.00    +0.000 N 
ATOM     23  H   UNL     1      -3.177   1.052 127.144  0.00  0.00    +0.000 HD
ENDBRANCH   1  22
BRANCH  10  24
ATOM     24  C   UNL     1      -8.484   2.350 126.007  0.00  0.00    +0.000 C 
BRANCH  24  25
ATOM     25  C   UNL     1      -8.477   3.714 125.137  0.00  0.00    +0.000 C 
ATOM     26  O   UNL     1      -8.568   4.844 125.673  0.00  0.00    +0.000 OA
ATOM     27  N   UNL     1      -8.270   3.758 123.778  0.00  0.00    +0.000 N 
ATOM     28  H   UNL     1      -8.312   4.715 123.425  0.00  0.00    +0.000 HD
BRANCH  27  29
ATOM     29  C   UNL     1      -8.117   2.677 122.767  0.00  0.00    +0.000 C 
BRANCH  29  30
ATOM     30  C   UNL     1      -7.798   3.400 121.417  0.00  0.00    +0.000 C 
ATOM     31  N   UNL     1      -8.837   3.902 120.692  0.00  0.00    +0.000 N 
ATOM     32  O   UNL     1      -6.654   3.522 120.974  0.00  0.00    +0.000 OA
ATOM     33  H   UNL     1      -9.813   3.802 120.929  0.00  0.00    +0.000 HD
ATOM     34  H   UNL     1      -8.625   4.347 119.808  0.00  0.00    +0.000 HD
ENDBRANCH  29  30
BRANCH  29  35
ATOM     35  C   UNL     1      -7.027   1.510 123.102  0.00  0.00    +0.000 C 
BRANCH  35  36
ATOM     36  C   UNL     1      -7.432   0.082 123.476  0.00  0.00    +0.000 A 
ATOM     37  C   UNL     1      -6.519  -0.603 124.187  0.00  0.00    +0.000 A 
ATOM     38  C   UNL     1      -6.583  -1.875 124.713  0.00  0.00    +0.000 A 
ATOM     39  C   UNL     1      -7.576  -2.695 124.343  0.00  0.00    +0.000 A 
ATOM     40 CL   UNL     1      -7.409  -4.326 124.862  0.00  0.00    +0.000 Cl
ATOM     41  C   UNL     1      -8.576  -2.104 123.588  0.00  0.00    +0.000 A 
ATOM     42 CL   UNL     1      -9.862  -3.091 123.033  0.00  0.00    +0.000 Cl
ATOM     43  C   UNL     1      -8.547  -0.698 123.233  0.00  0.00    +0.000 A 
ENDBRANCH  35  36
ENDBRANCH  29  35
ENDBRANCH  27  29
ENDBRANCH  24  25
ENDBRANCH  10  24
TORSDOF 8
ENDMDL
MODEL 3
REMARK VINA RESULT:      -9.0      3.930      7.216
REMARK  Name = CHEMBL422044
REMARK  9 active torsions:
REMARK  status: ('A' for Active; 'I' for Inactive)
REMARK    1  A    between atoms: C_1  and  C_2
REMARK    2  A    between atoms: N_4  and  C_5
REMARK    3  A    between atoms: C_7  and  C_8
REMARK    4  A    between atoms: N_20  and  C_21
REMARK    5  A    between atoms: C_21  and  C_22
REMARK    6  A    between atoms: N_24  and  C_25
REMARK    7  A    between atoms: C_25  and  C_26
REMARK    8  A    between atoms: C_25  and  C_35
REMARK    9  A    between atoms: C_26  and  C_27
REMARK                            x       y       z     vdW  Elec       q    Type
REMARK                         _______ _______ _______ _____ _____    ______ ____
ROOT
ATOM      1  C   UNL     1      -8.284   4.362 129.292  0.00  0.00    +0.000 C 
ATOM      2  N   UNL     1      -8.580   3.636 128.086  0.00  0.00    +0.000 NA
ATOM      3  C   UNL     1      -7.737   2.877 127.495  0.00  0.00    +0.000 C 
ATOM      4  C   UNL     1      -6.321   2.766 127.836  0.00  0.00    +0.000 A 
ATOM      5  C   UNL     1      -5.371   2.705 126.806  0.00  0.00    +0.000 A 
ATOM      6  C   UNL     1      -4.018   2.582 127.098  0.00  0.00    +0.000 A 
ATOM      7  C   UNL     1      -3.610   2.613 128.420  0.00  0.00    +0.000 A 
ATOM      8  C   UNL     1      -4.569   2.674 129.437  0.00  0.00    +0.000 A 
ATOM      9  C   UNL     1      -5.953   2.631 129.162  0.00  0.00    +0.000 A 
ATOM     10  N   UNL     1      -6.980   2.333 130.140  0.00  0.00    +0.000 N 
ATOM     11  C   UNL     1      -8.039   3.271 130.387  0.00  0.00    +0.000 C 
ATOM     12  O   UNL     1      -8.627   3.314 131.476  0.00  0.00    +0.000 OA
ENDROOT
BRANCH   3  13
ATOM     13  C   UNL     1      -8.246   2.036 126.412  0.00  0.00    +0.000 A 
ATOM     14  C   UNL     1      -8.124   2.512 125.113  0.00  0.00    +0.000 A 
ATOM     15  C   UNL     1      -8.674   1.773 124.080  0.00  0.00    +0.000 A 
ATOM     16  C   UNL     1      -9.256   0.531 124.348  0.00  0.00    +0.000 A 
ATOM     17  C   UNL     1      -9.300   0.027 125.650  0.00  0.00    +0.000 A 
ATOM     18  C   UNL     1      -8.846   0.809 126.704  0.00  0.00    +0.000 A 
ENDBRANCH   3  13
BRANCH   1  22
ATOM     19  C   UNL     1     -10.519   7.314 130.292  0.00  0.00    +0.000 C 
ATOM     20  C   UNL     1      -9.250   6.536 130.096  0.00  0.00    +0.000 C 
ATOM     21  O   UNL     1      -8.188   7.092 130.365  0.00  0.00    +0.000 OA
ATOM     22  N   UNL     1      -9.405   5.236 129.663  0.00  0.00    +0.000 N 
ATOM     23  H   UNL     1     -10.314   4.956 129.312  0.00  0.00    +0.000 HD
ENDBRANCH   1  22
BRANCH  10  24
ATOM     24  C   UNL     1      -6.810   1.209 131.106  0.00  0.00    +0.000 C 
BRANCH  24  25
ATOM     25  C   UNL     1      -7.610  -0.177 130.871  0.00  0.00    +0.000 C 
ATOM     26  O   UNL     1      -8.817  -0.309 131.185  0.00  0.00    +0.000 OA
ATOM     27  N   UNL     1      -7.080  -1.271 130.226  0.00  0.00    +0.000 N 
ATOM     28  H   UNL     1      -7.747  -2.043 130.190  0.00  0.00    +0.000 HD
BRANCH  27  29
ATOM     29  C   UNL     1      -5.715  -1.541 129.697  0.00  0.00    +0.000 C 
BRANCH  29  30
ATOM     30  C   UNL     1      -5.567  -3.097 129.678  0.00  0.00    +0.000 C 
ATOM     31  N   UNL     1      -6.654  -3.854 130.000  0.00  0.00    +0.000 N 
ATOM     32  O   UNL     1      -4.511  -3.669 129.400  0.00  0.00    +0.000 OA
ATOM     33  H   UNL     1      -7.545  -3.491 130.303  0.00  0.00    +0.000 HD
ATOM     34  H   UNL     1      -6.544  -4.861 130.009  0.00  0.00    +0.000 HD
ENDBRANCH  29  30
BRANCH  29  35
ATOM     35  C   UNL     1      -5.345  -0.878 128.253  0.00  0.00    +0.000 C 
BRANCH  35  36
ATOM     36  C   UNL     1      -5.862  -1.440 126.927  0.00  0.00    +0.000 A 
ATOM     37  C   UNL     1      -5.505  -0.744 125.833  0.00  0.00    +0.000 A 
ATOM     38  C   UNL     1      -5.761  -0.997 124.504  0.00  0.00    +0.000 A 
ATOM     39  C   UNL     1      -6.656  -1.937 124.169  0.00  0.00    +0.000 A 
ATOM     40 CL   UNL     1      -7.076  -1.984 122.502  0.00  0.00    +0.000 Cl
ATOM     41  C   UNL     1      -7.113  -2.713 125.220  0.00  0.00    +0.000 A 
ATOM     42 CL   UNL     1      -8.295  -3.909 124.890  0.00  0.00    +0.000 Cl
ATOM     43  C   UNL     1      -6.649  -2.523 126.581  0.00  0.00    +0.000 A 
ENDBRANCH  35  36
ENDBRANCH  29  35
ENDBRANCH  27  29
ENDBRANCH  24  25
ENDBRANCH  10  24
TORSDOF 8
ENDMDL
MODEL 4
REMARK VINA RESULT:      -8.9      4.188      7.029
REMARK  Name = CHEMBL422044
REMARK  9 active torsions:
REMARK  status: ('A' for Active; 'I' for Inactive)
REMARK    1  A    between atoms: C_1  and  C_2
REMARK    2  A    between atoms: N_4  and  C_5
REMARK    3  A    between atoms: C_7  and  C_8
REMARK    4  A    between atoms: N_20  and  C_21
REMARK    5  A    between atoms: C_21  and  C_22
REMARK    6  A    between atoms: N_24  and  C_25
REMARK    7  A    between atoms: C_25  and  C_26
REMARK    8  A    between atoms: C_25  and  C_35
REMARK    9  A    between atoms: C_26  and  C_27
REMARK                            x       y       z     vdW  Elec       q    Type
REMARK                         _______ _______ _______ _____ _____    ______ ____
ROOT
ATOM      1  C   UNL     1     -10.053   6.784 130.627  0.00  0.00    +0.000 C 
ATOM      2  N   UNL     1      -8.642   6.933 130.393  0.00  0.00    +0.000 NA
ATOM      3  C   UNL     1      -7.746   6.326 131.075  0.00  0.00    +0.000 C 
ATOM      4  C   UNL     1      -7.994   5.544 132.284  0.00  0.00    +0.000 A 
ATOM      5  C   UNL     1      -7.114   5.663 133.370  0.00  0.00    +0.000 A 
ATOM      6  C   UNL     1      -7.315   4.920 134.526  0.00  0.00    +0.000 A 
ATOM      7  C   UNL     1      -8.444   4.128 134.630  0.00  0.00    +0.000 A 
ATOM      8  C   UNL     1      -9.313   4.018 133.538  0.00  0.00    +0.000 A 
ATOM      9  C   UNL     1      -9.036   4.635 132.299  0.00  0.00    +0.000 A 
ATOM     10  N   UNL     1      -9.674   4.290 131.045  0.00  0.00    +0.000 N 
ATOM     11  C   UNL     1     -10.376   5.289 130.290  0.00  0.00    +0.000 C 
ATOM     12  O   UNL     1     -11.302   4.992 129.523  0.00  0.00    +0.000 OA
ENDROOT
BRANCH   3  13
ATOM     13  C   UNL     1      -6.371   6.402 130.583  0.00  0.00    +0.000 A 
ATOM     14  C   UNL     1      -5.879   5.316 129.871  0.00  0.00    +0.000 A 
ATOM     15  C   UNL     1      -4.554   5.330 129.469  0.00  0.00    +0.000 A 
ATOM     16  C   UNL     1      -3.769   6.462 129.703  0.00  0.00    +0.000 A 
ATOM     17  C   UNL     1      -4.301   7.580 130.350  0.00  0.00    +0.000 A 
ATOM     18  C   UNL     1      -5.595   7.533 130.849  0.00  0.00    +0.000 A 
ENDBRANCH   3  13
BRANCH   1  22
ATOM     19  C   UNL     1     -12.670   9.157 129.136  0.00  0.00    +0.000 C 
ATOM     20  C   UNL     1     -12.103   8.119 130.059  0.00  0.00    +0.000 C 
ATOM     21  O   UNL     1     -12.818   7.704 130.968  0.00  0.00    +0.000 OA
ATOM     22  N   UNL     1     -10.823   7.693 129.769  0.00  0.00    +0.000 N 
ATOM     23  H   UNL     1     -10.280   8.235 129.106  0.00  0.00    +0.000 HD
ENDBRANCH   1  22
BRANCH  10  24
ATOM     24  C   UNL     1      -9.870   2.862 130.656  0.00  0.00    +0.000 C 
BRANCH  24  25
ATOM     25  C   UNL     1      -8.795   2.142 129.685  0.00  0.00    +0.000 C 
ATOM     26  O   UNL     1      -8.988   2.026 128.451  0.00  0.00    +0.000 OA
ATOM     27  N   UNL     1      -7.561   1.699 130.099  0.00  0.00    +0.000 N 
ATOM     28  H   UNL     1      -7.042   1.269 129.333  0.00  0.00    +0.000 HD
BRANCH  27  29
ATOM     29  C   UNL     1      -6.932   1.643 131.448  0.00  0.00    +0.000 C 
BRANCH  29  30
ATOM     30  C   UNL     1      -7.291   0.236 132.026  0.00  0.00    +0.000 C 
ATOM     31  N   UNL     1      -7.322  -0.825 131.172  0.00  0.00    +0.000 N 
ATOM     32  O   UNL     1      -7.561   0.046 133.214  0.00  0.00    +0.000 OA
ATOM     33  H   UNL     1      -7.181  -0.772 130.174  0.00  0.00    +0.000 HD
ATOM     34  H   UNL     1      -7.579  -1.730 131.549  0.00  0.00    +0.000 HD
ENDBRANCH  29  30
BRANCH  29  35
ATOM     35  C   UNL     1      -5.329   1.939 131.521  0.00  0.00    +0.000 C 
BRANCH  35  36
ATOM     36  C   UNL     1      -4.691   2.774 132.633  0.00  0.00    +0.000 A 
ATOM     37  C   UNL     1      -4.857   2.292 133.877  0.00  0.00    +0.000 A 
ATOM     38  C   UNL     1      -4.380   2.767 135.079  0.00  0.00    +0.000 A 
ATOM     39  C   UNL     1      -3.834   3.990 135.137  0.00  0.00    +0.000 A 
ATOM     40 CL   UNL     1      -3.513   4.571 136.724  0.00  0.00    +0.000 Cl
ATOM     41  C   UNL     1      -3.627   4.600 133.912  0.00  0.00    +0.000 A 
ATOM     42 CL   UNL     1      -2.975   6.185 133.895  0.00  0.00    +0.000 Cl
ATOM     43  C   UNL     1      -3.973   3.955 132.659  0.00  0.00    +0.000 A 
ENDBRANCH  35  36
ENDBRANCH  29  35
ENDBRANCH  27  29
ENDBRANCH  24  25
ENDBRANCH  10  24
TORSDOF 8
ENDMDL
MODEL 5
REMARK VINA RESULT:      -8.9      4.080      7.737
REMARK  Name = CHEMBL422044
REMARK  9 active torsions:
REMARK  status: ('A' for Active; 'I' for Inactive)
REMARK    1  A    between atoms: C_1  and  C_2
REMARK    2  A    between atoms: N_4  and  C_5
REMARK    3  A    between atoms: C_7  and  C_8
REMARK    4  A    between atoms: N_20  and  C_21
REMARK    5  A    between atoms: C_21  and  C_22
REMARK    6  A    between atoms: N_24  and  C_25
REMARK    7  A    between atoms: C_25  and  C_26
REMARK    8  A    between atoms: C_25  and  C_35
REMARK    9  A    between atoms: C_26  and  C_27
REMARK                            x       y       z     vdW  Elec       q    Type
REMARK                         _______ _______ _______ _____ _____    ______ ____
ROOT
ATOM      1  C   UNL     1      -8.312   0.449 129.733  0.00  0.00    +0.000 C 
ATOM      2  N   UNL     1      -7.378  -0.563 130.149  0.00  0.00    +0.000 NA
ATOM      3  C   UNL     1      -7.154  -1.631 129.482  0.00  0.00    +0.000 C 
ATOM      4  C   UNL     1      -7.916  -2.072 128.316  0.00  0.00    +0.000 A 
ATOM      5  C   UNL     1      -8.253  -3.428 128.191  0.00  0.00    +0.000 A 
ATOM      6  C   UNL     1      -8.963  -3.880 127.086  0.00  0.00    +0.000 A 
ATOM      7  C   UNL     1      -9.413  -2.962 126.154  0.00  0.00    +0.000 A 
ATOM      8  C   UNL     1      -9.069  -1.613 126.291  0.00  0.00    +0.000 A 
ATOM      9  C   UNL     1      -8.209  -1.163 127.317  0.00  0.00    +0.000 A 
ATOM     10  N   UNL     1      -7.530   0.117 127.322  0.00  0.00    +0.000 N 
ATOM     11  C   UNL     1      -7.727   1.037 128.406  0.00  0.00    +0.000 C 
ATOM     12  O   UNL     1      -7.589   2.259 128.254  0.00  0.00    +0.000 OA
ENDROOT
BRANCH   3  13
ATOM     13  C   UNL     1      -6.025  -2.456 129.910  0.00  0.00    +0.000 A 
ATOM     14  C   UNL     1      -4.821  -2.304 129.234  0.00  0.00    +0.000 A 
ATOM     15  C   UNL     1      -3.763  -3.134 129.566  0.00  0.00    +0.000 A 
ATOM     16  C   UNL     1      -3.894  -4.038 130.623  0.00  0.00    +0.000 A 
ATOM     17  C   UNL     1      -5.086  -4.124 131.348  0.00  0.00    +0.000 A 
ATOM     18  C   UNL     1      -6.184  -3.371 130.954  0.00  0.00    +0.000 A 
ENDBRANCH   3  13
BRANCH   1  22
ATOM     19  C   UNL     1      -9.140   2.488 132.874  0.00  0.00    +0.000 C 
ATOM     20  C   UNL     1      -9.251   1.379 131.868  0.00  0.00    +0.000 C 
ATOM     21  O   UNL     1     -10.067   0.486 132.085  0.00  0.00    +0.000 OA
ATOM     22  N   UNL     1      -8.440   1.493 130.758  0.00  0.00    +0.000 N 
ATOM     23  H   UNL     1      -7.693   2.177 130.783  0.00  0.00    +0.000 HD
ENDBRANCH   1  22
BRANCH  10  24
ATOM     24  C   UNL     1      -6.856   0.628 126.092  0.00  0.00    +0.000 C 
BRANCH  24  25
ATOM     25  C   UNL     1      -5.260   0.434 125.915  0.00  0.00    +0.000 C 
ATOM     26  O   UNL     1      -4.763  -0.635 125.487  0.00  0.00    +0.000 OA
ATOM     27  N   UNL     1      -4.338   1.436 126.112  0.00  0.00    +0.000 N 
ATOM     28  H   UNL     1      -3.385   1.103 125.955  0.00  0.00    +0.000 HD
BRANCH  27  29
ATOM     29  C   UNL     1      -4.486   2.832 126.608  0.00  0.00    +0.000 C 
BRANCH  29  30
ATOM     30  C   UNL     1      -3.251   3.088 127.532  0.00  0.00    +0.000 C 
ATOM     31  N   UNL     1      -2.005   2.892 127.014  0.00  0.00    +0.000 N 
ATOM     32  O   UNL     1      -3.353   3.444 128.707  0.00  0.00    +0.000 OA
ATOM     33  H   UNL     1      -1.809   2.542 126.089  0.00  0.00    +0.000 HD
ATOM     34  H   UNL     1      -1.211   3.037 127.626  0.00  0.00    +0.000 HD
ENDBRANCH  29  30
BRANCH  29  35
ATOM     35  C   UNL     1      -4.650   3.996 125.476  0.00  0.00    +0.000 C 
BRANCH  35  36
ATOM     36  C   UNL     1      -5.446   3.791 124.186  0.00  0.00    +0.000 A 
ATOM     37  C   UNL     1      -4.887   4.313 123.080  0.00  0.00    +0.000 A 
ATOM     38  C   UNL     1      -5.314   4.268 121.771  0.00  0.00    +0.000 A 
ATOM     39  C   UNL     1      -6.553   3.841 121.492  0.00  0.00    +0.000 A 
ATOM     40 CL   UNL     1      -7.056   4.071 119.864  0.00  0.00    +0.000 Cl
ATOM     41  C   UNL     1      -7.240   3.294 122.562  0.00  0.00    +0.000 A 
ATOM     42 CL   UNL     1      -8.850   2.764 122.307  0.00  0.00    +0.000 Cl
ATOM     43  C   UNL     1      -6.653   3.188 123.885  0.00  0.00    +0.000 A 
ENDBRANCH  35  36
ENDBRANCH  29  35
ENDBRANCH  27  29
ENDBRANCH  24  25
ENDBRANCH  10  24
TORSDOF 8
ENDMDL
MODEL 6
REMARK VINA RESULT:      -8.9      4.185      8.049
REMARK  Name = CHEMBL422044
REMARK  9 active torsions:
REMARK  status: ('A' for Active; 'I' for Inactive)
REMARK    1  A    between atoms: C_1  and  C_2
REMARK    2  A    between atoms: N_4  and  C_5
REMARK    3  A    between atoms: C_7  and  C_8
REMARK    4  A    between atoms: N_20  and  C_21
REMARK    5  A    between atoms: C_21  and  C_22
REMARK    6  A    between atoms: N_24  and  C_25
REMARK    7  A    between atoms: C_25  and  C_26
REMARK    8  A    between atoms: C_25  and  C_35
REMARK    9  A    between atoms: C_26  and  C_27
REMARK                            x       y       z     vdW  Elec       q    Type
REMARK                         _______ _______ _______ _____ _____    ______ ____
ROOT
ATOM      1  C   UNL     1      -7.959   0.482 130.409  0.00  0.00    +0.000 C 
ATOM      2  N   UNL     1      -7.359  -0.680 131.009  0.00  0.00    +0.000 NA
ATOM      3  C   UNL     1      -7.205  -1.791 130.394  0.00  0.00    +0.000 C 
ATOM      4  C   UNL     1      -7.758  -2.110 129.079  0.00  0.00    +0.000 A 
ATOM      5  C   UNL     1      -8.318  -3.377 128.861  0.00  0.00    +0.000 A 
ATOM      6  C   UNL     1      -8.836  -3.715 127.617  0.00  0.00    +0.000 A 
ATOM      7  C   UNL     1      -8.877  -2.755 126.621  0.00  0.00    +0.000 A 
ATOM      8  C   UNL     1      -8.315  -1.495 126.854  0.00  0.00    +0.000 A 
ATOM      9  C   UNL     1      -7.636  -1.190 128.054  0.00  0.00    +0.000 A 
ATOM     10  N   UNL     1      -6.737  -0.068 128.231  0.00  0.00    +0.000 N 
ATOM     11  C   UNL     1      -6.987   0.905 129.257  0.00  0.00    +0.000 C 
ATOM     12  O   UNL     1      -6.582   2.071 129.159  0.00  0.00    +0.000 OA
ENDROOT
BRANCH   3  13
ATOM     13  C   UNL     1      -6.385  -2.807 131.053  0.00  0.00    +0.000 A 
ATOM     14  C   UNL     1      -6.845  -3.327 132.256  0.00  0.00    +0.000 A 
ATOM     15  C   UNL     1      -6.045  -4.226 132.940  0.00  0.00    +0.000 A 
ATOM     16  C   UNL     1      -4.844  -4.660 132.372  0.00  0.00    +0.000 A 
ATOM     17  C   UNL     1      -4.432  -4.189 131.123  0.00  0.00    +0.000 A 
ATOM     18  C   UNL     1      -5.176  -3.208 130.480  0.00  0.00    +0.000 A 
ENDBRANCH   3  13
BRANCH   1  22
ATOM     19  C   UNL     1      -9.155   2.824 133.200  0.00  0.00    +0.000 C 
ATOM     20  C   UNL     1      -9.247   1.759 132.145  0.00  0.00    +0.000 C 
ATOM     21  O   UNL     1     -10.320   1.179 132.006  0.00  0.00    +0.000 OA
ATOM     22  N   UNL     1      -8.106   1.560 131.395  0.00  0.00    +0.000 N 
ATOM     23  H   UNL     1      -7.242   1.975 131.723  0.00  0.00    +0.000 HD
ENDBRANCH   1  22
BRANCH  10  24
ATOM     24  C   UNL     1      -5.719   0.265 127.193  0.00  0.00    +0.000 C 
BRANCH  24  25
ATOM     25  C   UNL     1      -5.147   1.776 127.087  0.00  0.00    +0.000 C 
ATOM     26  O   UNL     1      -4.010   2.087 127.514  0.00  0.00    +0.000 OA
ATOM     27  N   UNL     1      -5.799   2.801 126.442  0.00  0.00    +0.000 N 
ATOM     28  H   UNL     1      -5.271   3.673 126.498  0.00  0.00    +0.000 HD
BRANCH  27  29
ATOM     29  C   UNL     1      -7.142   2.871 125.804  0.00  0.00    +0.000 C 
BRANCH  29  30
ATOM     30  C   UNL     1      -7.618   4.350 125.976  0.00  0.00    +0.000 C 
ATOM     31  N   UNL     1      -7.250   5.261 125.031  0.00  0.00    +0.000 N 
ATOM     32  O   UNL     1      -8.296   4.732 126.932  0.00  0.00    +0.000 OA
ATOM     33  H   UNL     1      -6.646   5.071 124.245  0.00  0.00    +0.000 HD
ATOM     34  H   UNL     1      -7.541   6.222 125.161  0.00  0.00    +0.000 HD
ENDBRANCH  29  30
BRANCH  29  35
ATOM     35  C   UNL     1      -7.242   2.377 124.252  0.00  0.00    +0.000 C 
BRANCH  35  36
ATOM     36  C   UNL     1      -7.467   0.915 123.860  0.00  0.00    +0.000 A 
ATOM     37  C   UNL     1      -8.746   0.579 123.616  0.00  0.00    +0.000 A 
ATOM     38  C   UNL     1      -9.279  -0.622 123.204  0.00  0.00    +0.000 A 
ATOM     39  C   UNL     1      -8.518  -1.725 123.219  0.00  0.00    +0.000 A 
ATOM     40 CL   UNL     1      -9.359  -3.197 122.932  0.00  0.00    +0.000 Cl
ATOM     41  C   UNL     1      -7.175  -1.507 123.478  0.00  0.00    +0.000 A 
ATOM     42 CL   UNL     1      -6.135  -2.867 123.561  0.00  0.00    +0.000 Cl
ATOM     43  C   UNL     1      -6.637  -0.180 123.708  0.00  0.00    +0.000 A 
ENDBRANCH  35  36
ENDBRANCH  29  35
ENDBRANCH  27  29
ENDBRANCH  24  25
ENDBRANCH  10  24
TORSDOF 8
ENDMDL
MODEL 7
REMARK VINA RESULT:      -8.8      3.977      7.123
REMARK  Name = CHEMBL422044
REMARK  9 active torsions:
REMARK  status: ('A' for Active; 'I' for Inactive)
REMARK    1  A    between atoms: C_1  and  C_2
REMARK    2  A    between atoms: N_4  and  C_5
REMARK    3  A    between atoms: C_7  and  C_8
REMARK    4  A    between atoms: N_20  and  C_21
REMARK    5  A    between atoms: C_21  and  C_22
REMARK    6  A    between atoms: N_24  and  C_25
REMARK    7  A    between atoms: C_25  and  C_26
REMARK    8  A    between atoms: C_25  and  C_35
REMARK    9  A    between atoms: C_26  and  C_27
REMARK                            x       y       z     vdW  Elec       q    Type
REMARK                         _______ _______ _______ _____ _____    ______ ____
ROOT
ATOM      1  C   UNL     1      -9.977   6.791 130.597  0.00  0.00    +0.000 C 
ATOM      2  N   UNL     1      -8.563   6.910 130.359  0.00  0.00    +0.000 NA
ATOM      3  C   UNL     1      -7.677   6.315 131.064  0.00  0.00    +0.000 C 
ATOM      4  C   UNL     1      -7.937   5.582 132.301  0.00  0.00    +0.000 A 
ATOM      5  C   UNL     1      -7.056   5.728 133.382  0.00  0.00    +0.000 A 
ATOM      6  C   UNL     1      -7.268   5.031 134.565  0.00  0.00    +0.000 A 
ATOM      7  C   UNL     1      -8.410   4.260 134.696  0.00  0.00    +0.000 A 
ATOM      8  C   UNL     1      -9.279   4.123 133.609  0.00  0.00    +0.000 A 
ATOM      9  C   UNL     1      -8.993   4.690 132.348  0.00  0.00    +0.000 A 
ATOM     10  N   UNL     1      -9.636   4.308 131.106  0.00  0.00    +0.000 N 
ATOM     11  C   UNL     1     -10.322   5.290 130.315  0.00  0.00    +0.000 C 
ATOM     12  O   UNL     1     -11.251   4.979 129.558  0.00  0.00    +0.000 OA
ENDROOT
BRANCH   3  13
ATOM     13  C   UNL     1      -6.301   6.353 130.571  0.00  0.00    +0.000 A 
ATOM     14  C   UNL     1      -5.801   5.208 129.964  0.00  0.00    +0.000 A 
ATOM     15  C   UNL     1      -4.475   5.192 129.566  0.00  0.00    +0.000 A 
ATOM     16  C   UNL     1      -3.696   6.345 129.697  0.00  0.00    +0.000 A 
ATOM     17  C   UNL     1      -4.236   7.515 130.235  0.00  0.00    +0.000 A 
ATOM     18  C   UNL     1      -5.532   7.508 130.734  0.00  0.00    +0.000 A 
ENDBRANCH   3  13
BRANCH   1  22
ATOM     19  C   UNL     1     -12.568   9.130 129.009  0.00  0.00    +0.000 C 
ATOM     20  C   UNL     1     -12.015   8.114 129.967  0.00  0.00    +0.000 C 
ATOM     21  O   UNL     1     -12.745   7.724 130.875  0.00  0.00    +0.000 OA
ATOM     22  N   UNL     1     -10.732   7.680 129.705  0.00  0.00    +0.000 N 
ATOM     23  H   UNL     1     -10.179   8.203 129.037  0.00  0.00    +0.000 HD
ENDBRANCH   1  22
BRANCH  10  24
ATOM     24  C   UNL     1      -9.853   2.871 130.770  0.00  0.00    +0.000 C 
BRANCH  24  25
ATOM     25  C   UNL     1      -8.950   2.171 129.624  0.00  0.00    +0.000 C 
ATOM     26  O   UNL     1      -8.712   2.736 128.529  0.00  0.00    +0.000 OA
ATOM     27  N   UNL     1      -8.296   0.973 129.785  0.00  0.00    +0.000 N 
ATOM     28  H   UNL     1      -7.789   0.706 128.940  0.00  0.00    +0.000 HD
BRANCH  27  29
ATOM     29  C   UNL     1      -8.299  -0.012 130.902  0.00  0.00    +0.000 C 
BRANCH  29  30
ATOM     30  C   UNL     1      -7.404  -1.201 130.422  0.00  0.00    +0.000 C 
ATOM     31  N   UNL     1      -6.347  -0.926 129.606  0.00  0.00    +0.000 N 
ATOM     32  O   UNL     1      -7.619  -2.374 130.735  0.00  0.00    +0.000 OA
ATOM     33  H   UNL     1      -6.118  -0.015 129.239  0.00  0.00    +0.000 HD
ATOM     34  H   UNL     1      -5.786  -1.704 129.280  0.00  0.00    +0.000 HD
ENDBRANCH  29  30
BRANCH  29  35
ATOM     35  C   UNL     1      -7.840   0.540 132.367  0.00  0.00    +0.000 C 
BRANCH  35  36
ATOM     36  C   UNL     1      -6.401   0.953 132.682  0.00  0.00    +0.000 A 
ATOM     37  C   UNL     1      -6.094   2.230 132.389  0.00  0.00    +0.000 A 
ATOM     38  C   UNL     1      -4.921   2.923 132.586  0.00  0.00    +0.000 A 
ATOM     39  C   UNL     1      -3.808   2.258 132.926  0.00  0.00    +0.000 A 
ATOM     40 CL   UNL     1      -2.362   3.189 132.893  0.00  0.00    +0.000 Cl
ATOM     41  C   UNL     1      -3.994   0.922 133.238  0.00  0.00    +0.000 A 
ATOM     42 CL   UNL     1      -2.617  -0.016 133.639  0.00  0.00    +0.000 Cl
ATOM     43  C   UNL     1      -5.302   0.295 133.202  0.00  0.00    +0.000 A 
ENDBRANCH  35  36
ENDBRANCH  29  35
ENDBRANCH  27  29
ENDBRANCH  24  25
ENDBRANCH  10  24
TORSDOF 8
ENDMDL
MODEL 8
REMARK VINA RESULT:      -8.8      4.250      8.107
REMARK  Name = CHEMBL422044
REMARK  9 active torsions:
REMARK  status: ('A' for Active; 'I' for Inactive)
REMARK    1  A    between atoms: C_1  and  C_2
REMARK    2  A    between atoms: N_4  and  C_5
REMARK    3  A    between atoms: C_7  and  C_8
REMARK    4  A    between atoms: N_20  and  C_21
REMARK    5  A    between atoms: C_21  and  C_22
REMARK    6  A    between atoms: N_24  and  C_25
REMARK    7  A    between atoms: C_25  and  C_26
REMARK    8  A    between atoms: C_25  and  C_35
REMARK    9  A    between atoms: C_26  and  C_27
REMARK                            x       y       z     vdW  Elec       q    Type
REMARK                         _______ _______ _______ _____ _____    ______ ____
ROOT
ATOM      1  C   UNL     1      -8.873   5.409 130.070  0.00  0.00    +0.000 C 
ATOM      2  N   UNL     1      -7.517   5.886 130.033  0.00  0.00    +0.000 NA
ATOM      3  C   UNL     1      -6.675   5.692 130.977  0.00  0.00    +0.000 C 
ATOM      4  C   UNL     1      -6.993   5.125 132.285  0.00  0.00    +0.000 A 
ATOM      5  C   UNL     1      -6.420   5.689 133.434  0.00  0.00    +0.000 A 
ATOM      6  C   UNL     1      -6.690   5.162 134.690  0.00  0.00    +0.000 A 
ATOM      7  C   UNL     1      -7.604   4.130 134.804  0.00  0.00    +0.000 A 
ATOM      8  C   UNL     1      -8.168   3.576 133.650  0.00  0.00    +0.000 A 
ATOM      9  C   UNL     1      -7.778   3.989 132.357  0.00  0.00    +0.000 A 
ATOM     10  N   UNL     1      -8.035   3.244 131.141  0.00  0.00    +0.000 N 
ATOM     11  C   UNL     1      -8.766   3.847 130.063  0.00  0.00    +0.000 C 
ATOM     12  O   UNL     1      -9.411   3.166 129.254  0.00  0.00    +0.000 OA
ENDROOT
BRANCH   3  13
ATOM     13  C   UNL     1      -5.281   6.040 130.705  0.00  0.00    +0.000 A 
ATOM     14  C   UNL     1      -4.966   7.386 130.570  0.00  0.00    +0.000 A 
ATOM     15  C   UNL     1      -3.670   7.734 130.229  0.00  0.00    +0.000 A 
ATOM     16  C   UNL     1      -2.691   6.744 130.116  0.00  0.00    +0.000 A 
ATOM     17  C   UNL     1      -3.005   5.400 130.333  0.00  0.00    +0.000 A 
ATOM     18  C   UNL     1      -4.322   5.032 130.572  0.00  0.00    +0.000 A 
ENDBRANCH   3  13
BRANCH   1  22
ATOM     19  C   UNL     1     -10.994   7.427 127.593  0.00  0.00    +0.000 C 
ATOM     20  C   UNL     1     -10.419   7.018 128.918  0.00  0.00    +0.000 C 
ATOM     21  O   UNL     1     -10.718   7.685 129.905  0.00  0.00    +0.000 OA
ATOM     22  N   UNL     1      -9.626   5.889 128.904  0.00  0.00    +0.000 N 
ATOM     23  H   UNL     1      -9.316   5.536 128.006  0.00  0.00    +0.000 HD
ENDBRANCH   1  22
BRANCH  10  24
ATOM     24  C   UNL     1      -7.811   1.770 131.088  0.00  0.00    +0.000 C 
BRANCH  24  25
ATOM     25  C   UNL     1      -8.912   0.769 131.724  0.00  0.00    +0.000 C 
ATOM     26  O   UNL     1     -10.087   1.138 131.960  0.00  0.00    +0.000 OA
ATOM     27  N   UNL     1      -8.691  -0.568 131.959  0.00  0.00    +0.000 N 
ATOM     28  H   UNL     1      -9.511  -1.015 132.370  0.00  0.00    +0.000 HD
BRANCH  27  29
ATOM     29  C   UNL     1      -7.468  -1.406 131.824  0.00  0.00    +0.000 C 
BRANCH  29  30
ATOM     30  C   UNL     1      -7.091  -1.844 133.277  0.00  0.00    +0.000 C 
ATOM     31  N   UNL     1      -5.773  -1.862 133.625  0.00  0.00    +0.000 N 
ATOM     32  O   UNL     1      -7.928  -2.188 134.114  0.00  0.00    +0.000 OA
ATOM     33  H   UNL     1      -5.005  -1.662 133.003  0.00  0.00    +0.000 HD
ATOM     34  H   UNL     1      -5.535  -2.170 134.560  0.00  0.00    +0.000 HD
ENDBRANCH  29  30
BRANCH  29  35
ATOM     35  C   UNL     1      -7.562  -2.680 130.810  0.00  0.00    +0.000 C 
BRANCH  35  36
ATOM     36  C   UNL     1      -7.885  -2.533 129.322  0.00  0.00    +0.000 A 
ATOM     37  C   UNL     1      -8.477  -3.600 128.757  0.00  0.00    +0.000 A 
ATOM     38  C   UNL     1      -8.933  -3.777 127.469  0.00  0.00    +0.000 A 
ATOM     39  C   UNL     1      -8.599  -2.890 126.521  0.00  0.00    +0.000 A 
ATOM     40 CL   UNL     1      -9.008  -3.350 124.914  0.00  0.00    +0.000 Cl
ATOM     41  C   UNL     1      -7.965  -1.749 126.981  0.00  0.00    +0.000 A 
ATOM     42 CL   UNL     1      -7.461  -0.582 125.831  0.00  0.00    +0.000 Cl
ATOM     43  C   UNL     1      -7.690  -1.532 128.389  0.00  0.00    +0.000 A 
ENDBRANCH  35  36
ENDBRANCH  29  35
ENDBRANCH  27  29
ENDBRANCH  24  25
ENDBRANCH  10  24
TORSDOF 8
ENDMDL
MODEL 9
REMARK VINA RESULT:      -8.7      4.361      6.668
REMARK  Name = CHEMBL422044
REMARK  9 active torsions:
REMARK  status: ('A' for Active; 'I' for Inactive)
REMARK    1  A    between atoms: C_1  and  C_2
REMARK    2  A    between atoms: N_4  and  C_5
REMARK    3  A    between atoms: C_7  and  C_8
REMARK    4  A    between atoms: N_20  and  C_21
REMARK    5  A    between atoms: C_21  and  C_22
REMARK    6  A    between atoms: N_24  and  C_25
REMARK    7  A    between atoms: C_25  and  C_26
REMARK    8  A    between atoms: C_25  and  C_35
REMARK    9  A    between atoms: C_26  and  C_27
REMARK                            x       y       z     vdW  Elec       q    Type
REMARK                         _______ _______ _______ _____ _____    ______ ____
ROOT
ATOM      1  C   UNL     1      -9.299   5.766 130.188  0.00  0.00    +0.000 C 
ATOM      2  N   UNL     1      -7.898   6.069 130.071  0.00  0.00    +0.000 NA
ATOM      3  C   UNL     1      -7.046   5.833 130.995  0.00  0.00    +0.000 C 
ATOM      4  C   UNL     1      -7.373   5.397 132.351  0.00  0.00    +0.000 A 
ATOM      5  C   UNL     1      -6.687   5.960 133.436  0.00  0.00    +0.000 A 
ATOM      6  C   UNL     1      -6.965   5.553 134.735  0.00  0.00    +0.000 A 
ATOM      7  C   UNL     1      -7.991   4.651 134.953  0.00  0.00    +0.000 A 
ATOM      8  C   UNL     1      -8.667   4.098 133.860  0.00  0.00    +0.000 A 
ATOM      9  C   UNL     1      -8.286   4.374 132.529  0.00  0.00    +0.000 A 
ATOM     10  N   UNL     1      -8.684   3.589 131.378  0.00  0.00    +0.000 N 
ATOM     11  C   UNL     1      -9.382   4.206 130.287  0.00  0.00    +0.000 C 
ATOM     12  O   UNL     1     -10.140   3.558 129.551  0.00  0.00    +0.000 OA
ENDROOT
BRANCH   3  13
ATOM     13  C   UNL     1      -5.633   5.988 130.652  0.00  0.00    +0.000 A 
ATOM     14  C   UNL     1      -5.006   7.171 131.019  0.00  0.00    +0.000 A 
ATOM     15  C   UNL     1      -3.692   7.375 130.629  0.00  0.00    +0.000 A 
ATOM     16  C   UNL     1      -3.001   6.362 129.960  0.00  0.00    +0.000 A 
ATOM     17  C   UNL     1      -3.621   5.145 129.668  0.00  0.00    +0.000 A 
ATOM     18  C   UNL     1      -4.967   4.973 129.960  0.00  0.00    +0.000 A 
ENDBRANCH   3  13
BRANCH   1  22
ATOM     19  C   UNL     1     -11.502   7.742 127.749  0.00  0.00    +0.000 C 
ATOM     20  C   UNL     1     -10.956   7.287 129.071  0.00  0.00    +0.000 C 
ATOM     21  O   UNL     1     -11.384   7.829 130.088  0.00  0.00    +0.000 OA
ATOM     22  N   UNL     1     -10.039   6.258 129.018  0.00  0.00    +0.000 N 
ATOM     23  H   UNL     1      -9.642   6.021 128.117  0.00  0.00    +0.000 HD
ENDBRANCH   1  22
BRANCH  10  24
ATOM     24  C   UNL     1      -8.642   2.098 131.420  0.00  0.00    +0.000 C 
BRANCH  24  25
ATOM     25  C   UNL     1      -7.358   1.315 130.824  0.00  0.00    +0.000 C 
ATOM     26  O   UNL     1      -7.423   0.637 129.771  0.00  0.00    +0.000 OA
ATOM     27  N   UNL     1      -6.090   1.407 131.349  0.00  0.00    +0.000 N 
ATOM     28  H   UNL     1      -5.428   0.829 130.829  0.00  0.00    +0.000 HD
BRANCH  27  29
ATOM     29  C   UNL     1      -5.571   2.090 132.566  0.00  0.00    +0.000 C 
BRANCH  29  30
ATOM     30  C   UNL     1      -6.127   1.277 133.780  0.00  0.00    +0.000 C 
ATOM     31  N   UNL     1      -5.723   1.630 135.033  0.00  0.00    +0.000 N 
ATOM     32  O   UNL     1      -6.899   0.325 133.654  0.00  0.00    +0.000 OA
ATOM     33  H   UNL     1      -5.048   2.349 135.245  0.00  0.00    +0.000 HD
ATOM     34  H   UNL     1      -6.068   1.084 135.813  0.00  0.00    +0.000 HD
ENDBRANCH  29  30
BRANCH  29  35
ATOM     35  C   UNL     1      -3.955   2.292 132.658  0.00  0.00    +0.000 C 
BRANCH  35  36
ATOM     36  C   UNL     1      -3.305   3.642 132.970  0.00  0.00    +0.000 A 
ATOM     37  C   UNL     1      -2.028   3.769 132.566  0.00  0.00    +0.000 A 
ATOM     38  C   UNL     1      -1.180   4.850 132.649  0.00  0.00    +0.000 A 
ATOM     39  C   UNL     1      -1.521   5.903 133.405  0.00  0.00    +0.000 A 
ATOM     40 CL   UNL     1      -0.279   7.071 133.635  0.00  0.00    +0.000 Cl
ATOM     41  C   UNL     1      -2.816   5.880 133.895  0.00  0.00    +0.000 A 
ATOM     42 CL   UNL     1      -3.323   7.164 134.909  0.00  0.00    +0.000 Cl
ATOM     43  C   UNL     1      -3.733   4.794 133.602  0.00  0.00    +0.000 A 
ENDBRANCH  35  36
ENDBRANCH  29  35
ENDBRANCH  27  29
ENDBRANCH  24  25
ENDBRANCH  10  24
TORSDOF 8
ENDMDL
