MODEL 1
REMARK VINA RESULT:      -9.4      0.000      0.000
REMARK  Name = CHEMBL1779400
REMARK  14 active torsions:
REMARK  status: ('A' for Active; 'I' for Inactive)
REMARK    1  A    between atoms: C_1  and  O_2
REMARK    2  A    between atoms: O_2  and  C_3
REMARK    3  A    between atoms: C_6  and  S_7
REMARK    4  A    between atoms: S_7  and  N_10
REMARK    5  A    between atoms: C_13  and  C_14
REMARK    6  A    between atoms: C_13  and  N_22
REMARK    7  A    between atoms: C_19  and  O_20
REMARK    8  A    between atoms: O_20  and  C_21
REMARK    9  A    between atoms: C_24  and  O_25
REMARK   10  A    between atoms: C_27  and  C_28
REMARK   11  A    between atoms: N_30  and  C_31
REMARK   12  A    between atoms: N_30  and  C_32
REMARK   13  A    between atoms: C_40  and  O_41
REMARK   14  A    between atoms: O_41  and  C_42
REMARK                            x       y       z     vdW  Elec       q    Type
REMARK                         _______ _______ _______ _____ _____    ______ ____
ROOT
ATOM      1  N   UNL     1      -6.952   4.577 127.775  0.00  0.00    +0.000 N 
ATOM      2  C   UNL     1      -7.411   3.244 128.048  0.00  0.00    +0.000 C 
ATOM      3  O   UNL     1      -8.589   3.080 128.378  0.00  0.00    +0.000 OA
ATOM      4  C   UNL     1      -6.133   2.652 128.700  0.00  0.00    +0.000 C 
ATOM      5  C   UNL     1      -6.642   3.261 129.988  0.00  0.00    +0.000 A 
ATOM      6  C   UNL     1      -7.245   2.695 131.144  0.00  0.00    +0.000 A 
ATOM      7  C   UNL     1      -7.609   3.487 132.188  0.00  0.00    +0.000 A 
ATOM      8 CL   UNL     1      -8.801   2.976 133.302  0.00  0.00    +0.000 Cl
ATOM      9  C   UNL     1      -6.944   4.670 132.203  0.00  0.00    +0.000 A 
ATOM     10  C   UNL     1      -6.557   5.219 130.883  0.00  0.00    +0.000 A 
ATOM     11  C   UNL     1      -6.968   4.568 129.629  0.00  0.00    +0.000 A 
ENDROOT
BRANCH   4  12
ATOM     12  C   UNL     1      -6.164   1.111 128.714  0.00  0.00    +0.000 A 
ATOM     13  C   UNL     1      -7.402   0.482 128.411  0.00  0.00    +0.000 A 
ATOM     14  C   UNL     1      -7.582  -0.876 128.552  0.00  0.00    +0.000 A 
ATOM     15  C   UNL     1      -6.448  -1.628 128.558  0.00  0.00    +0.000 A 
ATOM     16  N   UNL     1      -5.234  -1.115 128.718  0.00  0.00    +0.000 NA
ATOM     17  C   UNL     1      -5.159   0.182 129.042  0.00  0.00    +0.000 A 
BRANCH  17  18
ATOM     18  O   UNL     1      -4.133   0.298 129.952  0.00  0.00    +0.000 OA
ATOM     19  C   UNL     1      -4.556   0.074 131.239  0.00  0.00    +0.000 C 
ENDBRANCH  17  18
ENDBRANCH   4  12
BRANCH   4  20
ATOM     20  N   UNL     1      -4.800   3.562 128.155  0.00  0.00    +0.000 NA
ATOM     21  C   UNL     1      -4.553   3.913 126.732  0.00  0.00    +0.000 C 
ATOM     22  C   UNL     1      -3.142   3.376 126.486  0.00  0.00    +0.000 C 
ATOM     23  C   UNL     1      -2.427   3.824 127.763  0.00  0.00    +0.000 C 
ATOM     24  C   UNL     1      -3.408   3.694 128.925  0.00  0.00    +0.000 C 
BRANCH  24  25
ATOM     25  C   UNL     1      -3.316   4.775 130.164  0.00  0.00    +0.000 C 
ATOM     26  O   UNL     1      -3.435   5.952 129.814  0.00  0.00    +0.000 OA
ATOM     27  N   UNL     1      -3.071   4.693 131.515  0.00  0.00    +0.000 N 
ATOM     28  C   UNL     1      -3.420   3.547 132.296  0.00  0.00    +0.000 C 
ATOM     29  C   UNL     1      -2.866   5.983 132.289  0.00  0.00    +0.000 C 
ENDBRANCH  24  25
BRANCH  22  30
ATOM     30  O   UNL     1      -3.053   1.974 126.302  0.00  0.00    +0.000 OA
ATOM     31  H   UNL     1      -2.120   1.729 126.455  0.00  0.00    +0.000 HD
ENDBRANCH  22  30
ENDBRANCH   4  20
BRANCH   1  32
ATOM     32  S   UNL     1      -7.948   4.301 125.897  0.00  0.00    +0.000 S 
ATOM     33  O   UNL     1      -6.776   4.544 125.013  0.00  0.00    +0.000 OA
ATOM     34  O   UNL     1      -9.109   5.119 125.839  0.00  0.00    +0.000 OA
BRANCH  32  38
ATOM     35  C   UNL     1      -9.396  -0.109 123.497  0.00  0.00    +0.000 A 
ATOM     36  C   UNL     1      -9.111   0.033 124.840  0.00  0.00    +0.000 A 
ATOM     37  C   UNL     1      -8.806   1.351 125.461  0.00  0.00    +0.000 A 
ATOM     38  C   UNL     1      -8.705   2.624 124.752  0.00  0.00    +0.000 A 
ATOM     39  C   UNL     1      -8.937   2.401 123.381  0.00  0.00    +0.000 A 
ATOM     40  C   UNL     1      -9.347   1.075 122.814  0.00  0.00    +0.000 A 
BRANCH  35  42
ATOM     41  C   UNL     1      -9.047  -2.495 123.311  0.00  0.00    +0.000 C 
ATOM     42  O   UNL     1      -9.792  -1.310 122.962  0.00  0.00    +0.000 OA
ENDBRANCH  35  42
BRANCH  39  43
ATOM     43  O   UNL     1      -8.699   3.373 122.473  0.00  0.00    +0.000 OA
ATOM     44  C   UNL     1      -7.397   3.269 121.852  0.00  0.00    +0.000 C 
ENDBRANCH  39  43
ENDBRANCH  32  38
ENDBRANCH   1  32
TORSDOF 9
ENDMDL
MODEL 2
REMARK VINA RESULT:      -9.0      3.970      7.313
REMARK  Name = CHEMBL1779400
REMARK  14 active torsions:
REMARK  status: ('A' for Active; 'I' for Inactive)
REMARK    1  A    between atoms: C_1  and  O_2
REMARK    2  A    between atoms: O_2  and  C_3
REMARK    3  A    between atoms: C_6  and  S_7
REMARK    4  A    between atoms: S_7  and  N_10
REMARK    5  A    between atoms: C_13  and  C_14
REMARK    6  A    between atoms: C_13  and  N_22
REMARK    7  A    between atoms: C_19  and  O_20
REMARK    8  A    between atoms: O_20  and  C_21
REMARK    9  A    between atoms: C_24  and  O_25
REMARK   10  A    between atoms: C_27  and  C_28
REMARK   11  A    between atoms: N_30  and  C_31
REMARK   12  A    between atoms: N_30  and  C_32
REMARK   13  A    between atoms: C_40  and  O_41
REMARK   14  A    between atoms: O_41  and  C_42
REMARK                            x       y       z     vdW  Elec       q    Type
REMARK                         _______ _______ _______ _____ _____    ______ ____
ROOT
ATOM      1  N   UNL     1      -9.011   3.008 129.467  0.00  0.00    +0.000 N 
ATOM      2  C   UNL     1      -8.257   4.219 129.301  0.00  0.00    +0.000 C 
ATOM      3  O   UNL     1      -8.499   4.938 128.328  0.00  0.00    +0.000 OA
ATOM      4  C   UNL     1      -6.879   3.747 129.836  0.00  0.00    +0.000 C 
ATOM      5  C   UNL     1      -6.640   3.220 128.438  0.00  0.00    +0.000 A 
ATOM      6  C   UNL     1      -5.834   3.684 127.363  0.00  0.00    +0.000 A 
ATOM      7  C   UNL     1      -5.795   3.001 126.187  0.00  0.00    +0.000 A 
ATOM      8 CL   UNL     1      -5.326   3.776 124.737  0.00  0.00    +0.000 Cl
ATOM      9  C   UNL     1      -6.176   1.705 126.323  0.00  0.00    +0.000 A 
ATOM     10  C   UNL     1      -7.181   1.427 127.375  0.00  0.00    +0.000 A 
ATOM     11  C   UNL     1      -7.805   2.511 128.150  0.00  0.00    +0.000 A 
ENDROOT
BRANCH   4  12
ATOM     12  C   UNL     1      -5.967   4.939 130.190  0.00  0.00    +0.000 A 
ATOM     13  C   UNL     1      -4.564   4.725 130.128  0.00  0.00    +0.000 A 
ATOM     14  C   UNL     1      -3.664   5.666 130.577  0.00  0.00    +0.000 A 
ATOM     15  C   UNL     1      -4.131   6.942 130.661  0.00  0.00    +0.000 A 
ATOM     16  N   UNL     1      -5.422   7.251 130.610  0.00  0.00    +0.000 NA
ATOM     17  C   UNL     1      -6.292   6.234 130.635  0.00  0.00    +0.000 A 
BRANCH  17  18
ATOM     18  O   UNL     1      -7.349   6.645 131.415  0.00  0.00    +0.000 OA
ATOM     19  C   UNL     1      -7.251   6.179 132.703  0.00  0.00    +0.000 C 
ENDBRANCH  17  18
ENDBRANCH   4  12
BRANCH   4  20
ATOM     20  N   UNL     1      -7.148   2.426 130.878  0.00  0.00    +0.000 NA
ATOM     21  C   UNL     1      -8.171   2.407 131.956  0.00  0.00    +0.000 C 
ATOM     22  C   UNL     1      -7.351   2.066 133.202  0.00  0.00    +0.000 C 
ATOM     23  C   UNL     1      -6.445   0.956 132.666  0.00  0.00    +0.000 C 
ATOM     24  C   UNL     1      -6.068   1.305 131.229  0.00  0.00    +0.000 C 
BRANCH  24  25
ATOM     25  C   UNL     1      -5.853   0.081 130.148  0.00  0.00    +0.000 C 
ATOM     26  O   UNL     1      -4.777   0.125 129.546  0.00  0.00    +0.000 OA
ATOM     27  N   UNL     1      -6.621  -0.967 129.694  0.00  0.00    +0.000 N 
ATOM     28  C   UNL     1      -7.611  -1.608 130.503  0.00  0.00    +0.000 C 
ATOM     29  C   UNL     1      -6.113  -1.770 128.510  0.00  0.00    +0.000 C 
ENDBRANCH  24  25
BRANCH  22  30
ATOM     30  O   UNL     1      -6.600   3.140 133.741  0.00  0.00    +0.000 OA
ATOM     31  H   UNL     1      -5.658   2.930 133.586  0.00  0.00    +0.000 HD
ENDBRANCH  22  30
ENDBRANCH   4  20
BRANCH   1  32
ATOM     32  S   UNL     1     -10.541   4.319 130.201  0.00  0.00    +0.000 S 
ATOM     33  O   UNL     1      -9.898   4.669 131.496  0.00  0.00    +0.000 OA
ATOM     34  O   UNL     1     -11.804   3.670 130.145  0.00  0.00    +0.000 OA
BRANCH  32  38
ATOM     35  C   UNL     1     -12.708   9.023 129.502  0.00  0.00    +0.000 A 
ATOM     36  C   UNL     1     -12.810   8.238 130.633  0.00  0.00    +0.000 A 
ATOM     37  C   UNL     1     -12.073   6.953 130.787  0.00  0.00    +0.000 A 
ATOM     38  C   UNL     1     -11.221   6.333 129.776  0.00  0.00    +0.000 A 
ATOM     39  C   UNL     1     -11.215   7.144 128.625  0.00  0.00    +0.000 A 
ATOM     40  C   UNL     1     -11.885   8.484 128.551  0.00  0.00    +0.000 A 
BRANCH  35  42
ATOM     41  C   UNL     1     -13.398  11.051 130.624  0.00  0.00    +0.000 C 
ATOM     42  O   UNL     1     -13.298  10.259 129.422  0.00  0.00    +0.000 OA
ENDBRANCH  35  42
BRANCH  39  43
ATOM     43  O   UNL     1     -10.674   6.701 127.470  0.00  0.00    +0.000 OA
ATOM     44  C   UNL     1     -10.945   7.565 126.342  0.00  0.00    +0.000 C 
ENDBRANCH  39  43
ENDBRANCH  32  38
ENDBRANCH   1  32
TORSDOF 9
ENDMDL
MODEL 3
REMARK VINA RESULT:      -8.9      1.680      1.869
REMARK  Name = CHEMBL1779400
REMARK  14 active torsions:
REMARK  status: ('A' for Active; 'I' for Inactive)
REMARK    1  A    between atoms: C_1  and  O_2
REMARK    2  A    between atoms: O_2  and  C_3
REMARK    3  A    between atoms: C_6  and  S_7
REMARK    4  A    between atoms: S_7  and  N_10
REMARK    5  A    between atoms: C_13  and  C_14
REMARK    6  A    between atoms: C_13  and  N_22
REMARK    7  A    between atoms: C_19  and  O_20
REMARK    8  A    between atoms: O_20  and  C_21
REMARK    9  A    between atoms: C_24  and  O_25
REMARK   10  A    between atoms: C_27  and  C_28
REMARK   11  A    between atoms: N_30  and  C_31
REMARK   12  A    between atoms: N_30  and  C_32
REMARK   13  A    between atoms: C_40  and  O_41
REMARK   14  A    between atoms: O_41  and  C_42
REMARK                            x       y       z     vdW  Elec       q    Type
REMARK                         _______ _______ _______ _____ _____    ______ ____
ROOT
ATOM      1  N   UNL     1      -6.985   3.931 127.575  0.00  0.00    +0.000 N 
ATOM      2  C   UNL     1      -7.084   2.608 128.126  0.00  0.00    +0.000 C 
ATOM      3  O   UNL     1      -8.203   2.162 128.396  0.00  0.00    +0.000 OA
ATOM      4  C   UNL     1      -5.799   2.587 128.994  0.00  0.00    +0.000 C 
ATOM      5  C   UNL     1      -6.638   3.262 130.057  0.00  0.00    +0.000 A 
ATOM      6  C   UNL     1      -7.216   2.791 131.266  0.00  0.00    +0.000 A 
ATOM      7  C   UNL     1      -7.935   3.630 132.059  0.00  0.00    +0.000 A 
ATOM      8 CL   UNL     1      -9.081   3.020 133.171  0.00  0.00    +0.000 Cl
ATOM      9  C   UNL     1      -7.639   4.937 131.839  0.00  0.00    +0.000 A 
ATOM     10  C   UNL     1      -7.238   5.292 130.457  0.00  0.00    +0.000 A 
ATOM     11  C   UNL     1      -7.264   4.302 129.370  0.00  0.00    +0.000 A 
ENDROOT
BRANCH   4  12
ATOM     12  C   UNL     1      -5.395   1.149 129.376  0.00  0.00    +0.000 A 
ATOM     13  C   UNL     1      -6.179   0.090 128.844  0.00  0.00    +0.000 A 
ATOM     14  C   UNL     1      -6.008  -1.215 129.247  0.00  0.00    +0.000 A 
ATOM     15  C   UNL     1      -4.806  -1.510 129.815  0.00  0.00    +0.000 A 
ATOM     16  N   UNL     1      -3.954  -0.583 130.237  0.00  0.00    +0.000 NA
ATOM     17  C   UNL     1      -4.384   0.685 130.238  0.00  0.00    +0.000 A 
BRANCH  17  18
ATOM     18  O   UNL     1      -3.879   1.266 131.378  0.00  0.00    +0.000 OA
ATOM     19  C   UNL     1      -4.510   0.815 132.511  0.00  0.00    +0.000 C 
ENDBRANCH  17  18
ENDBRANCH   4  12
BRANCH   4  20
ATOM     20  N   UNL     1      -4.713   3.729 128.348  0.00  0.00    +0.000 NA
ATOM     21  C   UNL     1      -4.446   3.902 126.896  0.00  0.00    +0.000 C 
ATOM     22  C   UNL     1      -2.928   3.742 126.804  0.00  0.00    +0.000 C 
ATOM     23  C   UNL     1      -2.469   4.569 128.007  0.00  0.00    +0.000 C 
ATOM     24  C   UNL     1      -3.476   4.361 129.135  0.00  0.00    +0.000 C 
BRANCH  24  25
ATOM     25  C   UNL     1      -3.779   5.610 130.165  0.00  0.00    +0.000 C 
ATOM     26  O   UNL     1      -4.049   6.673 129.600  0.00  0.00    +0.000 OA
ATOM     27  N   UNL     1      -3.744   5.781 131.530  0.00  0.00    +0.000 N 
ATOM     28  C   UNL     1      -4.003   4.717 132.449  0.00  0.00    +0.000 C 
ATOM     29  C   UNL     1      -3.901   7.187 132.083  0.00  0.00    +0.000 C 
ENDBRANCH  24  25
BRANCH  22  30
ATOM     30  O   UNL     1      -2.456   2.408 126.875  0.00  0.00    +0.000 OA
ATOM     31  H   UNL     1      -1.495   2.459 127.046  0.00  0.00    +0.000 HD
ENDBRANCH  22  30
ENDBRANCH   4  20
BRANCH   1  32
ATOM     32  S   UNL     1      -7.583   2.980 125.749  0.00  0.00    +0.000 S 
ATOM     33  O   UNL     1      -6.641   3.686 124.840  0.00  0.00    +0.000 OA
ATOM     34  O   UNL     1      -8.992   3.079 125.589  0.00  0.00    +0.000 OA
BRANCH  32  38
ATOM     35  C   UNL     1      -6.314  -1.650 123.685  0.00  0.00    +0.000 A 
ATOM     36  C   UNL     1      -5.772  -1.090 124.824  0.00  0.00    +0.000 A 
ATOM     37  C   UNL     1      -6.267   0.191 125.401  0.00  0.00    +0.000 A 
ATOM     38  C   UNL     1      -7.313   1.036 124.829  0.00  0.00    +0.000 A 
ATOM     39  C   UNL     1      -7.773   0.446 123.636  0.00  0.00    +0.000 A 
ATOM     40  C   UNL     1      -7.323  -0.898 123.148  0.00  0.00    +0.000 A 
BRANCH  35  42
ATOM     41  C   UNL     1      -4.613  -3.366 123.578  0.00  0.00    +0.000 C 
ATOM     42  O   UNL     1      -5.929  -2.888 123.232  0.00  0.00    +0.000 OA
ENDBRANCH  35  42
BRANCH  39  43
ATOM     43  O   UNL     1      -8.591   1.124 122.802  0.00  0.00    +0.000 OA
ATOM     44  C   UNL     1      -9.991   0.818 123.000  0.00  0.00    +0.000 C 
ENDBRANCH  39  43
ENDBRANCH  32  38
ENDBRANCH   1  32
TORSDOF 9
ENDMDL
MODEL 4
REMARK VINA RESULT:      -8.8      2.784      7.808
REMARK  Name = CHEMBL1779400
REMARK  14 active torsions:
REMARK  status: ('A' for Active; 'I' for Inactive)
REMARK    1  A    between atoms: C_1  and  O_2
REMARK    2  A    between atoms: O_2  and  C_3
REMARK    3  A    between atoms: C_6  and  S_7
REMARK    4  A    between atoms: S_7  and  N_10
REMARK    5  A    between atoms: C_13  and  C_14
REMARK    6  A    between atoms: C_13  and  N_22
REMARK    7  A    between atoms: C_19  and  O_20
REMARK    8  A    between atoms: O_20  and  C_21
REMARK    9  A    between atoms: C_24  and  O_25
REMARK   10  A    between atoms: C_27  and  C_28
REMARK   11  A    between atoms: N_30  and  C_31
REMARK   12  A    between atoms: N_30  and  C_32
REMARK   13  A    between atoms: C_40  and  O_41
REMARK   14  A    between atoms: O_41  and  C_42
REMARK                            x       y       z     vdW  Elec       q    Type
REMARK                         _______ _______ _______ _____ _____    ______ ____
ROOT
ATOM      1  N   UNL     1      -8.658   1.400 128.206  0.00  0.00    +0.000 N 
ATOM      2  C   UNL     1      -7.869   2.506 127.742  0.00  0.00    +0.000 C 
ATOM      3  O   UNL     1      -8.447   3.487 127.266  0.00  0.00    +0.000 OA
ATOM      4  C   UNL     1      -6.645   1.738 127.178  0.00  0.00    +0.000 C 
ATOM      5  C   UNL     1      -7.461   1.586 125.913  0.00  0.00    +0.000 A 
ATOM      6  C   UNL     1      -7.390   2.220 124.643  0.00  0.00    +0.000 A 
ATOM      7  C   UNL     1      -8.263   1.883 123.656  0.00  0.00    +0.000 A 
ATOM      8 CL   UNL     1      -8.586   2.958 122.367  0.00  0.00    +0.000 Cl
ATOM      9  C   UNL     1      -8.815   0.656 123.843  0.00  0.00    +0.000 A 
ATOM     10  C   UNL     1      -8.998   0.231 125.250  0.00  0.00    +0.000 A 
ATOM     11  C   UNL     1      -8.697   1.133 126.373  0.00  0.00    +0.000 A 
ENDROOT
BRANCH   4  12
ATOM     12  C   UNL     1      -5.426   2.666 126.995  0.00  0.00    +0.000 A 
ATOM     13  C   UNL     1      -4.239   2.085 126.474  0.00  0.00    +0.000 A 
ATOM     14  C   UNL     1      -3.051   2.779 126.421  0.00  0.00    +0.000 A 
ATOM     15  C   UNL     1      -3.154   4.136 126.466  0.00  0.00    +0.000 A 
ATOM     16  N   UNL     1      -4.262   4.772 126.829  0.00  0.00    +0.000 NA
ATOM     17  C   UNL     1      -5.259   4.025 127.319  0.00  0.00    +0.000 A 
BRANCH  17  18
ATOM     18  O   UNL     1      -5.816   4.748 128.349  0.00  0.00    +0.000 OA
ATOM     19  C   UNL     1      -4.867   5.219 129.222  0.00  0.00    +0.000 C 
ENDBRANCH  17  18
ENDBRANCH   4  12
BRANCH   4  20
ATOM     20  N   UNL     1      -6.568   0.229 127.963  0.00  0.00    +0.000 NA
ATOM     21  C   UNL     1      -6.591   0.052 129.439  0.00  0.00    +0.000 C 
ATOM     22  C   UNL     1      -5.319  -0.755 129.708  0.00  0.00    +0.000 C 
ATOM     23  C   UNL     1      -5.377  -1.786 128.580  0.00  0.00    +0.000 C 
ATOM     24  C   UNL     1      -5.935  -1.096 127.337  0.00  0.00    +0.000 C 
BRANCH  24  25
ATOM     25  C   UNL     1      -6.863  -1.971 126.295  0.00  0.00    +0.000 C 
ATOM     26  O   UNL     1      -7.907  -2.402 126.793  0.00  0.00    +0.000 OA
ATOM     27  N   UNL     1      -6.729  -2.404 124.996  0.00  0.00    +0.000 N 
ATOM     28  C   UNL     1      -5.980  -1.683 124.014  0.00  0.00    +0.000 C 
ATOM     29  C   UNL     1      -7.753  -3.388 124.457  0.00  0.00    +0.000 C 
ENDBRANCH  24  25
BRANCH  22  30
ATOM     30  O   UNL     1      -4.115  -0.010 129.676  0.00  0.00    +0.000 OA
ATOM     31  H   UNL     1      -3.841   0.041 128.739  0.00  0.00    +0.000 HD
ENDBRANCH  22  30
ENDBRANCH   4  20
BRANCH   1  32
ATOM     32  S   UNL     1      -8.995   2.643 129.921  0.00  0.00    +0.000 S 
ATOM     33  O   UNL     1      -9.021   1.565 130.945  0.00  0.00    +0.000 OA
ATOM     34  O   UNL     1     -10.117   3.487 129.695  0.00  0.00    +0.000 OA
BRANCH  32  38
ATOM     35  C   UNL     1      -6.042   5.455 133.188  0.00  0.00    +0.000 A 
ATOM     36  C   UNL     1      -5.822   4.145 132.813  0.00  0.00    +0.000 A 
ATOM     37  C   UNL     1      -6.657   3.452 131.794  0.00  0.00    +0.000 A 
ATOM     38  C   UNL     1      -7.823   4.017 131.119  0.00  0.00    +0.000 A 
ATOM     39  C   UNL     1      -8.036   5.325 131.596  0.00  0.00    +0.000 A 
ATOM     40  C   UNL     1      -7.107   6.023 132.543  0.00  0.00    +0.000 A 
BRANCH  35  42
ATOM     41  C   UNL     1      -3.896   6.513 133.545  0.00  0.00    +0.000 C 
ATOM     42  O   UNL     1      -5.193   6.118 134.039  0.00  0.00    +0.000 OA
ENDBRANCH  35  42
BRANCH  39  43
ATOM     43  O   UNL     1      -9.167   5.995 131.291  0.00  0.00    +0.000 OA
ATOM     44  C   UNL     1     -10.167   5.935 132.335  0.00  0.00    +0.000 C 
ENDBRANCH  39  43
ENDBRANCH  32  38
ENDBRANCH   1  32
TORSDOF 9
ENDMDL
MODEL 5
REMARK VINA RESULT:      -8.6      3.359      7.610
REMARK  Name = CHEMBL1779400
REMARK  14 active torsions:
REMARK  status: ('A' for Active; 'I' for Inactive)
REMARK    1  A    between atoms: C_1  and  O_2
REMARK    2  A    between atoms: O_2  and  C_3
REMARK    3  A    between atoms: C_6  and  S_7
REMARK    4  A    between atoms: S_7  and  N_10
REMARK    5  A    between atoms: C_13  and  C_14
REMARK    6  A    between atoms: C_13  and  N_22
REMARK    7  A    between atoms: C_19  and  O_20
REMARK    8  A    between atoms: O_20  and  C_21
REMARK    9  A    between atoms: C_24  and  O_25
REMARK   10  A    between atoms: C_27  and  C_28
REMARK   11  A    between atoms: N_30  and  C_31
REMARK   12  A    between atoms: N_30  and  C_32
REMARK   13  A    between atoms: C_40  and  O_41
REMARK   14  A    between atoms: O_41  and  C_42
REMARK                            x       y       z     vdW  Elec       q    Type
REMARK                         _______ _______ _______ _____ _____    ______ ____
ROOT
ATOM      1  N   UNL     1      -8.474   0.896 128.731  0.00  0.00    +0.000 N 
ATOM      2  C   UNL     1      -7.852   2.101 128.259  0.00  0.00    +0.000 C 
ATOM      3  O   UNL     1      -8.571   3.032 127.888  0.00  0.00    +0.000 OA
ATOM      4  C   UNL     1      -6.609   1.498 127.554  0.00  0.00    +0.000 C 
ATOM      5  C   UNL     1      -7.515   1.312 126.357  0.00  0.00    +0.000 A 
ATOM      6  C   UNL     1      -7.627   2.003 125.120  0.00  0.00    +0.000 A 
ATOM      7  C   UNL     1      -8.545   1.616 124.195  0.00  0.00    +0.000 A 
ATOM      8 CL   UNL     1      -9.095   2.703 122.996  0.00  0.00    +0.000 Cl
ATOM      9  C   UNL     1      -8.944   0.329 124.363  0.00  0.00    +0.000 A 
ATOM     10  C   UNL     1      -8.954  -0.175 125.756  0.00  0.00    +0.000 A 
ATOM     11  C   UNL     1      -8.650   0.705 126.895  0.00  0.00    +0.000 A 
ENDROOT
BRANCH   4  12
ATOM     12  C   UNL     1      -5.517   2.561 127.317  0.00  0.00    +0.000 A 
ATOM     13  C   UNL     1      -4.275   2.112 126.794  0.00  0.00    +0.000 A 
ATOM     14  C   UNL     1      -3.183   2.945 126.696  0.00  0.00    +0.000 A 
ATOM     15  C   UNL     1      -3.451   4.280 126.696  0.00  0.00    +0.000 A 
ATOM     16  N   UNL     1      -4.624   4.787 127.058  0.00  0.00    +0.000 NA
ATOM     17  C   UNL     1      -5.514   3.941 127.592  0.00  0.00    +0.000 A 
BRANCH  17  18
ATOM     18  O   UNL     1      -6.142   4.626 128.607  0.00  0.00    +0.000 OA
ATOM     19  C   UNL     1      -5.254   5.073 129.554  0.00  0.00    +0.000 C 
ENDBRANCH  17  18
ENDBRANCH   4  12
BRANCH   4  20
ATOM     20  N   UNL     1      -6.302  -0.026 128.249  0.00  0.00    +0.000 NA
ATOM     21  C   UNL     1      -6.191  -0.272 129.711  0.00  0.00    +0.000 C 
ATOM     22  C   UNL     1      -4.820  -0.936 129.845  0.00  0.00    +0.000 C 
ATOM     23  C   UNL     1      -4.847  -1.914 128.669  0.00  0.00    +0.000 C 
ATOM     24  C   UNL     1      -5.573  -1.239 127.509  0.00  0.00    +0.000 C 
BRANCH  24  25
ATOM     25  C   UNL     1      -6.473  -2.168 126.489  0.00  0.00    +0.000 C 
ATOM     26  O   UNL     1      -7.398  -2.769 127.042  0.00  0.00    +0.000 OA
ATOM     27  N   UNL     1      -6.410  -2.496 125.155  0.00  0.00    +0.000 N 
ATOM     28  C   UNL     1      -5.861  -1.619 124.168  0.00  0.00    +0.000 C 
ATOM     29  C   UNL     1      -7.342  -3.577 124.635  0.00  0.00    +0.000 C 
ENDBRANCH  24  25
BRANCH  22  30
ATOM     30  O   UNL     1      -3.714  -0.055 129.768  0.00  0.00    +0.000 OA
ATOM     31  H   UNL     1      -3.358   0.030 130.674  0.00  0.00    +0.000 HD
ENDBRANCH  22  30
ENDBRANCH   4  20
BRANCH   1  32
ATOM     32  S   UNL     1      -8.784   2.019 130.531  0.00  0.00    +0.000 S 
ATOM     33  O   UNL     1      -7.443   2.656 130.601  0.00  0.00    +0.000 OA
ATOM     34  O   UNL     1      -9.259   1.162 131.561  0.00  0.00    +0.000 OA
BRANCH  32  38
ATOM     35  C   UNL     1     -11.482   6.431 131.279  0.00  0.00    +0.000 A 
ATOM     36  C   UNL     1     -11.696   5.504 130.278  0.00  0.00    +0.000 A 
ATOM     37  C   UNL     1     -10.946   4.221 130.200  0.00  0.00    +0.000 A 
ATOM     38  C   UNL     1      -9.873   3.804 131.100  0.00  0.00    +0.000 A 
ATOM     39  C   UNL     1      -9.657   4.819 132.052  0.00  0.00    +0.000 A 
ATOM     40  C   UNL     1     -10.507   6.049 132.160  0.00  0.00    +0.000 A 
BRANCH  35  42
ATOM     41  C   UNL     1     -12.619   8.281 130.213  0.00  0.00    +0.000 C 
ATOM     42  O   UNL     1     -12.262   7.554 131.407  0.00  0.00    +0.000 OA
ENDBRANCH  35  42
BRANCH  39  43
ATOM     43  O   UNL     1      -8.585   4.780 132.871  0.00  0.00    +0.000 OA
ATOM     44  C   UNL     1      -8.740   3.855 133.973  0.00  0.00    +0.000 C 
ENDBRANCH  39  43
ENDBRANCH  32  38
ENDBRANCH   1  32
TORSDOF 9
ENDMDL
MODEL 6
REMARK VINA RESULT:      -8.5      3.687      7.124
REMARK  Name = CHEMBL1779400
REMARK  14 active torsions:
REMARK  status: ('A' for Active; 'I' for Inactive)
REMARK    1  A    between atoms: C_1  and  O_2
REMARK    2  A    between atoms: O_2  and  C_3
REMARK    3  A    between atoms: C_6  and  S_7
REMARK    4  A    between atoms: S_7  and  N_10
REMARK    5  A    between atoms: C_13  and  C_14
REMARK    6  A    between atoms: C_13  and  N_22
REMARK    7  A    between atoms: C_19  and  O_20
REMARK    8  A    between atoms: O_20  and  C_21
REMARK    9  A    between atoms: C_24  and  O_25
REMARK   10  A    between atoms: C_27  and  C_28
REMARK   11  A    between atoms: N_30  and  C_31
REMARK   12  A    between atoms: N_30  and  C_32
REMARK   13  A    between atoms: C_40  and  O_41
REMARK   14  A    between atoms: O_41  and  C_42
REMARK                            x       y       z     vdW  Elec       q    Type
REMARK                         _______ _______ _______ _____ _____    ______ ____
ROOT
ATOM      1  N   UNL     1      -8.635   2.610 128.702  0.00  0.00    +0.000 N 
ATOM      2  C   UNL     1      -7.707   3.704 128.655  0.00  0.00    +0.000 C 
ATOM      3  O   UNL     1      -7.978   4.681 127.951  0.00  0.00    +0.000 OA
ATOM      4  C   UNL     1      -6.370   2.921 128.748  0.00  0.00    +0.000 C 
ATOM      5  C   UNL     1      -6.491   2.754 127.249  0.00  0.00    +0.000 A 
ATOM      6  C   UNL     1      -5.818   3.367 126.158  0.00  0.00    +0.000 A 
ATOM      7  C   UNL     1      -6.122   3.019 124.879  0.00  0.00    +0.000 A 
ATOM      8 CL   UNL     1      -5.783   4.076 123.578  0.00  0.00    +0.000 Cl
ATOM      9  C   UNL     1      -6.711   1.799 124.795  0.00  0.00    +0.000 A 
ATOM     10  C   UNL     1      -7.545   1.396 125.952  0.00  0.00    +0.000 A 
ATOM     11  C   UNL     1      -7.802   2.314 127.072  0.00  0.00    +0.000 A 
ENDROOT
BRANCH   4  12
ATOM     12  C   UNL     1      -5.200   3.840 129.155  0.00  0.00    +0.000 A 
ATOM     13  C   UNL     1      -5.526   5.153 129.591  0.00  0.00    +0.000 A 
ATOM     14  C   UNL     1      -4.557   6.104 129.822  0.00  0.00    +0.000 A 
ATOM     15  C   UNL     1      -3.300   5.630 130.045  0.00  0.00    +0.000 A 
ATOM     16  N   UNL     1      -2.934   4.382 129.777  0.00  0.00    +0.000 NA
ATOM     17  C   UNL     1      -3.811   3.619 129.114  0.00  0.00    +0.000 A 
BRANCH  17  18
ATOM     18  O   UNL     1      -3.078   2.862 128.230  0.00  0.00    +0.000 OA
ATOM     19  C   UNL     1      -2.355   3.640 127.360  0.00  0.00    +0.000 C 
ENDBRANCH  17  18
ENDBRANCH   4  12
BRANCH   4  20
ATOM     20  N   UNL     1      -6.693   1.424 129.493  0.00  0.00    +0.000 NA
ATOM     21  C   UNL     1      -7.495   1.263 130.735  0.00  0.00    +0.000 C 
ATOM     22  C   UNL     1      -6.546   0.499 131.660  0.00  0.00    +0.000 C 
ATOM     23  C   UNL     1      -5.973  -0.546 130.700  0.00  0.00    +0.000 C 
ATOM     24  C   UNL     1      -5.798   0.112 129.334  0.00  0.00    +0.000 C 
BRANCH  24  25
ATOM     25  C   UNL     1      -6.011  -0.803 127.981  0.00  0.00    +0.000 C 
ATOM     26  O   UNL     1      -5.146  -0.633 127.118  0.00  0.00    +0.000 OA
ATOM     27  N   UNL     1      -6.971  -1.684 127.540  0.00  0.00    +0.000 N 
ATOM     28  C   UNL     1      -7.754  -2.484 128.429  0.00  0.00    +0.000 C 
ATOM     29  C   UNL     1      -6.892  -2.173 126.104  0.00  0.00    +0.000 C 
ENDBRANCH  24  25
BRANCH  22  30
ATOM     30  O   UNL     1      -5.525   1.280 132.253  0.00  0.00    +0.000 OA
ATOM     31  H   UNL     1      -5.932   2.133 132.503  0.00  0.00    +0.000 HD
ENDBRANCH  22  30
ENDBRANCH   4  20
BRANCH   1  32
ATOM     32  S   UNL     1      -9.730   3.881 130.037  0.00  0.00    +0.000 S 
ATOM     33  O   UNL     1      -8.592   4.284 130.905  0.00  0.00    +0.000 OA
ATOM     34  O   UNL     1     -10.855   3.184 130.555  0.00  0.00    +0.000 OA
BRANCH  32  38
ATOM     35  C   UNL     1     -12.371   8.389 130.122  0.00  0.00    +0.000 A 
ATOM     36  C   UNL     1     -12.383   7.418 131.104  0.00  0.00    +0.000 A 
ATOM     37  C   UNL     1     -11.518   6.208 131.045  0.00  0.00    +0.000 A 
ATOM     38  C   UNL     1     -10.615   5.857 129.952  0.00  0.00    +0.000 A 
ATOM     39  C   UNL     1     -10.701   6.848 128.955  0.00  0.00    +0.000 A 
ATOM     40  C   UNL     1     -11.504   8.105 129.102  0.00  0.00    +0.000 A 
BRANCH  35  42
ATOM     41  C   UNL     1     -13.464  10.259 129.046  0.00  0.00    +0.000 C 
ATOM     42  O   UNL     1     -13.084   9.555 130.247  0.00  0.00    +0.000 OA
ENDBRANCH  35  42
BRANCH  39  43
ATOM     43  O   UNL     1     -10.127   6.664 127.747  0.00  0.00    +0.000 OA
ATOM     44  C   UNL     1     -10.783   7.393 126.684  0.00  0.00    +0.000 C 
ENDBRANCH  39  43
ENDBRANCH  32  38
ENDBRANCH   1  32
TORSDOF 9
ENDMDL
MODEL 7
REMARK VINA RESULT:      -8.5      2.766      5.255
REMARK  Name = CHEMBL1779400
REMARK  14 active torsions:
REMARK  status: ('A' for Active; 'I' for Inactive)
REMARK    1  A    between atoms: C_1  and  O_2
REMARK    2  A    between atoms: O_2  and  C_3
REMARK    3  A    between atoms: C_6  and  S_7
REMARK    4  A    between atoms: S_7  and  N_10
REMARK    5  A    between atoms: C_13  and  C_14
REMARK    6  A    between atoms: C_13  and  N_22
REMARK    7  A    between atoms: C_19  and  O_20
REMARK    8  A    between atoms: O_20  and  C_21
REMARK    9  A    between atoms: C_24  and  O_25
REMARK   10  A    between atoms: C_27  and  C_28
REMARK   11  A    between atoms: N_30  and  C_31
REMARK   12  A    between atoms: N_30  and  C_32
REMARK   13  A    between atoms: C_40  and  O_41
REMARK   14  A    between atoms: O_41  and  C_42
REMARK                            x       y       z     vdW  Elec       q    Type
REMARK                         _______ _______ _______ _____ _____    ______ ____
ROOT
ATOM      1  N   UNL     1      -4.876   3.478 130.244  0.00  0.00    +0.000 N 
ATOM      2  C   UNL     1      -5.813   4.311 129.543  0.00  0.00    +0.000 C 
ATOM      3  O   UNL     1      -5.447   4.867 128.504  0.00  0.00    +0.000 OA
ATOM      4  C   UNL     1      -6.579   4.919 130.747  0.00  0.00    +0.000 C 
ATOM      5  C   UNL     1      -5.466   5.943 130.797  0.00  0.00    +0.000 A 
ATOM      6  C   UNL     1      -5.401   7.309 130.412  0.00  0.00    +0.000 A 
ATOM      7  C   UNL     1      -4.252   8.017 130.576  0.00  0.00    +0.000 A 
ATOM      8 CL   UNL     1      -3.946   9.421 129.650  0.00  0.00    +0.000 Cl
ATOM      9  C   UNL     1      -3.430   7.470 131.508  0.00  0.00    +0.000 A 
ATOM     10  C   UNL     1      -3.486   5.995 131.643  0.00  0.00    +0.000 A 
ATOM     11  C   UNL     1      -4.307   5.170 130.742  0.00  0.00    +0.000 A 
ENDROOT
BRANCH   4  12
ATOM     12  C   UNL     1      -7.930   5.525 130.314  0.00  0.00    +0.000 A 
ATOM     13  C   UNL     1      -8.464   6.565 131.122  0.00  0.00    +0.000 A 
ATOM     14  C   UNL     1      -9.732   7.063 130.921  0.00  0.00    +0.000 A 
ATOM     15  C   UNL     1     -10.267   6.848 129.687  0.00  0.00    +0.000 A 
ATOM     16  N   UNL     1      -9.766   5.979 128.818  0.00  0.00    +0.000 NA
ATOM     17  C   UNL     1      -8.786   5.177 129.254  0.00  0.00    +0.000 A 
BRANCH  17  18
ATOM     18  O   UNL     1      -9.013   3.943 128.689  0.00  0.00    +0.000 OA
ATOM     19  C   UNL     1      -9.446   3.024 129.613  0.00  0.00    +0.000 C 
ENDBRANCH  17  18
ENDBRANCH   4  12
BRANCH   4  20
ATOM     20  N   UNL     1      -6.404   3.857 132.067  0.00  0.00    +0.000 NA
ATOM     21  C   UNL     1      -6.588   2.384 131.986  0.00  0.00    +0.000 C 
ATOM     22  C   UNL     1      -7.641   2.109 133.061  0.00  0.00    +0.000 C 
ATOM     23  C   UNL     1      -7.134   2.989 134.205  0.00  0.00    +0.000 C 
ATOM     24  C   UNL     1      -6.567   4.271 133.601  0.00  0.00    +0.000 C 
BRANCH  24  25
ATOM     25  C   UNL     1      -5.285   4.995 134.340  0.00  0.00    +0.000 C 
ATOM     26  O   UNL     1      -5.439   6.202 134.544  0.00  0.00    +0.000 OA
ATOM     27  N   UNL     1      -4.032   4.590 134.739  0.00  0.00    +0.000 N 
ATOM     28  C   UNL     1      -3.744   3.249 135.143  0.00  0.00    +0.000 C 
ATOM     29  C   UNL     1      -3.052   5.649 135.212  0.00  0.00    +0.000 C 
ENDBRANCH  24  25
BRANCH  22  30
ATOM     30  O   UNL     1      -8.971   2.436 132.699  0.00  0.00    +0.000 OA
ATOM     31  H   UNL     1      -9.244   1.790 132.017  0.00  0.00    +0.000 HD
ENDBRANCH  22  30
ENDBRANCH   4  20
BRANCH   1  32
ATOM     32  S   UNL     1      -5.354   2.039 128.729  0.00  0.00    +0.000 S 
ATOM     33  O   UNL     1      -5.811   0.947 129.630  0.00  0.00    +0.000 OA
ATOM     34  O   UNL     1      -4.247   1.871 127.853  0.00  0.00    +0.000 OA
BRANCH  32  38
ATOM     35  C   UNL     1      -9.005   0.740 125.224  0.00  0.00    +0.000 A 
ATOM     36  C   UNL     1      -8.604  -0.021 126.303  0.00  0.00    +0.000 A 
ATOM     37  C   UNL     1      -7.628   0.472 127.313  0.00  0.00    +0.000 A 
ATOM     38  C   UNL     1      -6.934   1.757 127.273  0.00  0.00    +0.000 A 
ATOM     39  C   UNL     1      -7.333   2.453 126.115  0.00  0.00    +0.000 A 
ATOM     40  C   UNL     1      -8.399   1.966 125.180  0.00  0.00    +0.000 A 
BRANCH  35  42
ATOM     41  C   UNL     1      -9.932   0.745 122.990  0.00  0.00    +0.000 C 
ATOM     42  O   UNL     1      -9.993   0.321 124.367  0.00  0.00    +0.000 OA
ENDBRANCH  35  42
BRANCH  39  43
ATOM     43  O   UNL     1      -6.688   3.575 125.728  0.00  0.00    +0.000 OA
ATOM     44  C   UNL     1      -7.564   4.718 125.588  0.00  0.00    +0.000 C 
ENDBRANCH  39  43
ENDBRANCH  32  38
ENDBRANCH   1  32
TORSDOF 9
ENDMDL
MODEL 8
REMARK VINA RESULT:      -8.4      3.287      6.178
REMARK  Name = CHEMBL1779400
REMARK  14 active torsions:
REMARK  status: ('A' for Active; 'I' for Inactive)
REMARK    1  A    between atoms: C_1  and  O_2
REMARK    2  A    between atoms: O_2  and  C_3
REMARK    3  A    between atoms: C_6  and  S_7
REMARK    4  A    between atoms: S_7  and  N_10
REMARK    5  A    between atoms: C_13  and  C_14
REMARK    6  A    between atoms: C_13  and  N_22
REMARK    7  A    between atoms: C_19  and  O_20
REMARK    8  A    between atoms: O_20  and  C_21
REMARK    9  A    between atoms: C_24  and  O_25
REMARK   10  A    between atoms: C_27  and  C_28
REMARK   11  A    between atoms: N_30  and  C_31
REMARK   12  A    between atoms: N_30  and  C_32
REMARK   13  A    between atoms: C_40  and  O_41
REMARK   14  A    between atoms: O_41  and  C_42
REMARK                            x       y       z     vdW  Elec       q    Type
REMARK                         _______ _______ _______ _____ _____    ______ ____
ROOT
ATOM      1  N   UNL     1      -4.756   1.492 131.654  0.00  0.00    +0.000 N 
ATOM      2  C   UNL     1      -4.944   1.709 130.247  0.00  0.00    +0.000 C 
ATOM      3  O   UNL     1      -3.979   1.564 129.492  0.00  0.00    +0.000 OA
ATOM      4  C   UNL     1      -5.969   2.872 130.294  0.00  0.00    +0.000 C 
ATOM      5  C   UNL     1      -4.767   3.780 130.433  0.00  0.00    +0.000 A 
ATOM      6  C   UNL     1      -4.119   4.660 129.524  0.00  0.00    +0.000 A 
ATOM      7  C   UNL     1      -3.035   5.381 129.918  0.00  0.00    +0.000 A 
ATOM      8 CL   UNL     1      -1.919   5.985 128.772  0.00  0.00    +0.000 Cl
ATOM      9  C   UNL     1      -2.966   5.525 131.266  0.00  0.00    +0.000 A 
ATOM     10  C   UNL     1      -3.520   4.411 132.071  0.00  0.00    +0.000 A 
ATOM     11  C   UNL     1      -4.015   3.178 131.441  0.00  0.00    +0.000 A 
ENDROOT
BRANCH   4  12
ATOM     12  C   UNL     1      -6.696   3.045 128.945  0.00  0.00    +0.000 A 
ATOM     13  C   UNL     1      -6.254   2.238 127.861  0.00  0.00    +0.000 A 
ATOM     14  C   UNL     1      -6.721   2.424 126.579  0.00  0.00    +0.000 A 
ATOM     15  C   UNL     1      -7.908   3.081 126.468  0.00  0.00    +0.000 A 
ATOM     16  N   UNL     1      -8.458   3.766 127.464  0.00  0.00    +0.000 NA
ATOM     17  C   UNL     1      -7.719   3.934 128.568  0.00  0.00    +0.000 A 
BRANCH  17  18
ATOM     18  O   UNL     1      -7.964   5.214 129.009  0.00  0.00    +0.000 OA
ATOM     19  C   UNL     1      -9.218   5.341 129.554  0.00  0.00    +0.000 C 
ENDBRANCH  17  18
ENDBRANCH   4  12
BRANCH   4  20
ATOM     20  N   UNL     1      -6.774   2.799 131.793  0.00  0.00    +0.000 NA
ATOM     21  C   UNL     1      -7.346   1.557 132.376  0.00  0.00    +0.000 C 
ATOM     22  C   UNL     1      -8.806   1.936 132.629  0.00  0.00    +0.000 C 
ATOM     23  C   UNL     1      -8.650   3.336 133.225  0.00  0.00    +0.000 C 
ATOM     24  C   UNL     1      -7.499   4.032 132.503  0.00  0.00    +0.000 C 
BRANCH  24  25
ATOM     25  C   UNL     1      -6.561   5.092 133.345  0.00  0.00    +0.000 C 
ATOM     26  O   UNL     1      -6.465   6.204 132.821  0.00  0.00    +0.000 OA
ATOM     27  N   UNL     1      -5.790   5.022 134.483  0.00  0.00    +0.000 N 
ATOM     28  C   UNL     1      -6.088   4.138 135.567  0.00  0.00    +0.000 C 
ATOM     29  C   UNL     1      -4.897   6.203 134.819  0.00  0.00    +0.000 C 
ENDBRANCH  24  25
BRANCH  22  30
ATOM     30  O   UNL     1      -9.634   1.945 131.480  0.00  0.00    +0.000 OA
ATOM     31  H   UNL     1      -9.375   2.726 130.952  0.00  0.00    +0.000 HD
ENDBRANCH  22  30
ENDBRANCH   4  20
BRANCH   1  32
ATOM     32  S   UNL     1      -4.860  -0.583 131.127  0.00  0.00    +0.000 S 
ATOM     33  O   UNL     1      -5.437  -1.084 132.403  0.00  0.00    +0.000 OA
ATOM     34  O   UNL     1      -3.595  -1.028 130.655  0.00  0.00    +0.000 OA
BRANCH  32  38
ATOM     35  C   UNL     1      -8.184  -3.032 127.924  0.00  0.00    +0.000 A 
ATOM     36  C   UNL     1      -7.676  -1.760 127.755  0.00  0.00    +0.000 A 
ATOM     37  C   UNL     1      -6.652  -1.177 128.664  0.00  0.00    +0.000 A 
ATOM     38  C   UNL     1      -6.105  -1.821 129.857  0.00  0.00    +0.000 A 
ATOM     39  C   UNL     1      -6.712  -3.082 130.012  0.00  0.00    +0.000 A 
ATOM     40  C   UNL     1      -7.661  -3.674 129.013  0.00  0.00    +0.000 A 
BRANCH  35  42
ATOM     41  C   UNL     1      -9.455  -2.811 125.878  0.00  0.00    +0.000 C 
ATOM     42  O   UNL     1      -9.038  -3.600 127.012  0.00  0.00    +0.000 OA
ENDBRANCH  35  42
BRANCH  39  43
ATOM     43  O   UNL     1      -6.540  -3.796 131.145  0.00  0.00    +0.000 OA
ATOM     44  C   UNL     1      -5.280  -4.504 131.190  0.00  0.00    +0.000 C 
ENDBRANCH  39  43
ENDBRANCH  32  38
ENDBRANCH   1  32
TORSDOF 9
ENDMDL
MODEL 9
REMARK VINA RESULT:      -8.3      3.098      5.434
REMARK  Name = CHEMBL1779400
REMARK  14 active torsions:
REMARK  status: ('A' for Active; 'I' for Inactive)
REMARK    1  A    between atoms: C_1  and  O_2
REMARK    2  A    between atoms: O_2  and  C_3
REMARK    3  A    between atoms: C_6  and  S_7
REMARK    4  A    between atoms: S_7  and  N_10
REMARK    5  A    between atoms: C_13  and  C_14
REMARK    6  A    between atoms: C_13  and  N_22
REMARK    7  A    between atoms: C_19  and  O_20
REMARK    8  A    between atoms: O_20  and  C_21
REMARK    9  A    between atoms: C_24  and  O_25
REMARK   10  A    between atoms: C_27  and  C_28
REMARK   11  A    between atoms: N_30  and  C_31
REMARK   12  A    between atoms: N_30  and  C_32
REMARK   13  A    between atoms: C_40  and  O_41
REMARK   14  A    between atoms: O_41  and  C_42
REMARK                            x       y       z     vdW  Elec       q    Type
REMARK                         _______ _______ _______ _____ _____    ______ ____
ROOT
ATOM      1  N   UNL     1      -5.436   0.854 130.851  0.00  0.00    +0.000 N 
ATOM      2  C   UNL     1      -5.596   1.552 129.606  0.00  0.00    +0.000 C 
ATOM      3  O   UNL     1      -4.680   1.504 128.780  0.00  0.00    +0.000 OA
ATOM      4  C   UNL     1      -6.393   2.789 130.096  0.00  0.00    +0.000 C 
ATOM      5  C   UNL     1      -5.045   3.385 130.438  0.00  0.00    +0.000 A 
ATOM      6  C   UNL     1      -4.257   4.394 129.820  0.00  0.00    +0.000 A 
ATOM      7  C   UNL     1      -3.057   4.752 130.351  0.00  0.00    +0.000 A 
ATOM      8 CL   UNL     1      -1.861   5.503 129.388  0.00  0.00    +0.000 Cl
ATOM      9  C   UNL     1      -2.951   4.429 131.665  0.00  0.00    +0.000 A 
ATOM     10  C   UNL     1      -3.689   3.222 132.103  0.00  0.00    +0.000 A 
ATOM     11  C   UNL     1      -4.405   2.367 131.144  0.00  0.00    +0.000 A 
ENDROOT
BRANCH   4  12
ATOM     12  C   UNL     1      -7.089   3.516 128.928  0.00  0.00    +0.000 A 
ATOM     13  C   UNL     1      -6.796   3.063 127.613  0.00  0.00    +0.000 A 
ATOM     14  C   UNL     1      -7.234   3.739 126.497  0.00  0.00    +0.000 A 
ATOM     15  C   UNL     1      -8.294   4.572 126.683  0.00  0.00    +0.000 A 
ATOM     16  N   UNL     1      -8.715   4.959 127.882  0.00  0.00    +0.000 NA
ATOM     17  C   UNL     1      -7.951   4.628 128.931  0.00  0.00    +0.000 A 
BRANCH  17  18
ATOM     18  O   UNL     1      -7.975   5.707 129.785  0.00  0.00    +0.000 OA
ATOM     19  C   UNL     1      -9.221   5.912 130.323  0.00  0.00    +0.000 C 
ENDBRANCH  17  18
ENDBRANCH   4  12
BRANCH   4  20
ATOM     20  N   UNL     1      -7.184   2.362 131.543  0.00  0.00    +0.000 NA
ATOM     21  C   UNL     1      -8.023   1.146 131.710  0.00  0.00    +0.000 C 
ATOM     22  C   UNL     1      -9.355   1.713 132.205  0.00  0.00    +0.000 C 
ATOM     23  C   UNL     1      -8.876   2.742 133.230  0.00  0.00    +0.000 C 
ATOM     24  C   UNL     1      -7.600   3.386 132.694  0.00  0.00    +0.000 C 
BRANCH  24  25
ATOM     25  C   UNL     1      -6.437   3.850 133.765  0.00  0.00    +0.000 C 
ATOM     26  O   UNL     1      -6.029   2.938 134.490  0.00  0.00    +0.000 OA
ATOM     27  N   UNL     1      -5.840   5.043 134.102  0.00  0.00    +0.000 N 
ATOM     28  C   UNL     1      -5.668   6.112 133.169  0.00  0.00    +0.000 C 
ATOM     29  C   UNL     1      -4.933   5.074 135.319  0.00  0.00    +0.000 C 
ENDBRANCH  24  25
BRANCH  22  30
ATOM     30  O   UNL     1     -10.165   2.307 131.207  0.00  0.00    +0.000 OA
ATOM     31  H   UNL     1     -10.926   2.714 131.667  0.00  0.00    +0.000 HD
ENDBRANCH  22  30
ENDBRANCH   4  20
BRANCH   1  32
ATOM     32  S   UNL     1      -5.919  -0.882 129.691  0.00  0.00    +0.000 S 
ATOM     33  O   UNL     1      -6.756  -1.574 130.707  0.00  0.00    +0.000 OA
ATOM     34  O   UNL     1      -4.730  -1.469 129.178  0.00  0.00    +0.000 OA
BRANCH  32  38
ATOM     35  C   UNL     1      -8.958  -2.611 125.807  0.00  0.00    +0.000 A 
ATOM     36  C   UNL     1      -8.821  -3.188 127.053  0.00  0.00    +0.000 A 
ATOM     37  C   UNL     1      -8.010  -2.570 128.138  0.00  0.00    +0.000 A 
ATOM     38  C   UNL     1      -7.223  -1.344 128.023  0.00  0.00    +0.000 A 
ATOM     39  C   UNL     1      -7.349  -0.845 126.712  0.00  0.00    +0.000 A 
ATOM     40  C   UNL     1      -8.261  -1.440 125.681  0.00  0.00    +0.000 A 
BRANCH  35  42
ATOM     41  C   UNL     1      -9.356  -3.155 123.484  0.00  0.00    +0.000 C 
ATOM     42  O   UNL     1      -9.802  -3.129 124.856  0.00  0.00    +0.000 OA
ENDBRANCH  35  42
BRANCH  39  43
ATOM     43  O   UNL     1      -6.560   0.162 126.278  0.00  0.00    +0.000 OA
ATOM     44  C   UNL     1      -5.260  -0.284 125.827  0.00  0.00    +0.000 C 
ENDBRANCH  39  43
ENDBRANCH  32  38
ENDBRANCH   1  32
TORSDOF 9
ENDMDL
