MODEL 1
REMARK VINA RESULT:      -8.1      0.000      0.000
REMARK  Name = CHEMBL1091770
REMARK  7 active torsions:
REMARK  status: ('A' for Active; 'I' for Inactive)
REMARK    1  A    between atoms: C_1  and  C_2
REMARK    2  A    between atoms: C_2  and  N_3
REMARK    3  A    between atoms: N_3  and  C_19
REMARK    4  A    between atoms: C_4  and  C_6
REMARK    5  A    between atoms: C_9  and  C_10
REMARK    6  A    between atoms: C_22  and  O_23
REMARK    7  A    between atoms: O_23  and  C_24
REMARK                            x       y       z     vdW  Elec       q    Type
REMARK                         _______ _______ _______ _____ _____    ______ ____
ROOT
ATOM      1  C   UNL     1      -9.792   3.143 130.534  0.00  0.00    +0.000 A 
ATOM      2  C   UNL     1      -9.898   2.585 131.759  0.00  0.00    +0.000 A 
ATOM      3  C   UNL     1      -9.272   1.311 132.074  0.00  0.00    +0.000 A 
ATOM      4  C   UNL     1      -8.675   0.605 131.099  0.00  0.00    +0.000 A 
ATOM      5  N   UNL     1      -8.555   1.165 129.852  0.00  0.00    +0.000 N 
ATOM      6  C   UNL     1      -8.869   2.482 129.559  0.00  0.00    +0.000 A 
ATOM      7  O   UNL     1      -8.535   2.998 128.507  0.00  0.00    +0.000 OA
ATOM      8  H   UNL     1      -8.150   0.619 129.100  0.00  0.00    +0.000 HD
ENDROOT
BRANCH   4   9
ATOM      9  C   UNL     1      -8.064  -0.716 131.308  0.00  0.00    +0.000 A 
ATOM     10  C   UNL     1      -7.904  -1.576 130.211  0.00  0.00    +0.000 A 
ATOM     11  C   UNL     1      -7.442  -2.880 130.391  0.00  0.00    +0.000 A 
ATOM     12  C   UNL     1      -7.062  -3.309 131.660  0.00  0.00    +0.000 A 
ATOM     13  C   UNL     1      -7.186  -2.452 132.754  0.00  0.00    +0.000 A 
ATOM     14  C   UNL     1      -7.697  -1.163 132.583  0.00  0.00    +0.000 A 
ENDBRANCH   4   9
BRANCH   1  16
ATOM     15  N   UNL     1     -10.046   5.664 130.203  0.00  0.00    +0.000 N 
ATOM     16  C   UNL     1     -10.607   4.363 130.223  0.00  0.00    +0.000 C 
ATOM     17  O   UNL     1     -11.767   4.146 129.845  0.00  0.00    +0.000 OA
BRANCH  15  18
ATOM     18  C   UNL     1     -10.951   6.794 129.990  0.00  0.00    +0.000 A 
ATOM     19  C   UNL     1     -11.955   7.121 130.909  0.00  0.00    +0.000 A 
ATOM     20  C   UNL     1     -12.783   8.230 130.707  0.00  0.00    +0.000 A 
ATOM     21  C   UNL     1     -12.629   8.998 129.566  0.00  0.00    +0.000 A 
ATOM     22  N   UNL     1     -11.707   8.691 128.632  0.00  0.00    +0.000 NA
ATOM     23  C   UNL     1     -10.891   7.620 128.865  0.00  0.00    +0.000 A 
BRANCH  21  24
ATOM     24  O   UNL     1     -13.364  10.117 129.277  0.00  0.00    +0.000 OA
ATOM     25  C   UNL     1     -13.480  11.087 130.312  0.00  0.00    +0.000 C 
ENDBRANCH  21  24
ENDBRANCH  15  18
BRANCH  15  27
ATOM     26  C   UNL     1      -8.195   6.328 131.875  0.00  0.00    +0.000 C 
ATOM     27  C   UNL     1      -8.630   6.083 130.455  0.00  0.00    +0.000 C 
ENDBRANCH  15  27
ENDBRANCH   1  16
TORSDOF 5
ENDMDL
MODEL 2
REMARK VINA RESULT:      -7.9      7.043     11.160
REMARK  Name = CHEMBL1091770
REMARK  7 active torsions:
REMARK  status: ('A' for Active; 'I' for Inactive)
REMARK    1  A    between atoms: C_1  and  C_2
REMARK    2  A    between atoms: C_2  and  N_3
REMARK    3  A    between atoms: N_3  and  C_19
REMARK    4  A    between atoms: C_4  and  C_6
REMARK    5  A    between atoms: C_9  and  C_10
REMARK    6  A    between atoms: C_22  and  O_23
REMARK    7  A    between atoms: O_23  and  C_24
REMARK                            x       y       z     vdW  Elec       q    Type
REMARK                         _______ _______ _______ _____ _____    ______ ____
ROOT
ATOM      1  C   UNL     1      -6.931   1.650 124.874  0.00  0.00    +0.000 A 
ATOM      2  C   UNL     1      -6.108   2.719 124.829  0.00  0.00    +0.000 A 
ATOM      3  C   UNL     1      -5.960   3.518 123.624  0.00  0.00    +0.000 A 
ATOM      4  C   UNL     1      -6.556   3.122 122.487  0.00  0.00    +0.000 A 
ATOM      5  N   UNL     1      -7.402   2.042 122.523  0.00  0.00    +0.000 N 
ATOM      6  C   UNL     1      -7.811   1.415 123.687  0.00  0.00    +0.000 A 
ATOM      7  O   UNL     1      -8.730   0.615 123.691  0.00  0.00    +0.000 OA
ATOM      8  H   UNL     1      -7.817   1.709 121.660  0.00  0.00    +0.000 HD
ENDROOT
BRANCH   4   9
ATOM      9  C   UNL     1      -6.421   3.833 121.207  0.00  0.00    +0.000 A 
ATOM     10  C   UNL     1      -5.258   4.581 120.961  0.00  0.00    +0.000 A 
ATOM     11  C   UNL     1      -5.148   5.365 119.813  0.00  0.00    +0.000 A 
ATOM     12  C   UNL     1      -6.166   5.348 118.863  0.00  0.00    +0.000 A 
ATOM     13  C   UNL     1      -7.313   4.585 119.082  0.00  0.00    +0.000 A 
ATOM     14  C   UNL     1      -7.447   3.838 120.255  0.00  0.00    +0.000 A 
ENDBRANCH   4   9
BRANCH   1  16
ATOM     15  N   UNL     1      -6.245  -0.490 126.092  0.00  0.00    +0.000 N 
ATOM     16  C   UNL     1      -6.902   0.766 126.085  0.00  0.00    +0.000 C 
ATOM     17  O   UNL     1      -7.365   1.266 127.121  0.00  0.00    +0.000 OA
BRANCH  15  18
ATOM     18  C   UNL     1      -6.366  -1.317 127.292  0.00  0.00    +0.000 A 
ATOM     19  C   UNL     1      -7.474  -2.142 127.514  0.00  0.00    +0.000 A 
ATOM     20  C   UNL     1      -7.552  -2.957 128.648  0.00  0.00    +0.000 A 
ATOM     21  C   UNL     1      -6.531  -2.923 129.583  0.00  0.00    +0.000 A 
ATOM     22  N   UNL     1      -5.469  -2.108 129.434  0.00  0.00    +0.000 NA
ATOM     23  C   UNL     1      -5.402  -1.343 128.303  0.00  0.00    +0.000 A 
BRANCH  21  24
ATOM     24  O   UNL     1      -6.488  -3.692 130.715  0.00  0.00    +0.000 OA
ATOM     25  C   UNL     1      -5.657  -4.846 130.669  0.00  0.00    +0.000 C 
ENDBRANCH  21  24
ENDBRANCH  15  18
BRANCH  15  27
ATOM     26  C   UNL     1      -6.244  -2.010 124.005  0.00  0.00    +0.000 C 
ATOM     27  C   UNL     1      -5.485  -1.161 124.988  0.00  0.00    +0.000 C 
ENDBRANCH  15  27
ENDBRANCH   1  16
TORSDOF 5
ENDMDL
MODEL 3
REMARK VINA RESULT:      -7.7      6.753      7.920
REMARK  Name = CHEMBL1091770
REMARK  7 active torsions:
REMARK  status: ('A' for Active; 'I' for Inactive)
REMARK    1  A    between atoms: C_1  and  C_2
REMARK    2  A    between atoms: C_2  and  N_3
REMARK    3  A    between atoms: N_3  and  C_19
REMARK    4  A    between atoms: C_4  and  C_6
REMARK    5  A    between atoms: C_9  and  C_10
REMARK    6  A    between atoms: C_22  and  O_23
REMARK    7  A    between atoms: O_23  and  C_24
REMARK                            x       y       z     vdW  Elec       q    Type
REMARK                         _______ _______ _______ _____ _____    ______ ____
ROOT
ATOM      1  C   UNL     1      -7.001  -0.527 125.172  0.00  0.00    +0.000 A 
ATOM      2  C   UNL     1      -5.782  -0.974 125.542  0.00  0.00    +0.000 A 
ATOM      3  C   UNL     1      -5.575  -1.673 126.800  0.00  0.00    +0.000 A 
ATOM      4  C   UNL     1      -6.587  -1.774 127.678  0.00  0.00    +0.000 A 
ATOM      5  N   UNL     1      -7.832  -1.331 127.309  0.00  0.00    +0.000 N 
ATOM      6  C   UNL     1      -8.162  -0.922 126.028  0.00  0.00    +0.000 A 
ATOM      7  O   UNL     1      -9.321  -0.756 125.691  0.00  0.00    +0.000 OA
ATOM      8  H   UNL     1      -8.588  -1.360 127.983  0.00  0.00    +0.000 HD
ENDROOT
BRANCH   4   9
ATOM      9  C   UNL     1      -6.460  -2.413 128.996  0.00  0.00    +0.000 A 
ATOM     10  C   UNL     1      -5.282  -3.113 129.305  0.00  0.00    +0.000 A 
ATOM     11  C   UNL     1      -5.175  -3.832 130.495  0.00  0.00    +0.000 A 
ATOM     12  C   UNL     1      -6.213  -3.795 131.421  0.00  0.00    +0.000 A 
ATOM     13  C   UNL     1      -7.376  -3.078 131.139  0.00  0.00    +0.000 A 
ATOM     14  C   UNL     1      -7.506  -2.399 129.926  0.00  0.00    +0.000 A 
ENDBRANCH   4   9
BRANCH   1  16
ATOM     15  N   UNL     1      -7.058   1.753 124.020  0.00  0.00    +0.000 N 
ATOM     16  C   UNL     1      -7.113   0.339 123.953  0.00  0.00    +0.000 C 
ATOM     17  O   UNL     1      -7.112  -0.264 122.870  0.00  0.00    +0.000 OA
BRANCH  15  18
ATOM     18  C   UNL     1      -7.282   2.505 122.784  0.00  0.00    +0.000 A 
ATOM     19  C   UNL     1      -6.221   2.968 121.998  0.00  0.00    +0.000 A 
ATOM     20  C   UNL     1      -6.456   3.648 120.799  0.00  0.00    +0.000 A 
ATOM     21  C   UNL     1      -7.758   3.896 120.399  0.00  0.00    +0.000 A 
ATOM     22  N   UNL     1      -8.809   3.510 121.149  0.00  0.00    +0.000 NA
ATOM     23  C   UNL     1      -8.554   2.822 122.303  0.00  0.00    +0.000 A 
BRANCH  21  24
ATOM     24  O   UNL     1      -8.107   4.529 119.236  0.00  0.00    +0.000 OA
ATOM     25  C   UNL     1      -9.465   4.407 118.828  0.00  0.00    +0.000 C 
ENDBRANCH  21  24
ENDBRANCH  15  18
BRANCH  15  27
ATOM     26  C   UNL     1      -5.501   2.784 125.803  0.00  0.00    +0.000 C 
ATOM     27  C   UNL     1      -6.881   2.633 125.220  0.00  0.00    +0.000 C 
ENDBRANCH  15  27
ENDBRANCH   1  16
TORSDOF 5
ENDMDL
MODEL 4
REMARK VINA RESULT:      -7.4      1.595      2.532
REMARK  Name = CHEMBL1091770
REMARK  7 active torsions:
REMARK  status: ('A' for Active; 'I' for Inactive)
REMARK    1  A    between atoms: C_1  and  C_2
REMARK    2  A    between atoms: C_2  and  N_3
REMARK    3  A    between atoms: N_3  and  C_19
REMARK    4  A    between atoms: C_4  and  C_6
REMARK    5  A    between atoms: C_9  and  C_10
REMARK    6  A    between atoms: C_22  and  O_23
REMARK    7  A    between atoms: O_23  and  C_24
REMARK                            x       y       z     vdW  Elec       q    Type
REMARK                         _______ _______ _______ _____ _____    ______ ____
ROOT
ATOM      1  C   UNL     1      -8.512   1.736 130.772  0.00  0.00    +0.000 A 
ATOM      2  C   UNL     1      -9.186   0.843 131.528  0.00  0.00    +0.000 A 
ATOM      3  C   UNL     1      -8.669  -0.493 131.776  0.00  0.00    +0.000 A 
ATOM      4  C   UNL     1      -7.556  -0.901 131.143  0.00  0.00    +0.000 A 
ATOM      5  N   UNL     1      -6.858  -0.001 130.378  0.00  0.00    +0.000 N 
ATOM      6  C   UNL     1      -7.134   1.356 130.332  0.00  0.00    +0.000 A 
ATOM      7  O   UNL     1      -6.357   2.146 129.826  0.00  0.00    +0.000 OA
ATOM      8  H   UNL     1      -6.046  -0.315 129.860  0.00  0.00    +0.000 HD
ENDROOT
BRANCH   4   9
ATOM      9  C   UNL     1      -6.987  -2.250 131.287  0.00  0.00    +0.000 A 
ATOM     10  C   UNL     1      -6.708  -2.740 132.573  0.00  0.00    +0.000 A 
ATOM     11  C   UNL     1      -6.057  -3.962 132.741  0.00  0.00    +0.000 A 
ATOM     12  C   UNL     1      -5.750  -4.741 131.629  0.00  0.00    +0.000 A 
ATOM     13  C   UNL     1      -6.051  -4.279 130.347  0.00  0.00    +0.000 A 
ATOM     14  C   UNL     1      -6.657  -3.032 130.174  0.00  0.00    +0.000 A 
ENDBRANCH   4   9
BRANCH   1  16
ATOM     15  N   UNL     1      -9.139   4.167 131.250  0.00  0.00    +0.000 N 
ATOM     16  C   UNL     1      -9.183   3.027 130.409  0.00  0.00    +0.000 C 
ATOM     17  O   UNL     1      -9.655   3.078 129.264  0.00  0.00    +0.000 OA
BRANCH  15  18
ATOM     18  C   UNL     1      -9.913   5.342 130.849  0.00  0.00    +0.000 A 
ATOM     19  C   UNL     1      -9.332   6.410 130.158  0.00  0.00    +0.000 A 
ATOM     20  C   UNL     1     -10.099   7.506 129.747  0.00  0.00    +0.000 A 
ATOM     21  C   UNL     1     -11.447   7.549 130.056  0.00  0.00    +0.000 A 
ATOM     22  N   UNL     1     -12.038   6.564 130.762  0.00  0.00    +0.000 NA
ATOM     23  C   UNL     1     -11.274   5.491 131.127  0.00  0.00    +0.000 A 
BRANCH  21  24
ATOM     24  O   UNL     1     -12.299   8.556 129.686  0.00  0.00    +0.000 OA
ATOM     25  C   UNL     1     -12.861   8.465 128.381  0.00  0.00    +0.000 C 
ENDBRANCH  21  24
ENDBRANCH  15  18
BRANCH  15  27
ATOM     26  C   UNL     1      -9.151   3.808 133.806  0.00  0.00    +0.000 C 
ATOM     27  C   UNL     1      -8.461   4.333 132.576  0.00  0.00    +0.000 C 
ENDBRANCH  15  27
ENDBRANCH   1  16
TORSDOF 5
ENDMDL
MODEL 5
REMARK VINA RESULT:      -7.2      6.369     10.099
REMARK  Name = CHEMBL1091770
REMARK  7 active torsions:
REMARK  status: ('A' for Active; 'I' for Inactive)
REMARK    1  A    between atoms: C_1  and  C_2
REMARK    2  A    between atoms: C_2  and  N_3
REMARK    3  A    between atoms: N_3  and  C_19
REMARK    4  A    between atoms: C_4  and  C_6
REMARK    5  A    between atoms: C_9  and  C_10
REMARK    6  A    between atoms: C_22  and  O_23
REMARK    7  A    between atoms: O_23  and  C_24
REMARK                            x       y       z     vdW  Elec       q    Type
REMARK                         _______ _______ _______ _____ _____    ______ ____
ROOT
ATOM      1  C   UNL     1      -6.613   2.486 125.125  0.00  0.00    +0.000 A 
ATOM      2  C   UNL     1      -7.349   1.906 124.153  0.00  0.00    +0.000 A 
ATOM      3  C   UNL     1      -7.281   2.356 122.773  0.00  0.00    +0.000 A 
ATOM      4  C   UNL     1      -6.566   3.451 122.466  0.00  0.00    +0.000 A 
ATOM      5  N   UNL     1      -5.808   4.044 123.444  0.00  0.00    +0.000 N 
ATOM      6  C   UNL     1      -5.601   3.502 124.701  0.00  0.00    +0.000 A 
ATOM      7  O   UNL     1      -4.746   3.940 125.451  0.00  0.00    +0.000 OA
ATOM      8  H   UNL     1      -5.305   4.898 123.231  0.00  0.00    +0.000 HD
ENDROOT
BRANCH   4   9
ATOM      9  C   UNL     1      -6.481   4.014 121.110  0.00  0.00    +0.000 A 
ATOM     10  C   UNL     1      -5.332   4.729 120.738  0.00  0.00    +0.000 A 
ATOM     11  C   UNL     1      -5.268   5.379 119.506  0.00  0.00    +0.000 A 
ATOM     12  C   UNL     1      -6.320   5.255 118.603  0.00  0.00    +0.000 A 
ATOM     13  C   UNL     1      -7.454   4.521 118.949  0.00  0.00    +0.000 A 
ATOM     14  C   UNL     1      -7.542   3.911 120.202  0.00  0.00    +0.000 A 
ENDBRANCH   4   9
BRANCH   1  16
ATOM     15  N   UNL     1      -6.184   1.018 127.173  0.00  0.00    +0.000 N 
ATOM     16  C   UNL     1      -6.864   2.095 126.552  0.00  0.00    +0.000 C 
ATOM     17  O   UNL     1      -7.595   2.863 127.193  0.00  0.00    +0.000 OA
BRANCH  15  18
ATOM     18  C   UNL     1      -6.579   0.656 128.534  0.00  0.00    +0.000 A 
ATOM     19  C   UNL     1      -7.528  -0.340 128.790  0.00  0.00    +0.000 A 
ATOM     20  C   UNL     1      -7.862  -0.699 130.100  0.00  0.00    +0.000 A 
ATOM     21  C   UNL     1      -7.267  -0.038 131.160  0.00  0.00    +0.000 A 
ATOM     22  N   UNL     1      -6.384   0.961 130.960  0.00  0.00    +0.000 NA
ATOM     23  C   UNL     1      -6.054   1.274 129.672  0.00  0.00    +0.000 A 
BRANCH  21  24
ATOM     24  O   UNL     1      -7.498  -0.321 132.481  0.00  0.00    +0.000 OA
ATOM     25  C   UNL     1      -7.913  -1.648 132.784  0.00  0.00    +0.000 C 
ENDBRANCH  21  24
ENDBRANCH  15  18
BRANCH  15  27
ATOM     26  C   UNL     1      -5.585  -1.021 125.707  0.00  0.00    +0.000 C 
ATOM     27  C   UNL     1      -5.142   0.107 126.600  0.00  0.00    +0.000 C 
ENDBRANCH  15  27
ENDBRANCH   1  16
TORSDOF 5
ENDMDL
MODEL 6
REMARK VINA RESULT:      -7.2      1.903      3.146
REMARK  Name = CHEMBL1091770
REMARK  7 active torsions:
REMARK  status: ('A' for Active; 'I' for Inactive)
REMARK    1  A    between atoms: C_1  and  C_2
REMARK    2  A    between atoms: C_2  and  N_3
REMARK    3  A    between atoms: N_3  and  C_19
REMARK    4  A    between atoms: C_4  and  C_6
REMARK    5  A    between atoms: C_9  and  C_10
REMARK    6  A    between atoms: C_22  and  O_23
REMARK    7  A    between atoms: O_23  and  C_24
REMARK                            x       y       z     vdW  Elec       q    Type
REMARK                         _______ _______ _______ _____ _____    ______ ____
ROOT
ATOM      1  C   UNL     1      -8.307   0.814 130.218  0.00  0.00    +0.000 A 
ATOM      2  C   UNL     1      -7.293   0.323 129.473  0.00  0.00    +0.000 A 
ATOM      3  C   UNL     1      -6.620  -0.917 129.822  0.00  0.00    +0.000 A 
ATOM      4  C   UNL     1      -6.922  -1.535 130.976  0.00  0.00    +0.000 A 
ATOM      5  N   UNL     1      -7.955  -1.050 131.738  0.00  0.00    +0.000 N 
ATOM      6  C   UNL     1      -8.821  -0.051 131.325  0.00  0.00    +0.000 A 
ATOM      7  O   UNL     1      -9.852   0.188 131.929  0.00  0.00    +0.000 OA
ATOM      8  H   UNL     1      -8.156  -1.482 132.633  0.00  0.00    +0.000 HD
ENDROOT
BRANCH   4   9
ATOM      9  C   UNL     1      -6.257  -2.762 131.440  0.00  0.00    +0.000 A 
ATOM     10  C   UNL     1      -6.076  -3.823 130.538  0.00  0.00    +0.000 A 
ATOM     11  C   UNL     1      -5.561  -5.044 130.973  0.00  0.00    +0.000 A 
ATOM     12  C   UNL     1      -5.151  -5.190 132.296  0.00  0.00    +0.000 A 
ATOM     13  C   UNL     1      -5.298  -4.133 133.194  0.00  0.00    +0.000 A 
ATOM     14  C   UNL     1      -5.860  -2.926 132.772  0.00  0.00    +0.000 A 
ENDBRANCH   4   9
BRANCH   1  16
ATOM     15  N   UNL     1      -8.762   3.252 130.834  0.00  0.00    +0.000 N 
ATOM     16  C   UNL     1      -8.836   2.182 129.907  0.00  0.00    +0.000 C 
ATOM     17  O   UNL     1      -9.210   2.355 128.738  0.00  0.00    +0.000 OA
BRANCH  15  18
ATOM     18  C   UNL     1      -9.402   4.516 130.468  0.00  0.00    +0.000 A 
ATOM     19  C   UNL     1     -10.790   4.681 130.506  0.00  0.00    +0.000 A 
ATOM     20  C   UNL     1     -11.379   5.911 130.192  0.00  0.00    +0.000 A 
ATOM     21  C   UNL     1     -10.579   6.972 129.808  0.00  0.00    +0.000 A 
ATOM     22  N   UNL     1      -9.240   6.844 129.711  0.00  0.00    +0.000 NA
ATOM     23  C   UNL     1      -8.686   5.641 130.050  0.00  0.00    +0.000 A 
BRANCH  21  24
ATOM     24  O   UNL     1     -11.041   8.225 129.502  0.00  0.00    +0.000 OA
ATOM     25  C   UNL     1     -12.363   8.305 128.980  0.00  0.00    +0.000 C 
ENDBRANCH  21  24
ENDBRANCH  15  18
BRANCH  15  27
ATOM     26  C   UNL     1      -9.118   3.223 133.390  0.00  0.00    +0.000 C 
ATOM     27  C   UNL     1      -8.180   3.264 132.214  0.00  0.00    +0.000 C 
ENDBRANCH  15  27
ENDBRANCH   1  16
TORSDOF 5
ENDMDL
MODEL 7
REMARK VINA RESULT:      -7.1      7.797      9.792
REMARK  Name = CHEMBL1091770
REMARK  7 active torsions:
REMARK  status: ('A' for Active; 'I' for Inactive)
REMARK    1  A    between atoms: C_1  and  C_2
REMARK    2  A    between atoms: C_2  and  N_3
REMARK    3  A    between atoms: N_3  and  C_19
REMARK    4  A    between atoms: C_4  and  C_6
REMARK    5  A    between atoms: C_9  and  C_10
REMARK    6  A    between atoms: C_22  and  O_23
REMARK    7  A    between atoms: O_23  and  C_24
REMARK                            x       y       z     vdW  Elec       q    Type
REMARK                         _______ _______ _______ _____ _____    ______ ____
ROOT
ATOM      1  C   UNL     1      -7.604  -2.463 129.548  0.00  0.00    +0.000 A 
ATOM      2  C   UNL     1      -8.495  -3.308 128.987  0.00  0.00    +0.000 A 
ATOM      3  C   UNL     1      -8.630  -3.426 127.544  0.00  0.00    +0.000 A 
ATOM      4  C   UNL     1      -7.945  -2.593 126.743  0.00  0.00    +0.000 A 
ATOM      5  N   UNL     1      -7.031  -1.736 127.302  0.00  0.00    +0.000 N 
ATOM      6  C   UNL     1      -6.645  -1.772 128.631  0.00  0.00    +0.000 A 
ATOM      7  O   UNL     1      -5.674  -1.153 129.030  0.00  0.00    +0.000 OA
ATOM      8  H   UNL     1      -6.547  -1.072 126.708  0.00  0.00    +0.000 HD
ENDROOT
BRANCH   4   9
ATOM      9  C   UNL     1      -8.058  -2.600 125.277  0.00  0.00    +0.000 A 
ATOM     10  C   UNL     1      -7.033  -2.022 124.510  0.00  0.00    +0.000 A 
ATOM     11  C   UNL     1      -7.162  -1.901 123.127  0.00  0.00    +0.000 A 
ATOM     12  C   UNL     1      -8.282  -2.427 122.489  0.00  0.00    +0.000 A 
ATOM     13  C   UNL     1      -9.293  -3.032 123.236  0.00  0.00    +0.000 A 
ATOM     14  C   UNL     1      -9.189  -3.108 124.627  0.00  0.00    +0.000 A 
ENDBRANCH   4   9
BRANCH   1  16
ATOM     15  N   UNL     1      -6.899  -3.069 131.929  0.00  0.00    +0.000 N 
ATOM     16  C   UNL     1      -7.639  -2.258 131.034  0.00  0.00    +0.000 C 
ATOM     17  O   UNL     1      -8.244  -1.246 131.417  0.00  0.00    +0.000 OA
BRANCH  15  18
ATOM     18  C   UNL     1      -7.087  -2.849 133.364  0.00  0.00    +0.000 A 
ATOM     19  C   UNL     1      -8.053  -3.545 134.098  0.00  0.00    +0.000 A 
ATOM     20  C   UNL     1      -8.189  -3.351 135.477  0.00  0.00    +0.000 A 
ATOM     21  C   UNL     1      -7.377  -2.433 136.119  0.00  0.00    +0.000 A 
ATOM     22  N   UNL     1      -6.466  -1.705 135.443  0.00  0.00    +0.000 NA
ATOM     23  C   UNL     1      -6.333  -1.934 134.102  0.00  0.00    +0.000 A 
BRANCH  21  24
ATOM     24  O   UNL     1      -7.404  -2.178 137.465  0.00  0.00    +0.000 OA
ATOM     25  C   UNL     1      -6.419  -1.279 137.962  0.00  0.00    +0.000 C 
ENDBRANCH  21  24
ENDBRANCH  15  18
BRANCH  15  27
ATOM     26  C   UNL     1      -4.556  -3.908 131.244  0.00  0.00    +0.000 C 
ATOM     27  C   UNL     1      -5.980  -4.212 131.624  0.00  0.00    +0.000 C 
ENDBRANCH  15  27
ENDBRANCH   1  16
TORSDOF 5
ENDMDL
MODEL 8
REMARK VINA RESULT:      -7.1      7.219      9.475
REMARK  Name = CHEMBL1091770
REMARK  7 active torsions:
REMARK  status: ('A' for Active; 'I' for Inactive)
REMARK    1  A    between atoms: C_1  and  C_2
REMARK    2  A    between atoms: C_2  and  N_3
REMARK    3  A    between atoms: N_3  and  C_19
REMARK    4  A    between atoms: C_4  and  C_6
REMARK    5  A    between atoms: C_9  and  C_10
REMARK    6  A    between atoms: C_22  and  O_23
REMARK    7  A    between atoms: O_23  and  C_24
REMARK                            x       y       z     vdW  Elec       q    Type
REMARK                         _______ _______ _______ _____ _____    ______ ____
ROOT
ATOM      1  C   UNL     1      -3.824   5.141 128.806  0.00  0.00    +0.000 A 
ATOM      2  C   UNL     1      -2.759   5.928 128.540  0.00  0.00    +0.000 A 
ATOM      3  C   UNL     1      -1.998   6.566 129.601  0.00  0.00    +0.000 A 
ATOM      4  C   UNL     1      -2.427   6.478 130.871  0.00  0.00    +0.000 A 
ATOM      5  N   UNL     1      -3.503   5.675 131.155  0.00  0.00    +0.000 N 
ATOM      6  C   UNL     1      -4.093   4.817 130.241  0.00  0.00    +0.000 A 
ATOM      7  O   UNL     1      -4.889   3.964 130.591  0.00  0.00    +0.000 OA
ATOM      8  H   UNL     1      -3.862   5.642 132.102  0.00  0.00    +0.000 HD
ENDROOT
BRANCH   4   9
ATOM      9  C   UNL     1      -1.756   7.134 132.004  0.00  0.00    +0.000 A 
ATOM     10  C   UNL     1      -2.364   8.248 132.605  0.00  0.00    +0.000 A 
ATOM     11  C   UNL     1      -1.702   8.968 133.599  0.00  0.00    +0.000 A 
ATOM     12  C   UNL     1      -0.459   8.535 134.055  0.00  0.00    +0.000 A 
ATOM     13  C   UNL     1       0.141   7.412 133.486  0.00  0.00    +0.000 A 
ATOM     14  C   UNL     1      -0.498   6.719 132.456  0.00  0.00    +0.000 A 
ENDBRANCH   4   9
BRANCH   1  16
ATOM     15  N   UNL     1      -4.275   3.589 126.825  0.00  0.00    +0.000 N 
ATOM     16  C   UNL     1      -4.670   4.661 127.664  0.00  0.00    +0.000 C 
ATOM     17  O   UNL     1      -5.800   5.165 127.590  0.00  0.00    +0.000 OA
BRANCH  15  18
ATOM     18  C   UNL     1      -5.126   3.270 125.679  0.00  0.00    +0.000 A 
ATOM     19  C   UNL     1      -5.937   2.131 125.655  0.00  0.00    +0.000 A 
ATOM     20  C   UNL     1      -6.775   1.865 124.566  0.00  0.00    +0.000 A 
ATOM     21  C   UNL     1      -6.778   2.725 123.482  0.00  0.00    +0.000 A 
ATOM     22  N   UNL     1      -5.976   3.808 123.442  0.00  0.00    +0.000 NA
ATOM     23  C   UNL     1      -5.188   4.062 124.530  0.00  0.00    +0.000 A 
BRANCH  21  24
ATOM     24  O   UNL     1      -7.572   2.580 122.376  0.00  0.00    +0.000 OA
ATOM     25  C   UNL     1      -8.949   2.311 122.612  0.00  0.00    +0.000 C 
ENDBRANCH  21  24
ENDBRANCH  15  18
BRANCH  15  27
ATOM     26  C   UNL     1      -1.765   3.306 126.290  0.00  0.00    +0.000 C 
ATOM     27  C   UNL     1      -3.032   2.755 126.887  0.00  0.00    +0.000 C 
ENDBRANCH  15  27
ENDBRANCH   1  16
TORSDOF 5
ENDMDL
MODEL 9
REMARK VINA RESULT:      -7.1      6.790     10.801
REMARK  Name = CHEMBL1091770
REMARK  7 active torsions:
REMARK  status: ('A' for Active; 'I' for Inactive)
REMARK    1  A    between atoms: C_1  and  C_2
REMARK    2  A    between atoms: C_2  and  N_3
REMARK    3  A    between atoms: N_3  and  C_19
REMARK    4  A    between atoms: C_4  and  C_6
REMARK    5  A    between atoms: C_9  and  C_10
REMARK    6  A    between atoms: C_22  and  O_23
REMARK    7  A    between atoms: O_23  and  C_24
REMARK                            x       y       z     vdW  Elec       q    Type
REMARK                         _______ _______ _______ _____ _____    ______ ____
ROOT
ATOM      1  C   UNL     1      -7.107   0.341 125.643  0.00  0.00    +0.000 A 
ATOM      2  C   UNL     1      -7.729   1.536 125.727  0.00  0.00    +0.000 A 
ATOM      3  C   UNL     1      -7.911   2.385 124.561  0.00  0.00    +0.000 A 
ATOM      4  C   UNL     1      -7.343   2.040 123.394  0.00  0.00    +0.000 A 
ATOM      5  N   UNL     1      -6.714   0.825 123.295  0.00  0.00    +0.000 N 
ATOM      6  C   UNL     1      -6.755  -0.152 124.275  0.00  0.00    +0.000 A 
ATOM      7  O   UNL     1      -6.382  -1.291 124.056  0.00  0.00    +0.000 OA
ATOM      8  H   UNL     1      -6.243   0.580 122.432  0.00  0.00    +0.000 HD
ENDROOT
BRANCH   4   9
ATOM      9  C   UNL     1      -7.424   2.861 122.176  0.00  0.00    +0.000 A 
ATOM     10  C   UNL     1      -8.687   3.174 121.647  0.00  0.00    +0.000 A 
ATOM     11  C   UNL     1      -8.800   3.845 120.429  0.00  0.00    +0.000 A 
ATOM     12  C   UNL     1      -7.652   4.277 119.769  0.00  0.00    +0.000 A 
ATOM     13  C   UNL     1      -6.393   3.998 120.300  0.00  0.00    +0.000 A 
ATOM     14  C   UNL     1      -6.277   3.283 121.494  0.00  0.00    +0.000 A 
ENDBRANCH   4   9
BRANCH   1  16
ATOM     15  N   UNL     1      -7.535  -1.536 127.325  0.00  0.00    +0.000 N 
ATOM     16  C   UNL     1      -6.795  -0.401 126.909  0.00  0.00    +0.000 C 
ATOM     17  O   UNL     1      -5.760  -0.046 127.493  0.00  0.00    +0.000 OA
BRANCH  15  18
ATOM     18  C   UNL     1      -7.213  -2.121 128.627  0.00  0.00    +0.000 A 
ATOM     19  C   UNL     1      -7.864  -1.722 129.799  0.00  0.00    +0.000 A 
ATOM     20  C   UNL     1      -7.571  -2.323 131.027  0.00  0.00    +0.000 A 
ATOM     21  C   UNL     1      -6.598  -3.306 131.090  0.00  0.00    +0.000 A 
ATOM     22  N   UNL     1      -5.912  -3.687 129.995  0.00  0.00    +0.000 NA
ATOM     23  C   UNL     1      -6.237  -3.105 128.801  0.00  0.00    +0.000 A 
BRANCH  21  24
ATOM     24  O   UNL     1      -6.246  -3.980 132.230  0.00  0.00    +0.000 OA
ATOM     25  C   UNL     1      -5.139  -4.869 132.126  0.00  0.00    +0.000 C 
ENDBRANCH  21  24
ENDBRANCH  15  18
BRANCH  15  27
ATOM     26  C   UNL     1      -8.435  -3.452 125.849  0.00  0.00    +0.000 C 
ATOM     27  C   UNL     1      -8.693  -2.204 126.649  0.00  0.00    +0.000 C 
ENDBRANCH  15  27
ENDBRANCH   1  16
TORSDOF 5
ENDMDL
