MODEL 1
REMARK VINA RESULT:      -9.1      0.000      0.000
REMARK  Name = CHEMBL2037512
REMARK  11 active torsions:
REMARK  status: ('A' for Active; 'I' for Inactive)
REMARK    1  A    between atoms: C_1  and  C_2
REMARK    2  A    between atoms: C_2  and  C_3
REMARK    3  A    between atoms: C_3  and  C_4
REMARK    4  A    between atoms: C_3  and  C_6
REMARK    5  A    between atoms: C_4  and  C_5
REMARK    6  A    between atoms: C_10  and  C_11
REMARK    7  A    between atoms: N_22  and  C_23
REMARK    8  A    between atoms: C_23  and  C_24
REMARK    9  A    between atoms: C_23  and  C_28
REMARK   10  A    between atoms: N_26  and  C_27
REMARK   11  A    between atoms: C_31  and  C_32
REMARK                            x       y       z     vdW  Elec       q    Type
REMARK                         _______ _______ _______ _____ _____    ______ ____
ROOT
ATOM      1  C   UNK A   2      -7.321  -0.762 128.526  0.00  0.00    +0.000 C 
ATOM      2  C   UNK A   2      -7.946  -0.550 129.919  0.00  0.00    +0.000 C 
ATOM      3  O   UNK A   2      -8.091  -1.408 130.791  0.00  0.00    +0.000 OA
ATOM      4  N   UNK A   1      -8.282   0.725 130.193  0.00  0.00    +0.000 N 
ATOM      5  C   UNK A   1      -7.998   1.827 129.306  0.00  0.00    +0.000 C 
ATOM      6  C   UNK A   1      -8.356   1.430 127.870  0.00  0.00    +0.000 C 
ATOM      7  O   UNK A   1      -8.715   2.345 127.135  0.00  0.00    +0.000 OA
ATOM      8  N   UNK A   2      -8.188   0.071 127.501  0.00  0.00    +0.000 N 
ATOM      9  H   UNK A   1      -8.661   0.862 131.122  0.00  0.00    +0.000 HD
ENDROOT
BRANCH   5  10
ATOM     10  C   UNK A   1      -8.850   3.088 129.638  0.00  0.00    +0.000 C 
ATOM     11  C   UNK A   1      -7.966   4.304 129.945  0.00  0.00    +0.000 C 
ATOM     12  C   UNK A   1      -7.797   4.166 131.427  0.00  0.00    +0.000 A 
ATOM     13  C   UNK A   1      -6.755   4.639 132.201  0.00  0.00    +0.000 A 
ATOM     14  C   UNK A   1      -6.718   4.273 133.548  0.00  0.00    +0.000 A 
ATOM     15  C   UNK A   1      -7.708   3.440 134.097  0.00  0.00    +0.000 A 
ATOM     16  C   UNK A   1      -8.751   2.957 133.307  0.00  0.00    +0.000 A 
ATOM     17  C   UNK A   1      -8.785   3.334 131.976  0.00  0.00    +0.000 A 
ATOM     18  C   UNK A   1      -9.722   2.857 130.909  0.00  0.00    +0.000 C 
ENDBRANCH   5  10
BRANCH   1  19
ATOM     19  C   UNK A   2      -7.074  -2.323 128.385  0.00  0.00    +0.000 C 
BRANCH  19  21
ATOM     20  C   UNK A   2      -5.774  -3.900 130.087  0.00  0.00    +0.000 C 
ATOM     21  C   UNK A   2      -5.851  -2.638 129.171  0.00  0.00    +0.000 C 
ENDBRANCH  19  21
BRANCH  19  22
ATOM     22  C   UNK A   2      -8.295  -3.104 128.907  0.00  0.00    +0.000 C 
ATOM     23  C   UNK A   2      -8.986  -4.034 127.925  0.00  0.00    +0.000 C 
ENDBRANCH  19  22
ENDBRANCH   1  19
BRANCH   8  24
ATOM     24  C   UNK A   0      -8.853  -0.452 126.141  0.00  0.00    +0.000 C 
BRANCH  24  25
ATOM     25  C   UNK A   0      -7.911  -1.321 125.267  0.00  0.00    +0.000 A 
ATOM     26  C   UNK A   0      -8.175  -2.594 124.736  0.00  0.00    +0.000 A 
ATOM     27  C   UNK A   0      -7.102  -3.348 124.221  0.00  0.00    +0.000 A 
ATOM     28  C   UNK A   0      -5.849  -2.757 124.112  0.00  0.00    +0.000 A 
ATOM     29  C   UNK A   0      -4.618  -3.359 123.576  0.00  0.00    +0.000 C 
ATOM     30  N   UNK A   0      -5.610  -1.516 124.482  0.00  0.00    +0.000 NA
ATOM     31  C   UNK A   0      -6.611  -0.878 125.062  0.00  0.00    +0.000 A 
ENDBRANCH  24  25
BRANCH  24  32
ATOM     32  C   UNK A   0      -9.541   0.737 124.997  0.00  0.00    +0.000 C 
ATOM     33  O   UNK A   0     -10.654   0.750 124.570  0.00  0.00    +0.000 OA
ATOM     34  N   UNK A   0      -8.775   1.723 124.400  0.00  0.00    +0.000 N 
ATOM     35  C   UNK A   0      -9.077   1.938 122.892  0.00  0.00    +0.000 C 
ATOM     36  H   UNK A   0      -7.847   1.803 124.811  0.00  0.00    +0.000 HD
ENDBRANCH  24  32
ENDBRANCH   8  24
TORSDOF 7
ENDMDL
MODEL 2
REMARK VINA RESULT:      -8.9      2.463      3.211
REMARK  Name = CHEMBL2037512
REMARK  11 active torsions:
REMARK  status: ('A' for Active; 'I' for Inactive)
REMARK    1  A    between atoms: C_1  and  C_2
REMARK    2  A    between atoms: C_2  and  C_3
REMARK    3  A    between atoms: C_3  and  C_4
REMARK    4  A    between atoms: C_3  and  C_6
REMARK    5  A    between atoms: C_4  and  C_5
REMARK    6  A    between atoms: C_10  and  C_11
REMARK    7  A    between atoms: N_22  and  C_23
REMARK    8  A    between atoms: C_23  and  C_24
REMARK    9  A    between atoms: C_23  and  C_28
REMARK   10  A    between atoms: N_26  and  C_27
REMARK   11  A    between atoms: C_31  and  C_32
REMARK                            x       y       z     vdW  Elec       q    Type
REMARK                         _______ _______ _______ _____ _____    ______ ____
ROOT
ATOM      1  C   UNK A   2      -6.024  -0.316 128.590  0.00  0.00    +0.000 C 
ATOM      2  C   UNK A   2      -6.273   0.700 129.722  0.00  0.00    +0.000 C 
ATOM      3  O   UNK A   2      -6.470   0.435 130.909  0.00  0.00    +0.000 OA
ATOM      4  N   UNK A   1      -6.182   1.990 129.346  0.00  0.00    +0.000 N 
ATOM      5  C   UNK A   1      -5.789   2.402 128.020  0.00  0.00    +0.000 C 
ATOM      6  C   UNK A   1      -6.524   1.548 126.982  0.00  0.00    +0.000 C 
ATOM      7  O   UNK A   1      -6.757   2.092 125.908  0.00  0.00    +0.000 OA
ATOM      8  N   UNK A   2      -6.816   0.202 127.325  0.00  0.00    +0.000 N 
ATOM      9  H   UNK A   1      -6.314   2.652 130.101  0.00  0.00    +0.000 HD
ENDROOT
BRANCH   5  10
ATOM     10  C   UNK A   1      -6.176   3.882 127.722  0.00  0.00    +0.000 C 
ATOM     11  C   UNK A   1      -5.097   4.593 126.895  0.00  0.00    +0.000 C 
ATOM     12  C   UNK A   1      -4.231   5.156 127.980  0.00  0.00    +0.000 A 
ATOM     13  C   UNK A   1      -2.887   5.469 127.906  0.00  0.00    +0.000 A 
ATOM     14  C   UNK A   1      -2.234   5.845 129.081  0.00  0.00    +0.000 A 
ATOM     15  C   UNK A   1      -2.922   5.895 130.305  0.00  0.00    +0.000 A 
ATOM     16  C   UNK A   1      -4.276   5.566 130.376  0.00  0.00    +0.000 A 
ATOM     17  C   UNK A   1      -4.918   5.206 129.204  0.00  0.00    +0.000 A 
ATOM     18  C   UNK A   1      -6.319   4.700 129.041  0.00  0.00    +0.000 C 
ENDBRANCH   5  10
BRANCH   1  19
ATOM     19  C   UNK A   2      -6.251  -1.751 129.226  0.00  0.00    +0.000 C 
BRANCH  19  21
ATOM     20  C   UNK A   2      -8.244  -3.463 128.809  0.00  0.00    +0.000 C 
ATOM     21  C   UNK A   2      -7.709  -2.034 129.142  0.00  0.00    +0.000 C 
ENDBRANCH  19  21
BRANCH  19  22
ATOM     22  C   UNK A   2      -5.429  -2.808 128.464  0.00  0.00    +0.000 C 
ATOM     23  C   UNK A   2      -4.108  -3.229 129.085  0.00  0.00    +0.000 C 
ENDBRANCH  19  22
ENDBRANCH   1  19
BRANCH   8  24
ATOM     24  C   UNK A   0      -7.859  -0.618 126.428  0.00  0.00    +0.000 C 
BRANCH  24  25
ATOM     25  C   UNK A   0      -7.202  -1.653 125.477  0.00  0.00    +0.000 A 
ATOM     26  C   UNK A   0      -7.731  -2.888 125.066  0.00  0.00    +0.000 A 
ATOM     27  C   UNK A   0      -6.873  -3.818 124.445  0.00  0.00    +0.000 A 
ATOM     28  C   UNK A   0      -5.578  -3.434 124.120  0.00  0.00    +0.000 A 
ATOM     29  C   UNK A   0      -4.547  -4.239 123.446  0.00  0.00    +0.000 C 
ATOM     30  N   UNK A   0      -5.103  -2.234 124.378  0.00  0.00    +0.000 NA
ATOM     31  C   UNK A   0      -5.896  -1.427 125.060  0.00  0.00    +0.000 A 
ENDBRANCH  24  25
BRANCH  24  32
ATOM     32  C   UNK A   0      -8.998   0.278 125.380  0.00  0.00    +0.000 C 
ATOM     33  O   UNK A   0     -10.158   0.456 125.583  0.00  0.00    +0.000 OA
ATOM     34  N   UNK A   0      -8.634   0.769 124.138  0.00  0.00    +0.000 N 
ATOM     35  C   UNK A   0      -9.706   0.558 123.033  0.00  0.00    +0.000 C 
ATOM     36  H   UNK A   0      -7.631   0.720 123.973  0.00  0.00    +0.000 HD
ENDBRANCH  24  32
ENDBRANCH   8  24
TORSDOF 7
ENDMDL
MODEL 3
REMARK VINA RESULT:      -8.9      2.548      7.764
REMARK  Name = CHEMBL2037512
REMARK  11 active torsions:
REMARK  status: ('A' for Active; 'I' for Inactive)
REMARK    1  A    between atoms: C_1  and  C_2
REMARK    2  A    between atoms: C_2  and  C_3
REMARK    3  A    between atoms: C_3  and  C_4
REMARK    4  A    between atoms: C_3  and  C_6
REMARK    5  A    between atoms: C_4  and  C_5
REMARK    6  A    between atoms: C_10  and  C_11
REMARK    7  A    between atoms: N_22  and  C_23
REMARK    8  A    between atoms: C_23  and  C_24
REMARK    9  A    between atoms: C_23  and  C_28
REMARK   10  A    between atoms: N_26  and  C_27
REMARK   11  A    between atoms: C_31  and  C_32
REMARK                            x       y       z     vdW  Elec       q    Type
REMARK                         _______ _______ _______ _____ _____    ______ ____
ROOT
ATOM      1  C   UNK A   2      -8.069   1.125 129.202  0.00  0.00    +0.000 C 
ATOM      2  C   UNK A   2      -7.541  -0.278 128.843  0.00  0.00    +0.000 C 
ATOM      3  O   UNK A   2      -7.472  -1.246 129.602  0.00  0.00    +0.000 OA
ATOM      4  N   UNK A   1      -7.205  -0.435 127.549  0.00  0.00    +0.000 N 
ATOM      5  C   UNK A   1      -7.408   0.586 126.549  0.00  0.00    +0.000 C 
ATOM      6  C   UNK A   1      -6.956   1.940 127.103  0.00  0.00    +0.000 C 
ATOM      7  O   UNK A   1      -6.532   2.742 126.278  0.00  0.00    +0.000 OA
ATOM      8  N   UNK A   2      -7.119   2.169 128.494  0.00  0.00    +0.000 N 
ATOM      9  H   UNK A   1      -6.890  -1.368 127.313  0.00  0.00    +0.000 HD
ENDROOT
BRANCH   5  10
ATOM     10  C   UNK A   1      -6.561   0.332 125.265  0.00  0.00    +0.000 C 
ATOM     11  C   UNK A   1      -7.425   0.380 123.999  0.00  0.00    +0.000 C 
ATOM     12  C   UNK A   1      -7.833  -1.056 123.877  0.00  0.00    +0.000 A 
ATOM     13  C   UNK A   1      -8.961  -1.560 123.259  0.00  0.00    +0.000 A 
ATOM     14  C   UNK A   1      -9.227  -2.925 123.388  0.00  0.00    +0.000 A 
ATOM     15  C   UNK A   1      -8.376  -3.759 124.133  0.00  0.00    +0.000 A 
ATOM     16  C   UNK A   1      -7.245  -3.241 124.765  0.00  0.00    +0.000 A 
ATOM     17  C   UNK A   1      -6.983  -1.890 124.621  0.00  0.00    +0.000 A 
ATOM     18  C   UNK A   1      -5.913  -1.085 125.292  0.00  0.00    +0.000 C 
ENDBRANCH   5  10
BRANCH   1  19
ATOM     19  C   UNK A   2      -8.330   1.113 130.767  0.00  0.00    +0.000 C 
BRANCH  19  21
ATOM     20  C   UNK A   2      -6.438   0.460 132.518  0.00  0.00    +0.000 C 
ATOM     21  C   UNK A   2      -7.027   1.404 131.423  0.00  0.00    +0.000 C 
ENDBRANCH  19  21
BRANCH  19  22
ATOM     22  C   UNK A   2      -9.394   2.164 131.138  0.00  0.00    +0.000 C 
ATOM     23  C   UNK A   2      -9.418   2.637 132.581  0.00  0.00    +0.000 C 
ENDBRANCH  19  22
ENDBRANCH   1  19
BRANCH   8  24
ATOM     24  C   UNK A   0      -6.368   3.413 129.168  0.00  0.00    +0.000 C 
BRANCH  24  25
ATOM     25  C   UNK A   0      -7.302   4.598 129.531  0.00  0.00    +0.000 A 
ATOM     26  C   UNK A   0      -7.239   5.412 130.674  0.00  0.00    +0.000 A 
ATOM     27  C   UNK A   0      -8.340   6.239 130.976  0.00  0.00    +0.000 A 
ATOM     28  C   UNK A   0      -9.382   6.340 130.063  0.00  0.00    +0.000 A 
ATOM     29  C   UNK A   0     -10.595   7.166 130.177  0.00  0.00    +0.000 C 
ATOM     30  N   UNK A   0      -9.399   5.685 128.922  0.00  0.00    +0.000 NA
ATOM     31  C   UNK A   0      -8.406   4.836 128.723  0.00  0.00    +0.000 A 
ENDBRANCH  24  25
BRANCH  24  32
ATOM     32  C   UNK A   0      -5.005   4.180 128.302  0.00  0.00    +0.000 C 
ATOM     33  O   UNK A   0      -4.998   5.264 127.806  0.00  0.00    +0.000 OA
ATOM     34  N   UNK A   0      -3.826   3.507 128.029  0.00  0.00    +0.000 N 
ATOM     35  C   UNK A   0      -3.268   3.758 126.601  0.00  0.00    +0.000 C 
ATOM     36  H   UNK A   0      -3.758   2.618 128.518  0.00  0.00    +0.000 HD
ENDBRANCH  24  32
ENDBRANCH   8  24
TORSDOF 7
ENDMDL
MODEL 4
REMARK VINA RESULT:      -8.7      3.428      7.513
REMARK  Name = CHEMBL2037512
REMARK  11 active torsions:
REMARK  status: ('A' for Active; 'I' for Inactive)
REMARK    1  A    between atoms: C_1  and  C_2
REMARK    2  A    between atoms: C_2  and  C_3
REMARK    3  A    between atoms: C_3  and  C_4
REMARK    4  A    between atoms: C_3  and  C_6
REMARK    5  A    between atoms: C_4  and  C_5
REMARK    6  A    between atoms: C_10  and  C_11
REMARK    7  A    between atoms: N_22  and  C_23
REMARK    8  A    between atoms: C_23  and  C_24
REMARK    9  A    between atoms: C_23  and  C_28
REMARK   10  A    between atoms: N_26  and  C_27
REMARK   11  A    between atoms: C_31  and  C_32
REMARK                            x       y       z     vdW  Elec       q    Type
REMARK                         _______ _______ _______ _____ _____    ______ ____
ROOT
ATOM      1  C   UNK A   2      -4.809   1.681 127.832  0.00  0.00    +0.000 C 
ATOM      2  C   UNK A   2      -5.516   0.367 127.447  0.00  0.00    +0.000 C 
ATOM      3  O   UNK A   2      -5.508  -0.166 126.337  0.00  0.00    +0.000 OA
ATOM      4  N   UNK A   1      -6.124  -0.261 128.471  0.00  0.00    +0.000 N 
ATOM      5  C   UNK A   1      -6.047   0.195 129.838  0.00  0.00    +0.000 C 
ATOM      6  C   UNK A   1      -6.260   1.711 129.883  0.00  0.00    +0.000 C 
ATOM      7  O   UNK A   1      -6.776   2.150 130.905  0.00  0.00    +0.000 OA
ATOM      8  N   UNK A   2      -5.793   2.473 128.780  0.00  0.00    +0.000 N 
ATOM      9  H   UNK A   1      -6.559  -1.141 128.217  0.00  0.00    +0.000 HD
ENDROOT
BRANCH   5  10
ATOM     10  C   UNK A   1      -7.160  -0.430 130.733  0.00  0.00    +0.000 C 
ATOM     11  C   UNK A   1      -6.596  -0.926 132.071  0.00  0.00    +0.000 C 
ATOM     12  C   UNK A   1      -6.239  -2.339 131.725  0.00  0.00    +0.000 A 
ATOM     13  C   UNK A   1      -5.281  -3.134 132.322  0.00  0.00    +0.000 A 
ATOM     14  C   UNK A   1      -5.006  -4.376 131.747  0.00  0.00    +0.000 A 
ATOM     15  C   UNK A   1      -5.678  -4.800 130.588  0.00  0.00    +0.000 A 
ATOM     16  C   UNK A   1      -6.637  -3.987 129.983  0.00  0.00    +0.000 A 
ATOM     17  C   UNK A   1      -6.911  -2.763 130.567  0.00  0.00    +0.000 A 
ATOM     18  C   UNK A   1      -7.799  -1.675 130.046  0.00  0.00    +0.000 C 
ENDBRANCH   5  10
BRANCH   1  19
ATOM     19  C   UNK A   2      -4.232   2.285 126.483  0.00  0.00    +0.000 C 
BRANCH  19  21
ATOM     20  C   UNK A   2      -5.196   4.071 124.764  0.00  0.00    +0.000 C 
ATOM     21  C   UNK A   2      -5.384   2.873 125.748  0.00  0.00    +0.000 C 
ENDBRANCH  19  21
BRANCH  19  22
ATOM     22  C   UNK A   2      -3.160   3.348 126.791  0.00  0.00    +0.000 C 
ATOM     23  C   UNK A   2      -1.712   2.950 126.562  0.00  0.00    +0.000 C 
ENDBRANCH  19  22
ENDBRANCH   1  19
BRANCH   8  24
ATOM     24  C   UNK A   0      -6.282   3.991 128.626  0.00  0.00    +0.000 C 
BRANCH  24  25
ATOM     25  C   UNK A   0      -5.655   4.967 129.655  0.00  0.00    +0.000 A 
ATOM     26  C   UNK A   0      -6.329   5.744 130.612  0.00  0.00    +0.000 A 
ATOM     27  C   UNK A   0      -5.627   6.785 131.254  0.00  0.00    +0.000 A 
ATOM     28  C   UNK A   0      -4.261   6.914 131.039  0.00  0.00    +0.000 A 
ATOM     29  C   UNK A   0      -3.350   7.905 131.635  0.00  0.00    +0.000 C 
ATOM     30  N   UNK A   0      -3.583   6.111 130.247  0.00  0.00    +0.000 NA
ATOM     31  C   UNK A   0      -4.291   5.220 129.576  0.00  0.00    +0.000 A 
ENDBRANCH  24  25
BRANCH  24  32
ATOM     32  C   UNK A   0      -8.032   4.353 128.688  0.00  0.00    +0.000 C 
ATOM     33  O   UNK A   0      -8.610   5.173 128.046  0.00  0.00    +0.000 OA
ATOM     34  N   UNK A   0      -8.881   3.757 129.604  0.00  0.00    +0.000 N 
ATOM     35  C   UNK A   0      -9.908   4.730 130.244  0.00  0.00    +0.000 C 
ATOM     36  H   UNK A   0      -8.444   2.984 130.101  0.00  0.00    +0.000 HD
ENDBRANCH  24  32
ENDBRANCH   8  24
TORSDOF 7
ENDMDL
MODEL 5
REMARK VINA RESULT:      -8.7      2.680      5.037
REMARK  Name = CHEMBL2037512
REMARK  11 active torsions:
REMARK  status: ('A' for Active; 'I' for Inactive)
REMARK    1  A    between atoms: C_1  and  C_2
REMARK    2  A    between atoms: C_2  and  C_3
REMARK    3  A    between atoms: C_3  and  C_4
REMARK    4  A    between atoms: C_3  and  C_6
REMARK    5  A    between atoms: C_4  and  C_5
REMARK    6  A    between atoms: C_10  and  C_11
REMARK    7  A    between atoms: N_22  and  C_23
REMARK    8  A    between atoms: C_23  and  C_24
REMARK    9  A    between atoms: C_23  and  C_28
REMARK   10  A    between atoms: N_26  and  C_27
REMARK   11  A    between atoms: C_31  and  C_32
REMARK                            x       y       z     vdW  Elec       q    Type
REMARK                         _______ _______ _______ _____ _____    ______ ____
ROOT
ATOM      1  C   UNK A   2      -6.920   2.538 126.992  0.00  0.00    +0.000 C 
ATOM      2  C   UNK A   2      -6.739   3.939 127.608  0.00  0.00    +0.000 C 
ATOM      3  O   UNK A   2      -5.975   4.818 127.207  0.00  0.00    +0.000 OA
ATOM      4  N   UNK A   1      -7.571   4.212 128.632  0.00  0.00    +0.000 N 
ATOM      5  C   UNK A   1      -8.614   3.314 129.065  0.00  0.00    +0.000 C 
ATOM      6  C   UNK A   1      -8.063   1.887 129.132  0.00  0.00    +0.000 C 
ATOM      7  O   UNK A   1      -8.576   1.153 129.970  0.00  0.00    +0.000 OA
ATOM      8  N   UNK A   2      -7.063   1.523 128.194  0.00  0.00    +0.000 N 
ATOM      9  H   UNK A   1      -7.469   5.146 129.010  0.00  0.00    +0.000 HD
ENDROOT
BRANCH   5  10
ATOM     10  C   UNK A   1      -9.129   3.653 130.497  0.00  0.00    +0.000 C 
ATOM     11  C   UNK A   1     -10.660   3.731 130.543  0.00  0.00    +0.000 C 
ATOM     12  C   UNK A   1     -10.881   5.182 130.243  0.00  0.00    +0.000 A 
ATOM     13  C   UNK A   1     -12.000   5.763 129.679  0.00  0.00    +0.000 A 
ATOM     14  C   UNK A   1     -11.941   7.118 129.347  0.00  0.00    +0.000 A 
ATOM     15  C   UNK A   1     -10.774   7.866 129.573  0.00  0.00    +0.000 A 
ATOM     16  C   UNK A   1      -9.643   7.271 130.132  0.00  0.00    +0.000 A 
ATOM     17  C   UNK A   1      -9.714   5.931 130.468  0.00  0.00    +0.000 A 
ATOM     18  C   UNK A   1      -8.610   5.047 130.963  0.00  0.00    +0.000 C 
ENDBRANCH   5  10
BRANCH   1  19
ATOM     19  C   UNK A   2      -5.808   2.401 125.869  0.00  0.00    +0.000 C 
BRANCH  19  21
ATOM     20  C   UNK A   2      -3.265   2.871 126.490  0.00  0.00    +0.000 C 
ATOM     21  C   UNK A   2      -4.553   1.991 126.554  0.00  0.00    +0.000 C 
ENDBRANCH  19  21
BRANCH  19  22
ATOM     22  C   UNK A   2      -6.239   1.363 124.816  0.00  0.00    +0.000 C 
ATOM     23  C   UNK A   2      -7.583   1.583 124.144  0.00  0.00    +0.000 C 
ENDBRANCH  19  22
ENDBRANCH   1  19
BRANCH   8  24
ATOM     24  C   UNK A   0      -6.229   0.176 128.432  0.00  0.00    +0.000 C 
BRANCH  24  25
ATOM     25  C   UNK A   0      -6.552  -0.958 127.424  0.00  0.00    +0.000 A 
ATOM     26  C   UNK A   0      -5.638  -1.783 126.748  0.00  0.00    +0.000 A 
ATOM     27  C   UNK A   0      -6.097  -2.550 125.658  0.00  0.00    +0.000 A 
ATOM     28  C   UNK A   0      -7.457  -2.586 125.380  0.00  0.00    +0.000 A 
ATOM     29  C   UNK A   0      -8.134  -3.345 124.316  0.00  0.00    +0.000 C 
ATOM     30  N   UNK A   0      -8.349  -1.923 126.086  0.00  0.00    +0.000 NA
ATOM     31  C   UNK A   0      -7.872  -1.128 127.028  0.00  0.00    +0.000 A 
ENDBRANCH  24  25
BRANCH  24  32
ATOM     32  C   UNK A   0      -6.306  -0.624 130.030  0.00  0.00    +0.000 C 
ATOM     33  O   UNK A   0      -5.431  -0.683 130.837  0.00  0.00    +0.000 OA
ATOM     34  N   UNK A   0      -7.402  -1.365 130.437  0.00  0.00    +0.000 N 
ATOM     35  C   UNK A   0      -7.038  -2.689 131.162  0.00  0.00    +0.000 C 
ATOM     36  H   UNK A   0      -8.202  -1.256 129.818  0.00  0.00    +0.000 HD
ENDBRANCH  24  32
ENDBRANCH   8  24
TORSDOF 7
ENDMDL
MODEL 6
REMARK VINA RESULT:      -8.7      3.994      7.977
REMARK  Name = CHEMBL2037512
REMARK  11 active torsions:
REMARK  status: ('A' for Active; 'I' for Inactive)
REMARK    1  A    between atoms: C_1  and  C_2
REMARK    2  A    between atoms: C_2  and  C_3
REMARK    3  A    between atoms: C_3  and  C_4
REMARK    4  A    between atoms: C_3  and  C_6
REMARK    5  A    between atoms: C_4  and  C_5
REMARK    6  A    between atoms: C_10  and  C_11
REMARK    7  A    between atoms: N_22  and  C_23
REMARK    8  A    between atoms: C_23  and  C_24
REMARK    9  A    between atoms: C_23  and  C_28
REMARK   10  A    between atoms: N_26  and  C_27
REMARK   11  A    between atoms: C_31  and  C_32
REMARK                            x       y       z     vdW  Elec       q    Type
REMARK                         _______ _______ _______ _____ _____    ______ ____
ROOT
ATOM      1  C   UNK A   2      -6.987   2.185 132.646  0.00  0.00    +0.000 C 
ATOM      2  C   UNK A   2      -5.974   1.136 133.147  0.00  0.00    +0.000 C 
ATOM      3  O   UNK A   2      -5.694   0.899 134.323  0.00  0.00    +0.000 OA
ATOM      4  N   UNK A   1      -5.426   0.380 132.178  0.00  0.00    +0.000 N 
ATOM      5  C   UNK A   1      -5.814   0.467 130.791  0.00  0.00    +0.000 C 
ATOM      6  C   UNK A   1      -5.924   1.939 130.383  0.00  0.00    +0.000 C 
ATOM      7  O   UNK A   1      -5.680   2.189 129.208  0.00  0.00    +0.000 OA
ATOM      8  N   UNK A   2      -6.350   2.865 131.370  0.00  0.00    +0.000 N 
ATOM      9  H   UNK A   1      -4.786  -0.329 132.518  0.00  0.00    +0.000 HD
ENDROOT
BRANCH   5  10
ATOM     10  C   UNK A   1      -4.758  -0.174 129.840  0.00  0.00    +0.000 C 
ATOM     11  C   UNK A   1      -5.404  -1.169 128.867  0.00  0.00    +0.000 C 
ATOM     12  C   UNK A   1      -5.304  -2.441 129.651  0.00  0.00    +0.000 A 
ATOM     13  C   UNK A   1      -6.109  -3.558 129.546  0.00  0.00    +0.000 A 
ATOM     14  C   UNK A   1      -5.935  -4.584 130.478  0.00  0.00    +0.000 A 
ATOM     15  C   UNK A   1      -4.975  -4.477 131.498  0.00  0.00    +0.000 A 
ATOM     16  C   UNK A   1      -4.173  -3.341 131.606  0.00  0.00    +0.000 A 
ATOM     17  C   UNK A   1      -4.344  -2.335 130.671  0.00  0.00    +0.000 A 
ATOM     18  C   UNK A   1      -3.697  -0.984 130.645  0.00  0.00    +0.000 C 
ENDBRANCH   5  10
BRANCH   1  19
ATOM     19  C   UNK A   2      -7.447   3.003 133.925  0.00  0.00    +0.000 C 
BRANCH  19  21
ATOM     20  C   UNK A   2      -6.897   5.483 134.714  0.00  0.00    +0.000 C 
ATOM     21  C   UNK A   2      -6.471   4.111 134.102  0.00  0.00    +0.000 C 
ENDBRANCH  19  21
BRANCH  19  22
ATOM     22  C   UNK A   2      -8.877   3.540 133.727  0.00  0.00    +0.000 C 
ATOM     23  C   UNK A   2      -9.771   2.777 132.764  0.00  0.00    +0.000 C 
ENDBRANCH  19  22
ENDBRANCH   1  19
BRANCH   8  24
ATOM     24  C   UNK A   0      -6.161   4.432 131.096  0.00  0.00    +0.000 C 
BRANCH  24  25
ATOM     25  C   UNK A   0      -7.467   5.169 130.698  0.00  0.00    +0.000 A 
ATOM     26  C   UNK A   0      -7.925   6.408 131.175  0.00  0.00    +0.000 A 
ATOM     27  C   UNK A   0      -9.263   6.775 130.927  0.00  0.00    +0.000 A 
ATOM     28  C   UNK A   0     -10.040   5.981 130.094  0.00  0.00    +0.000 A 
ATOM     29  C   UNK A   0     -11.437   6.206 129.689  0.00  0.00    +0.000 C 
ATOM     30  N   UNK A   0      -9.588   4.882 129.529  0.00  0.00    +0.000 NA
ATOM     31  C   UNK A   0      -8.368   4.509 129.872  0.00  0.00    +0.000 A 
ENDBRANCH  24  25
BRANCH  24  32
ATOM     32  C   UNK A   0      -4.968   4.964 129.875  0.00  0.00    +0.000 C 
ATOM     33  O   UNK A   0      -5.203   5.538 128.857  0.00  0.00    +0.000 OA
ATOM     34  N   UNK A   0      -3.624   4.646 129.962  0.00  0.00    +0.000 N 
ATOM     35  C   UNK A   0      -2.982   4.225 128.612  0.00  0.00    +0.000 C 
ATOM     36  H   UNK A   0      -3.372   4.244 130.861  0.00  0.00    +0.000 HD
ENDBRANCH  24  32
ENDBRANCH   8  24
TORSDOF 7
ENDMDL
MODEL 7
REMARK VINA RESULT:      -8.6      2.880      7.613
REMARK  Name = CHEMBL2037512
REMARK  11 active torsions:
REMARK  status: ('A' for Active; 'I' for Inactive)
REMARK    1  A    between atoms: C_1  and  C_2
REMARK    2  A    between atoms: C_2  and  C_3
REMARK    3  A    between atoms: C_3  and  C_4
REMARK    4  A    between atoms: C_3  and  C_6
REMARK    5  A    between atoms: C_4  and  C_5
REMARK    6  A    between atoms: C_10  and  C_11
REMARK    7  A    between atoms: N_22  and  C_23
REMARK    8  A    between atoms: C_23  and  C_24
REMARK    9  A    between atoms: C_23  and  C_28
REMARK   10  A    between atoms: N_26  and  C_27
REMARK   11  A    between atoms: C_31  and  C_32
REMARK                            x       y       z     vdW  Elec       q    Type
REMARK                         _______ _______ _______ _____ _____    ______ ____
ROOT
ATOM      1  C   UNK A   2      -6.694   2.350 131.662  0.00  0.00    +0.000 C 
ATOM      2  C   UNK A   2      -5.506   1.424 131.331  0.00  0.00    +0.000 C 
ATOM      3  O   UNK A   2      -4.390   1.458 131.852  0.00  0.00    +0.000 OA
ATOM      4  N   UNK A   1      -5.784   0.455 130.439  0.00  0.00    +0.000 N 
ATOM      5  C   UNK A   1      -7.103   0.229 129.900  0.00  0.00    +0.000 C 
ATOM      6  C   UNK A   1      -7.732   1.570 129.512  0.00  0.00    +0.000 C 
ATOM      7  O   UNK A   1      -8.526   1.539 128.577  0.00  0.00    +0.000 OA
ATOM      8  N   UNK A   2      -7.394   2.706 130.292  0.00  0.00    +0.000 N 
ATOM      9  H   UNK A   1      -5.008  -0.169 130.251  0.00  0.00    +0.000 HD
ENDROOT
BRANCH   5  10
ATOM     10  C   UNK A   1      -7.072  -0.633 128.602  0.00  0.00    +0.000 C 
ATOM     11  C   UNK A   1      -7.742  -1.997 128.814  0.00  0.00    +0.000 C 
ATOM     12  C   UNK A   1      -6.573  -2.823 129.255  0.00  0.00    +0.000 A 
ATOM     13  C   UNK A   1      -6.596  -3.962 130.037  0.00  0.00    +0.000 A 
ATOM     14  C   UNK A   1      -5.376  -4.496 130.456  0.00  0.00    +0.000 A 
ATOM     15  C   UNK A   1      -4.161  -3.888 130.100  0.00  0.00    +0.000 A 
ATOM     16  C   UNK A   1      -4.144  -2.732 129.320  0.00  0.00    +0.000 A 
ATOM     17  C   UNK A   1      -5.358  -2.216 128.900  0.00  0.00    +0.000 A 
ATOM     18  C   UNK A   1      -5.607  -0.934 128.164  0.00  0.00    +0.000 C 
ENDBRANCH   5  10
BRANCH   1  19
ATOM     19  C   UNK A   2      -6.135   3.447 132.661  0.00  0.00    +0.000 C 
BRANCH  19  21
ATOM     20  C   UNK A   2      -5.646   6.021 132.200  0.00  0.00    +0.000 C 
ATOM     21  C   UNK A   2      -5.511   4.510 131.828  0.00  0.00    +0.000 C 
ENDBRANCH  19  21
BRANCH  19  22
ATOM     22  C   UNK A   2      -7.277   4.010 133.528  0.00  0.00    +0.000 C 
ATOM     23  C   UNK A   2      -8.552   3.188 133.603  0.00  0.00    +0.000 C 
ENDBRANCH  19  22
ENDBRANCH   1  19
BRANCH   8  24
ATOM     24  C   UNK A   0      -7.752   4.164 129.734  0.00  0.00    +0.000 C 
BRANCH  24  25
ATOM     25  C   UNK A   0      -9.104   4.726 130.246  0.00  0.00    +0.000 A 
ATOM     26  C   UNK A   0     -10.352   4.081 130.241  0.00  0.00    +0.000 A 
ATOM     27  C   UNK A   0     -11.511   4.849 130.470  0.00  0.00    +0.000 A 
ATOM     28  C   UNK A   0     -11.379   6.180 130.844  0.00  0.00    +0.000 A 
ATOM     29  C   UNK A   0     -12.456   7.134 131.157  0.00  0.00    +0.000 C 
ATOM     30  N   UNK A   0     -10.211   6.771 130.984  0.00  0.00    +0.000 NA
ATOM     31  C   UNK A   0      -9.152   6.054 130.653  0.00  0.00    +0.000 A 
ENDBRANCH  24  25
BRANCH  24  32
ATOM     32  C   UNK A   0      -7.809   4.430 127.966  0.00  0.00    +0.000 C 
ATOM     33  O   UNK A   0      -8.651   5.022 127.365  0.00  0.00    +0.000 OA
ATOM     34  N   UNK A   0      -6.898   3.853 127.099  0.00  0.00    +0.000 N 
ATOM     35  C   UNK A   0      -7.530   3.291 125.796  0.00  0.00    +0.000 C 
ATOM     36  H   UNK A   0      -6.113   3.422 127.582  0.00  0.00    +0.000 HD
ENDBRANCH  24  32
ENDBRANCH   8  24
TORSDOF 7
ENDMDL
MODEL 8
REMARK VINA RESULT:      -8.6      3.659      6.901
REMARK  Name = CHEMBL2037512
REMARK  11 active torsions:
REMARK  status: ('A' for Active; 'I' for Inactive)
REMARK    1  A    between atoms: C_1  and  C_2
REMARK    2  A    between atoms: C_2  and  C_3
REMARK    3  A    between atoms: C_3  and  C_4
REMARK    4  A    between atoms: C_3  and  C_6
REMARK    5  A    between atoms: C_4  and  C_5
REMARK    6  A    between atoms: C_10  and  C_11
REMARK    7  A    between atoms: N_22  and  C_23
REMARK    8  A    between atoms: C_23  and  C_24
REMARK    9  A    between atoms: C_23  and  C_28
REMARK   10  A    between atoms: N_26  and  C_27
REMARK   11  A    between atoms: C_31  and  C_32
REMARK                            x       y       z     vdW  Elec       q    Type
REMARK                         _______ _______ _______ _____ _____    ______ ____
ROOT
ATOM      1  C   UNK A   2      -8.008   2.684 128.929  0.00  0.00    +0.000 C 
ATOM      2  C   UNK A   2      -8.255   4.023 128.207  0.00  0.00    +0.000 C 
ATOM      3  O   UNK A   2      -8.089   4.245 127.007  0.00  0.00    +0.000 OA
ATOM      4  N   UNK A   1      -8.773   4.992 128.987  0.00  0.00    +0.000 N 
ATOM      5  C   UNK A   1      -9.160   4.780 130.361  0.00  0.00    +0.000 C 
ATOM      6  C   UNK A   1      -8.069   3.980 131.080  0.00  0.00    +0.000 C 
ATOM      7  O   UNK A   1      -7.949   4.198 132.281  0.00  0.00    +0.000 OA
ATOM      8  N   UNK A   2      -7.343   3.027 130.320  0.00  0.00    +0.000 N 
ATOM      9  H   UNK A   1      -8.963   5.859 128.498  0.00  0.00    +0.000 HD
ENDROOT
BRANCH   5  10
ATOM     10  C   UNK A   1      -9.311   6.119 131.145  0.00  0.00    +0.000 C 
ATOM     11  C   UNK A   1     -10.743   6.313 131.660  0.00  0.00    +0.000 C 
ATOM     12  C   UNK A   1     -11.363   7.046 130.511  0.00  0.00    +0.000 A 
ATOM     13  C   UNK A   1     -12.698   7.078 130.156  0.00  0.00    +0.000 A 
ATOM     14  C   UNK A   1     -13.044   7.707 128.958  0.00  0.00    +0.000 A 
ATOM     15  C   UNK A   1     -12.062   8.282 128.135  0.00  0.00    +0.000 A 
ATOM     16  C   UNK A   1     -10.715   8.237 128.493  0.00  0.00    +0.000 A 
ATOM     17  C   UNK A   1     -10.382   7.622 129.688  0.00  0.00    +0.000 A 
ATOM     18  C   UNK A   1      -9.013   7.343 130.227  0.00  0.00    +0.000 C 
ENDBRANCH   5  10
BRANCH   1  19
ATOM     19  C   UNK A   2      -7.337   1.723 127.861  0.00  0.00    +0.000 C 
BRANCH  19  21
ATOM     20  C   UNK A   2      -8.444  -0.271 126.492  0.00  0.00    +0.000 C 
ATOM     21  C   UNK A   2      -8.433   1.206 126.998  0.00  0.00    +0.000 C 
ENDBRANCH  19  21
BRANCH  19  22
ATOM     22  C   UNK A   2      -6.288   2.493 127.037  0.00  0.00    +0.000 C 
ATOM     23  C   UNK A   2      -5.146   1.682 126.449  0.00  0.00    +0.000 C 
ENDBRANCH  19  22
ENDBRANCH   1  19
BRANCH   8  24
ATOM     24  C   UNK A   0      -5.992   2.418 130.928  0.00  0.00    +0.000 C 
BRANCH  24  25
ATOM     25  C   UNK A   0      -4.740   3.307 130.710  0.00  0.00    +0.000 A 
ATOM     26  C   UNK A   0      -3.679   3.519 131.606  0.00  0.00    +0.000 A 
ATOM     27  C   UNK A   0      -2.786   4.581 131.358  0.00  0.00    +0.000 A 
ATOM     28  C   UNK A   0      -2.886   5.286 130.166  0.00  0.00    +0.000 A 
ATOM     29  C   UNK A   0      -2.037   6.397 129.708  0.00  0.00    +0.000 C 
ATOM     30  N   UNK A   0      -3.793   5.016 129.250  0.00  0.00    +0.000 NA
ATOM     31  C   UNK A   0      -4.681   4.091 129.565  0.00  0.00    +0.000 A 
ENDBRANCH  24  25
BRANCH  24  32
ATOM     32  C   UNK A   0      -5.466   0.787 130.417  0.00  0.00    +0.000 C 
ATOM     33  O   UNK A   0      -4.560   0.530 129.687  0.00  0.00    +0.000 OA
ATOM     34  N   UNK A   0      -6.164  -0.359 130.757  0.00  0.00    +0.000 N 
ATOM     35  C   UNK A   0      -6.304  -1.384 129.598  0.00  0.00    +0.000 C 
ATOM     36  H   UNK A   0      -6.883  -0.189 131.456  0.00  0.00    +0.000 HD
ENDBRANCH  24  32
ENDBRANCH   8  24
TORSDOF 7
ENDMDL
MODEL 9
REMARK VINA RESULT:      -8.6      3.227      6.256
REMARK  Name = CHEMBL2037512
REMARK  11 active torsions:
REMARK  status: ('A' for Active; 'I' for Inactive)
REMARK    1  A    between atoms: C_1  and  C_2
REMARK    2  A    between atoms: C_2  and  C_3
REMARK    3  A    between atoms: C_3  and  C_4
REMARK    4  A    between atoms: C_3  and  C_6
REMARK    5  A    between atoms: C_4  and  C_5
REMARK    6  A    between atoms: C_10  and  C_11
REMARK    7  A    between atoms: N_22  and  C_23
REMARK    8  A    between atoms: C_23  and  C_24
REMARK    9  A    between atoms: C_23  and  C_28
REMARK   10  A    between atoms: N_26  and  C_27
REMARK   11  A    between atoms: C_31  and  C_32
REMARK                            x       y       z     vdW  Elec       q    Type
REMARK                         _______ _______ _______ _____ _____    ______ ____
ROOT
ATOM      1  C   UNK A   2      -7.463   2.685 128.345  0.00  0.00    +0.000 C 
ATOM      2  C   UNK A   2      -7.446   4.204 128.083  0.00  0.00    +0.000 C 
ATOM      3  O   UNK A   2      -6.776   4.789 127.231  0.00  0.00    +0.000 OA
ATOM      4  N   UNK A   1      -8.319   4.910 128.827  0.00  0.00    +0.000 N 
ATOM      5  C   UNK A   1      -9.265   4.299 129.729  0.00  0.00    +0.000 C 
ATOM      6  C   UNK A   1      -8.563   3.208 130.543  0.00  0.00    +0.000 C 
ATOM      7  O   UNK A   1      -9.007   3.008 131.668  0.00  0.00    +0.000 OA
ATOM      8  N   UNK A   2      -7.513   2.490 129.912  0.00  0.00    +0.000 N 
ATOM      9  H   UNK A   1      -8.326   5.903 128.626  0.00  0.00    +0.000 HD
ENDROOT
BRANCH   5  10
ATOM     10  C   UNK A   1      -9.837   5.316 130.763  0.00  0.00    +0.000 C 
ATOM     11  C   UNK A   1     -11.371   5.349 130.734  0.00  0.00    +0.000 C 
ATOM     12  C   UNK A   1     -11.614   6.419 129.715  0.00  0.00    +0.000 A 
ATOM     13  C   UNK A   1     -12.727   6.577 128.911  0.00  0.00    +0.000 A 
ATOM     14  C   UNK A   1     -12.687   7.561 127.921  0.00  0.00    +0.000 A 
ATOM     15  C   UNK A   1     -11.546   8.361 127.742  0.00  0.00    +0.000 A 
ATOM     16  C   UNK A   1     -10.422   8.188 128.550  0.00  0.00    +0.000 A 
ATOM     17  C   UNK A   1     -10.474   7.219 129.536  0.00  0.00    +0.000 A 
ATOM     18  C   UNK A   1      -9.368   6.767 130.440  0.00  0.00    +0.000 C 
ENDBRANCH   5  10
BRANCH   1  19
ATOM     19  C   UNK A   2      -6.324   2.066 127.431  0.00  0.00    +0.000 C 
BRANCH  19  21
ATOM     20  C   UNK A   2      -3.766   2.787 127.542  0.00  0.00    +0.000 C 
ATOM     21  C   UNK A   2      -5.051   2.182 128.192  0.00  0.00    +0.000 C 
ENDBRANCH  19  21
BRANCH  19  22
ATOM     22  C   UNK A   2      -6.648   0.597 127.098  0.00  0.00    +0.000 C 
ATOM     23  C   UNK A   2      -8.112   0.245 126.898  0.00  0.00    +0.000 C 
ENDBRANCH  19  22
ENDBRANCH   1  19
BRANCH   8  24
ATOM     24  C   UNK A   0      -6.542   1.588 130.811  0.00  0.00    +0.000 C 
BRANCH  24  25
ATOM     25  C   UNK A   0      -6.676   0.063 130.558  0.00  0.00    +0.000 A 
ATOM     26  C   UNK A   0      -7.863  -0.681 130.452  0.00  0.00    +0.000 A 
ATOM     27  C   UNK A   0      -7.787  -2.087 130.517  0.00  0.00    +0.000 A 
ATOM     28  C   UNK A   0      -6.540  -2.698 130.531  0.00  0.00    +0.000 A 
ATOM     29  C   UNK A   0      -6.249  -4.141 130.565  0.00  0.00    +0.000 C 
ATOM     30  N   UNK A   0      -5.411  -2.022 130.497  0.00  0.00    +0.000 NA
ATOM     31  C   UNK A   0      -5.520  -0.706 130.549  0.00  0.00    +0.000 A 
ENDBRANCH  24  25
BRANCH  24  32
ATOM     32  C   UNK A   0      -6.609   1.744 132.591  0.00  0.00    +0.000 C 
ATOM     33  O   UNK A   0      -7.167   1.011 133.347  0.00  0.00    +0.000 OA
ATOM     34  N   UNK A   0      -6.087   2.837 133.261  0.00  0.00    +0.000 N 
ATOM     35  C   UNK A   0      -6.987   3.367 134.411  0.00  0.00    +0.000 C 
ATOM     36  H   UNK A   0      -5.521   3.433 132.661  0.00  0.00    +0.000 HD
ENDBRANCH  24  32
ENDBRANCH   8  24
TORSDOF 7
ENDMDL
