MODEL 1
REMARK VINA RESULT:     -10.5      0.000      0.000
REMARK  Name = CHEMBL68752
REMARK  9 active torsions:
REMARK  status: ('A' for Active; 'I' for Inactive)
REMARK    1  A    between atoms: C_1  and  O_2
REMARK    2  A    between atoms: O_2  and  C_3
REMARK    3  A    between atoms: C_5  and  O_6
REMARK    4  A    between atoms: O_6  and  C_7
REMARK    5  A    between atoms: N_10  and  C_11
REMARK    6  A    between atoms: C_11  and  C_12
REMARK    7  A    between atoms: C_14  and  C_15
REMARK    8  A    between atoms: C_24  and  C_25
REMARK    9  A    between atoms: C_30  and  N_31
REMARK                            x       y       z     vdW  Elec       q    Type
REMARK                         _______ _______ _______ _____ _____    ______ ____
ROOT
ATOM      1  C   UNL     1      -5.791   0.277 129.008  0.00  0.00    +0.000 A 
ATOM      2  C   UNL     1      -5.519  -0.206 127.661  0.00  0.00    +0.000 A 
ATOM      3  C   UNL     1      -5.722  -1.505 127.329  0.00  0.00    +0.000 A 
ATOM      4  C   UNL     1      -6.101  -2.203 128.412  0.00  0.00    +0.000 A 
ATOM      5  C   UNL     1      -6.501  -1.790 129.707  0.00  0.00    +0.000 A 
ATOM      6  C   UNL     1      -6.305  -0.504 130.090  0.00  0.00    +0.000 A 
ENDROOT
BRANCH   6   7
ATOM      7  C   UNL     1      -6.552  -0.258 131.616  0.00  0.00    +0.000 C 
ATOM      8  O   UNL     1      -5.925  -0.945 132.432  0.00  0.00    +0.000 OA
ATOM      9  N   UNL     1      -7.480   0.750 132.054  0.00  0.00    +0.000 N 
ATOM     10  C   UNL     1      -6.977   2.043 132.661  0.00  0.00    +0.000 C 
ATOM     11  C   UNL     1      -8.080   2.838 133.382  0.00  0.00    +0.000 C 
ATOM     12  C   UNL     1      -9.516   3.297 132.353  0.00  0.00    +0.000 C 
ATOM     13  C   UNL     1      -9.876   1.602 132.046  0.00  0.00    +0.000 C 
ATOM     14  C   UNL     1      -8.754   0.824 131.332  0.00  0.00    +0.000 C 
BRANCH  12  15
ATOM     15  N   UNL     1     -10.137   5.020 131.955  0.00  0.00    +0.000 N 
ATOM     16  C   UNL     1      -9.280   4.864 130.799  0.00  0.00    +0.000 C 
ATOM     17  O   UNL     1      -8.137   4.715 130.746  0.00  0.00    +0.000 OA
ATOM     18  O   UNL     1     -10.052   4.619 129.703  0.00  0.00    +0.000 OA
ATOM     19  C   UNL     1     -10.151   5.921 129.290  0.00  0.00    +0.000 C 
ATOM     20  C   UNL     1     -11.515   6.089 129.846  0.00  0.00    +0.000 A 
ATOM     21  C   UNL     1     -12.420   6.639 128.795  0.00  0.00    +0.000 A 
ATOM     22  C   UNL     1     -13.199   7.759 128.868  0.00  0.00    +0.000 A 
ATOM     23  C   UNL     1     -12.991   8.360 130.082  0.00  0.00    +0.000 A 
ATOM     24  C   UNL     1     -12.076   7.631 131.253  0.00  0.00    +0.000 A 
ATOM     25  C   UNL     1     -11.421   6.155 131.244  0.00  0.00    +0.000 A 
ENDBRANCH  12  15
ENDBRANCH   6   7
BRANCH   1  27
ATOM     26  C   UNL     1      -4.167   1.756 129.586  0.00  0.00    +0.000 C 
ATOM     27  O   UNL     1      -5.444   1.604 129.038  0.00  0.00    +0.000 OA
ENDBRANCH   1  27
BRANCH   3  28
ATOM     28  O   UNL     1      -5.560  -2.220 126.167  0.00  0.00    +0.000 OA
BRANCH  28  29
ATOM     29  C   UNL     1      -6.771  -2.456 125.293  0.00  0.00    +0.000 C 
ATOM     30  C   UNL     1      -6.449  -2.433 123.784  0.00  0.00    +0.000 C 
ATOM     31  C   UNL     1      -6.649  -1.043 123.086  0.00  0.00    +0.000 C 
ATOM     32  N   UNL     1      -7.790  -0.202 123.495  0.00  0.00    +0.000 NA
ATOM     33  C   UNL     1      -8.320  -0.387 124.843  0.00  0.00    +0.000 C 
ATOM     34  C   UNL     1      -8.171  -1.762 125.456  0.00  0.00    +0.000 C 
BRANCH  32  35
ATOM     35  C   UNL     1      -7.567   1.266 123.225  0.00  0.00    +0.000 C 
BRANCH  35  36
ATOM     36  C   UNL     1      -7.219   2.270 124.371  0.00  0.00    +0.000 A 
ATOM     37  C   UNL     1      -6.063   2.311 125.182  0.00  0.00    +0.000 A 
ATOM     38  C   UNL     1      -5.572   3.415 125.871  0.00  0.00    +0.000 A 
ATOM     39  C   UNL     1      -4.108   3.485 126.240  0.00  0.00    +0.000 C 
ATOM     40  C   UNL     1      -6.495   4.389 126.124  0.00  0.00    +0.000 A 
ATOM     41  N   UNL     1      -7.778   4.310 125.591  0.00  0.00    +0.000 N 
ATOM     42  O   UNL     1      -8.668   5.131 125.971  0.00  0.00    +0.000 OA
ATOM     43  C   UNL     1      -8.092   3.312 124.653  0.00  0.00    +0.000 A 
ENDBRANCH  35  36
ENDBRANCH  32  35
ENDBRANCH  28  29
ENDBRANCH   3  28
TORSDOF 7
ENDMDL
MODEL 2
REMARK VINA RESULT:     -10.3      2.865      8.776
REMARK  Name = CHEMBL68752
REMARK  9 active torsions:
REMARK  status: ('A' for Active; 'I' for Inactive)
REMARK    1  A    between atoms: C_1  and  O_2
REMARK    2  A    between atoms: O_2  and  C_3
REMARK    3  A    between atoms: C_5  and  O_6
REMARK    4  A    between atoms: O_6  and  C_7
REMARK    5  A    between atoms: N_10  and  C_11
REMARK    6  A    between atoms: C_11  and  C_12
REMARK    7  A    between atoms: C_14  and  C_15
REMARK    8  A    between atoms: C_24  and  C_25
REMARK    9  A    between atoms: C_30  and  N_31
REMARK                            x       y       z     vdW  Elec       q    Type
REMARK                         _______ _______ _______ _____ _____    ______ ____
ROOT
ATOM      1  C   UNL     1      -4.261   5.928 131.512  0.00  0.00    +0.000 A 
ATOM      2  C   UNL     1      -4.883   5.568 132.779  0.00  0.00    +0.000 A 
ATOM      3  C   UNL     1      -4.898   4.283 133.212  0.00  0.00    +0.000 A 
ATOM      4  C   UNL     1      -4.355   3.478 132.282  0.00  0.00    +0.000 A 
ATOM      5  C   UNL     1      -3.629   3.761 131.099  0.00  0.00    +0.000 A 
ATOM      6  C   UNL     1      -3.597   5.029 130.620  0.00  0.00    +0.000 A 
ENDROOT
BRANCH   6   7
ATOM      7  C   UNL     1      -2.983   5.143 129.184  0.00  0.00    +0.000 C 
ATOM      8  O   UNL     1      -2.115   6.002 128.981  0.00  0.00    +0.000 OA
ATOM      9  N   UNL     1      -3.415   4.264 128.132  0.00  0.00    +0.000 N 
ATOM     10  C   UNL     1      -2.513   3.147 127.648  0.00  0.00    +0.000 C 
ATOM     11  C   UNL     1      -2.973   2.540 126.311  0.00  0.00    +0.000 C 
ATOM     12  C   UNL     1      -4.664   1.854 126.301  0.00  0.00    +0.000 C 
ATOM     13  C   UNL     1      -5.339   3.431 126.693  0.00  0.00    +0.000 C 
ATOM     14  C   UNL     1      -4.858   4.023 128.031  0.00  0.00    +0.000 C 
BRANCH  12  15
ATOM     15  N   UNL     1      -5.181   0.084 125.960  0.00  0.00    +0.000 N 
ATOM     16  C   UNL     1      -5.682   0.163 127.315  0.00  0.00    +0.000 C 
ATOM     17  O   UNL     1      -5.108   0.339 128.302  0.00  0.00    +0.000 OA
ATOM     18  O   UNL     1      -7.039   0.286 127.283  0.00  0.00    +0.000 OA
ATOM     19  C   UNL     1      -7.318  -1.049 127.396  0.00  0.00    +0.000 C 
ATOM     20  C   UNL     1      -7.594  -1.207 125.948  0.00  0.00    +0.000 A 
ATOM     21  C   UNL     1      -8.916  -1.875 125.759  0.00  0.00    +0.000 A 
ATOM     22  C   UNL     1      -9.183  -3.006 125.042  0.00  0.00    +0.000 A 
ATOM     23  C   UNL     1      -8.007  -3.490 124.530  0.00  0.00    +0.000 A 
ATOM     24  C   UNL     1      -6.597  -2.634 124.665  0.00  0.00    +0.000 A 
ATOM     25  C   UNL     1      -6.377  -1.146 125.253  0.00  0.00    +0.000 A 
ENDBRANCH  12  15
ENDBRANCH   6   7
BRANCH   1  27
ATOM     26  C   UNL     1      -3.273   7.971 131.624  0.00  0.00    +0.000 C 
ATOM     27  O   UNL     1      -4.452   7.275 131.338  0.00  0.00    +0.000 OA
ENDBRANCH   1  27
BRANCH   3  28
ATOM     28  O   UNL     1      -5.395   3.669 134.336  0.00  0.00    +0.000 OA
BRANCH  28  29
ATOM     29  C   UNL     1      -6.894   3.635 134.533  0.00  0.00    +0.000 C 
ATOM     30  C   UNL     1      -7.642   2.890 133.407  0.00  0.00    +0.000 C 
ATOM     31  C   UNL     1      -8.165   3.803 132.245  0.00  0.00    +0.000 C 
ATOM     32  N   UNL     1      -8.704   5.136 132.577  0.00  0.00    +0.000 NA
ATOM     33  C   UNL     1      -8.227   5.772 133.802  0.00  0.00    +0.000 C 
ATOM     34  C   UNL     1      -7.797   4.858 134.928  0.00  0.00    +0.000 C 
BRANCH  32  35
ATOM     35  C   UNL     1      -8.624   6.108 131.426  0.00  0.00    +0.000 C 
BRANCH  35  36
ATOM     36  C   UNL     1      -9.897   6.800 130.842  0.00  0.00    +0.000 A 
ATOM     37  C   UNL     1     -10.015   7.581 129.671  0.00  0.00    +0.000 A 
ATOM     38  C   UNL     1     -11.178   7.818 128.946  0.00  0.00    +0.000 A 
ATOM     39  C   UNL     1     -11.092   8.193 127.483  0.00  0.00    +0.000 C 
ATOM     40  C   UNL     1     -12.336   7.644 129.647  0.00  0.00    +0.000 A 
ATOM     41  N   UNL     1     -12.315   7.129 130.940  0.00  0.00    +0.000 N 
ATOM     42  O   UNL     1     -13.377   7.132 131.635  0.00  0.00    +0.000 OA
ATOM     43  C   UNL     1     -11.118   6.629 131.481  0.00  0.00    +0.000 A 
ENDBRANCH  35  36
ENDBRANCH  32  35
ENDBRANCH  28  29
ENDBRANCH   3  28
TORSDOF 7
ENDMDL
MODEL 3
REMARK VINA RESULT:     -10.2      1.949      2.659
REMARK  Name = CHEMBL68752
REMARK  9 active torsions:
REMARK  status: ('A' for Active; 'I' for Inactive)
REMARK    1  A    between atoms: C_1  and  O_2
REMARK    2  A    between atoms: O_2  and  C_3
REMARK    3  A    between atoms: C_5  and  O_6
REMARK    4  A    between atoms: O_6  and  C_7
REMARK    5  A    between atoms: N_10  and  C_11
REMARK    6  A    between atoms: C_11  and  C_12
REMARK    7  A    between atoms: C_14  and  C_15
REMARK    8  A    between atoms: C_24  and  C_25
REMARK    9  A    between atoms: C_30  and  N_31
REMARK                            x       y       z     vdW  Elec       q    Type
REMARK                         _______ _______ _______ _____ _____    ______ ____
ROOT
ATOM      1  C   UNL     1      -7.798  -2.745 128.817  0.00  0.00    +0.000 A 
ATOM      2  C   UNL     1      -8.659  -3.415 127.854  0.00  0.00    +0.000 A 
ATOM      3  C   UNL     1      -9.089  -2.778 126.736  0.00  0.00    +0.000 A 
ATOM      4  C   UNL     1      -8.672  -1.501 126.746  0.00  0.00    +0.000 A 
ATOM      5  C   UNL     1      -7.745  -0.819 127.571  0.00  0.00    +0.000 A 
ATOM      6  C   UNL     1      -7.297  -1.410 128.706  0.00  0.00    +0.000 A 
ENDROOT
BRANCH   6   7
ATOM      7  C   UNL     1      -6.488  -0.447 129.640  0.00  0.00    +0.000 C 
ATOM      8  O   UNL     1      -5.284  -0.670 129.814  0.00  0.00    +0.000 OA
ATOM      9  N   UNL     1      -7.134   0.673 130.270  0.00  0.00    +0.000 N 
ATOM     10  C   UNL     1      -6.867   2.083 129.786  0.00  0.00    +0.000 C 
ATOM     11  C   UNL     1      -7.351   3.159 130.774  0.00  0.00    +0.000 C 
ATOM     12  C   UNL     1      -9.127   3.102 131.189  0.00  0.00    +0.000 C 
ATOM     13  C   UNL     1      -8.951   1.483 131.853  0.00  0.00    +0.000 C 
ATOM     14  C   UNL     1      -8.458   0.424 130.849  0.00  0.00    +0.000 C 
BRANCH  12  15
ATOM     15  N   UNL     1     -10.414   4.434 130.898  0.00  0.00    +0.000 N 
ATOM     16  C   UNL     1      -9.438   5.267 131.566  0.00  0.00    +0.000 C 
ATOM     17  O   UNL     1      -9.021   5.194 132.640  0.00  0.00    +0.000 OA
ATOM     18  O   UNL     1      -8.808   6.045 130.640  0.00  0.00    +0.000 OA
ATOM     19  C   UNL     1      -9.630   7.132 130.768  0.00  0.00    +0.000 C 
ATOM     20  C   UNL     1     -10.398   6.810 129.541  0.00  0.00    +0.000 A 
ATOM     21  C   UNL     1     -10.455   8.011 128.656  0.00  0.00    +0.000 A 
ATOM     22  C   UNL     1     -11.566   8.614 128.141  0.00  0.00    +0.000 A 
ATOM     23  C   UNL     1     -12.677   7.960 128.606  0.00  0.00    +0.000 A 
ATOM     24  C   UNL     1     -12.544   6.559 129.477  0.00  0.00    +0.000 A 
ATOM     25  C   UNL     1     -11.215   5.702 129.805  0.00  0.00    +0.000 A 
ENDBRANCH  12  15
ENDBRANCH   6   7
BRANCH   1  27
ATOM     26  C   UNL     1      -6.260  -4.081 129.822  0.00  0.00    +0.000 C 
ATOM     27  O   UNL     1      -7.582  -3.626 129.846  0.00  0.00    +0.000 OA
ENDBRANCH   1  27
BRANCH   3  28
ATOM     28  O   UNL     1      -9.883  -3.154 125.680  0.00  0.00    +0.000 OA
BRANCH  28  29
ATOM     29  C   UNL     1      -9.217  -3.703 124.439  0.00  0.00    +0.000 C 
ATOM     30  C   UNL     1      -7.711  -3.986 124.629  0.00  0.00    +0.000 C 
ATOM     31  C   UNL     1      -6.759  -2.816 124.200  0.00  0.00    +0.000 C 
ATOM     32  N   UNL     1      -7.101  -2.027 123.001  0.00  0.00    +0.000 NA
ATOM     33  C   UNL     1      -8.507  -1.959 122.613  0.00  0.00    +0.000 C 
ATOM     34  C   UNL     1      -9.379  -3.139 122.982  0.00  0.00    +0.000 C 
BRANCH  32  35
ATOM     35  C   UNL     1      -6.503  -0.641 123.016  0.00  0.00    +0.000 C 
BRANCH  35  36
ATOM     36  C   UNL     1      -6.797   0.370 124.169  0.00  0.00    +0.000 A 
ATOM     37  C   UNL     1      -5.970   0.728 125.257  0.00  0.00    +0.000 A 
ATOM     38  C   UNL     1      -6.044   1.898 126.005  0.00  0.00    +0.000 A 
ATOM     39  C   UNL     1      -4.826   2.397 126.749  0.00  0.00    +0.000 C 
ATOM     40  C   UNL     1      -7.252   2.531 125.961  0.00  0.00    +0.000 A 
ATOM     41  N   UNL     1      -8.259   2.087 125.109  0.00  0.00    +0.000 N 
ATOM     42  O   UNL     1      -9.425   2.578 125.202  0.00  0.00    +0.000 OA
ATOM     43  C   UNL     1      -7.990   1.081 124.164  0.00  0.00    +0.000 A 
ENDBRANCH  35  36
ENDBRANCH  32  35
ENDBRANCH  28  29
ENDBRANCH   3  28
TORSDOF 7
ENDMDL
MODEL 4
REMARK VINA RESULT:     -10.1      2.821      8.592
REMARK  Name = CHEMBL68752
REMARK  9 active torsions:
REMARK  status: ('A' for Active; 'I' for Inactive)
REMARK    1  A    between atoms: C_1  and  O_2
REMARK    2  A    between atoms: O_2  and  C_3
REMARK    3  A    between atoms: C_5  and  O_6
REMARK    4  A    between atoms: O_6  and  C_7
REMARK    5  A    between atoms: N_10  and  C_11
REMARK    6  A    between atoms: C_11  and  C_12
REMARK    7  A    between atoms: C_14  and  C_15
REMARK    8  A    between atoms: C_24  and  C_25
REMARK    9  A    between atoms: C_30  and  N_31
REMARK                            x       y       z     vdW  Elec       q    Type
REMARK                         _______ _______ _______ _____ _____    ______ ____
ROOT
ATOM      1  C   UNL     1      -4.069   5.704 131.286  0.00  0.00    +0.000 A 
ATOM      2  C   UNL     1      -4.488   5.484 132.662  0.00  0.00    +0.000 A 
ATOM      3  C   UNL     1      -4.740   4.234 133.127  0.00  0.00    +0.000 A 
ATOM      4  C   UNL     1      -4.623   3.342 132.130  0.00  0.00    +0.000 A 
ATOM      5  C   UNL     1      -4.108   3.459 130.815  0.00  0.00    +0.000 A 
ATOM      6  C   UNL     1      -3.853   4.688 130.303  0.00  0.00    +0.000 A 
ENDROOT
BRANCH   6   7
ATOM      7  C   UNL     1      -3.540   4.678 128.769  0.00  0.00    +0.000 C 
ATOM      8  O   UNL     1      -2.486   5.198 128.379  0.00  0.00    +0.000 OA
ATOM      9  N   UNL     1      -4.453   4.070 127.839  0.00  0.00    +0.000 N 
ATOM     10  C   UNL     1      -4.114   2.745 127.187  0.00  0.00    +0.000 C 
ATOM     11  C   UNL     1      -5.016   2.421 125.983  0.00  0.00    +0.000 C 
ATOM     12  C   UNL     1      -6.805   2.358 126.336  0.00  0.00    +0.000 C 
ATOM     13  C   UNL     1      -6.794   4.042 126.846  0.00  0.00    +0.000 C 
ATOM     14  C   UNL     1      -5.879   4.346 128.047  0.00  0.00    +0.000 C 
BRANCH  12  15
ATOM     15  N   UNL     1      -7.964   0.899 126.128  0.00  0.00    +0.000 N 
ATOM     16  C   UNL     1      -8.490   1.706 125.049  0.00  0.00    +0.000 C 
ATOM     17  O   UNL     1      -8.991   2.746 125.084  0.00  0.00    +0.000 OA
ATOM     18  O   UNL     1      -8.061   1.195 123.860  0.00  0.00    +0.000 OA
ATOM     19  C   UNL     1      -9.154   0.404 123.628  0.00  0.00    +0.000 C 
ATOM     20  C   UNL     1      -8.466  -0.833 124.070  0.00  0.00    +0.000 A 
ATOM     21  C   UNL     1      -8.613  -1.889 123.025  0.00  0.00    +0.000 A 
ATOM     22  C   UNL     1      -9.109  -3.152 123.181  0.00  0.00    +0.000 A 
ATOM     23  C   UNL     1      -9.510  -3.309 124.483  0.00  0.00    +0.000 A 
ATOM     24  C   UNL     1      -9.200  -2.148 125.621  0.00  0.00    +0.000 A 
ATOM     25  C   UNL     1      -8.333  -0.794 125.466  0.00  0.00    +0.000 A 
ENDBRANCH  12  15
ENDBRANCH   6   7
BRANCH   1  27
ATOM     26  C   UNL     1      -2.597   7.433 131.192  0.00  0.00    +0.000 C 
ATOM     27  O   UNL     1      -3.943   7.060 131.115  0.00  0.00    +0.000 OA
ENDBRANCH   1  27
BRANCH   3  28
ATOM     28  O   UNL     1      -5.134   3.740 134.346  0.00  0.00    +0.000 OA
BRANCH  28  29
ATOM     29  C   UNL     1      -6.591   3.860 134.733  0.00  0.00    +0.000 C 
ATOM     30  C   UNL     1      -7.507   2.873 133.978  0.00  0.00    +0.000 C 
ATOM     31  C   UNL     1      -8.165   3.447 132.676  0.00  0.00    +0.000 C 
ATOM     32  N   UNL     1      -8.620   4.851 132.671  0.00  0.00    +0.000 NA
ATOM     33  C   UNL     1      -7.962   5.779 133.586  0.00  0.00    +0.000 C 
ATOM     34  C   UNL     1      -7.400   5.199 134.865  0.00  0.00    +0.000 C 
BRANCH  32  35
ATOM     35  C   UNL     1      -8.678   5.447 131.285  0.00  0.00    +0.000 C 
BRANCH  35  36
ATOM     36  C   UNL     1      -9.831   6.407 130.850  0.00  0.00    +0.000 A 
ATOM     37  C   UNL     1      -9.827   7.377 129.823  0.00  0.00    +0.000 A 
ATOM     38  C   UNL     1     -10.939   7.901 129.172  0.00  0.00    +0.000 A 
ATOM     39  C   UNL     1     -10.795   8.492 127.788  0.00  0.00    +0.000 C 
ATOM     40  C   UNL     1     -12.112   7.789 129.862  0.00  0.00    +0.000 A 
ATOM     41  N   UNL     1     -12.172   7.073 131.053  0.00  0.00    +0.000 N 
ATOM     42  O   UNL     1     -13.223   7.121 131.764  0.00  0.00    +0.000 OA
ATOM     43  C   UNL     1     -11.066   6.319 131.479  0.00  0.00    +0.000 A 
ENDBRANCH  35  36
ENDBRANCH  32  35
ENDBRANCH  28  29
ENDBRANCH   3  28
TORSDOF 7
ENDMDL
MODEL 5
REMARK VINA RESULT:     -10.0      1.779      2.658
REMARK  Name = CHEMBL68752
REMARK  9 active torsions:
REMARK  status: ('A' for Active; 'I' for Inactive)
REMARK    1  A    between atoms: C_1  and  O_2
REMARK    2  A    between atoms: O_2  and  C_3
REMARK    3  A    between atoms: C_5  and  O_6
REMARK    4  A    between atoms: O_6  and  C_7
REMARK    5  A    between atoms: N_10  and  C_11
REMARK    6  A    between atoms: C_11  and  C_12
REMARK    7  A    between atoms: C_14  and  C_15
REMARK    8  A    between atoms: C_24  and  C_25
REMARK    9  A    between atoms: C_30  and  N_31
REMARK                            x       y       z     vdW  Elec       q    Type
REMARK                         _______ _______ _______ _____ _____    ______ ____
ROOT
ATOM      1  C   UNL     1      -5.532  -0.687 128.461  0.00  0.00    +0.000 A 
ATOM      2  C   UNL     1      -5.940  -1.665 127.463  0.00  0.00    +0.000 A 
ATOM      3  C   UNL     1      -6.120  -1.310 126.166  0.00  0.00    +0.000 A 
ATOM      4  C   UNL     1      -5.949   0.015 126.025  0.00  0.00    +0.000 A 
ATOM      5  C   UNL     1      -5.439   0.999 126.907  0.00  0.00    +0.000 A 
ATOM      6  C   UNL     1      -5.256   0.695 128.216  0.00  0.00    +0.000 A 
ENDROOT
BRANCH   6   7
ATOM      7  C   UNL     1      -4.939   1.939 129.112  0.00  0.00    +0.000 C 
ATOM      8  O   UNL     1      -3.754   2.224 129.326  0.00  0.00    +0.000 OA
ATOM      9  N   UNL     1      -6.003   2.732 129.666  0.00  0.00    +0.000 N 
ATOM     10  C   UNL     1      -6.301   4.110 129.111  0.00  0.00    +0.000 C 
ATOM     11  C   UNL     1      -7.214   4.942 130.027  0.00  0.00    +0.000 C 
ATOM     12  C   UNL     1      -8.837   4.197 130.405  0.00  0.00    +0.000 C 
ATOM     13  C   UNL     1      -8.058   2.812 131.161  0.00  0.00    +0.000 C 
ATOM     14  C   UNL     1      -7.142   1.998 130.228  0.00  0.00    +0.000 C 
BRANCH  12  15
ATOM     15  N   UNL     1     -10.535   4.888 130.013  0.00  0.00    +0.000 N 
ATOM     16  C   UNL     1     -10.343   5.577 131.271  0.00  0.00    +0.000 C 
ATOM     17  O   UNL     1     -10.207   5.144 132.333  0.00  0.00    +0.000 OA
ATOM     18  O   UNL     1     -10.045   6.884 131.023  0.00  0.00    +0.000 OA
ATOM     19  C   UNL     1     -11.327   7.353 131.110  0.00  0.00    +0.000 C 
ATOM     20  C   UNL     1     -11.500   7.421 129.639  0.00  0.00    +0.000 A 
ATOM     21  C   UNL     1     -11.996   8.776 129.255  0.00  0.00    +0.000 A 
ATOM     22  C   UNL     1     -13.107   9.079 128.521  0.00  0.00    +0.000 A 
ATOM     23  C   UNL     1     -13.759   7.914 128.209  0.00  0.00    +0.000 A 
ATOM     24  C   UNL     1     -13.090   6.440 128.552  0.00  0.00    +0.000 A 
ATOM     25  C   UNL     1     -11.623   6.114 129.145  0.00  0.00    +0.000 A 
ENDBRANCH  12  15
ENDBRANCH   6   7
BRANCH   1  27
ATOM     26  C   UNL     1      -6.754  -1.817 130.007  0.00  0.00    +0.000 C 
ATOM     27  O   UNL     1      -5.485  -1.338 129.668  0.00  0.00    +0.000 OA
ENDBRANCH   1  27
BRANCH   3  28
ATOM     28  O   UNL     1      -6.487  -2.002 125.038  0.00  0.00    +0.000 OA
BRANCH  28  29
ATOM     29  C   UNL     1      -7.961  -2.196 124.762  0.00  0.00    +0.000 C 
ATOM     30  C   UNL     1      -8.362  -1.844 123.313  0.00  0.00    +0.000 C 
ATOM     31  C   UNL     1      -8.873  -0.376 123.107  0.00  0.00    +0.000 C 
ATOM     32  N   UNL     1      -9.711   0.237 124.155  0.00  0.00    +0.000 NA
ATOM     33  C   UNL     1      -9.566  -0.265 125.518  0.00  0.00    +0.000 C 
ATOM     34  C   UNL     1      -9.140  -1.708 125.677  0.00  0.00    +0.000 C 
BRANCH  32  35
ATOM     35  C   UNL     1      -9.651   1.745 124.152  0.00  0.00    +0.000 C 
BRANCH  35  36
ATOM     36  C   UNL     1      -8.298   2.515 124.028  0.00  0.00    +0.000 A 
ATOM     37  C   UNL     1      -7.282   2.356 123.058  0.00  0.00    +0.000 A 
ATOM     38  C   UNL     1      -6.321   3.297 122.702  0.00  0.00    +0.000 A 
ATOM     39  C   UNL     1      -5.666   3.229 121.341  0.00  0.00    +0.000 C 
ATOM     40  C   UNL     1      -6.083   4.256 123.643  0.00  0.00    +0.000 A 
ATOM     41  N   UNL     1      -6.862   4.336 124.793  0.00  0.00    +0.000 N 
ATOM     42  O   UNL     1      -6.521   5.121 125.731  0.00  0.00    +0.000 OA
ATOM     43  C   UNL     1      -8.008   3.533 124.925  0.00  0.00    +0.000 A 
ENDBRANCH  35  36
ENDBRANCH  32  35
ENDBRANCH  28  29
ENDBRANCH   3  28
TORSDOF 7
ENDMDL
MODEL 6
REMARK VINA RESULT:      -9.7      2.854      8.178
REMARK  Name = CHEMBL68752
REMARK  9 active torsions:
REMARK  status: ('A' for Active; 'I' for Inactive)
REMARK    1  A    between atoms: C_1  and  O_2
REMARK    2  A    between atoms: O_2  and  C_3
REMARK    3  A    between atoms: C_5  and  O_6
REMARK    4  A    between atoms: O_6  and  C_7
REMARK    5  A    between atoms: N_10  and  C_11
REMARK    6  A    between atoms: C_11  and  C_12
REMARK    7  A    between atoms: C_14  and  C_15
REMARK    8  A    between atoms: C_24  and  C_25
REMARK    9  A    between atoms: C_30  and  N_31
REMARK                            x       y       z     vdW  Elec       q    Type
REMARK                         _______ _______ _______ _____ _____    ______ ____
ROOT
ATOM      1  C   UNL     1      -5.793   1.703 133.289  0.00  0.00    +0.000 A 
ATOM      2  C   UNL     1      -5.494   3.126 133.227  0.00  0.00    +0.000 A 
ATOM      3  C   UNL     1      -4.284   3.570 132.802  0.00  0.00    +0.000 A 
ATOM      4  C   UNL     1      -3.471   2.528 132.561  0.00  0.00    +0.000 A 
ATOM      5  C   UNL     1      -3.721   1.136 132.482  0.00  0.00    +0.000 A 
ATOM      6  C   UNL     1      -4.911   0.644 132.907  0.00  0.00    +0.000 A 
ENDROOT
BRANCH   6   7
ATOM      7  C   UNL     1      -4.948  -0.919 133.001  0.00  0.00    +0.000 C 
ATOM      8  O   UNL     1      -4.618  -1.453 134.068  0.00  0.00    +0.000 OA
ATOM      9  N   UNL     1      -5.364  -1.710 131.874  0.00  0.00    +0.000 N 
ATOM     10  C   UNL     1      -6.715  -2.395 131.876  0.00  0.00    +0.000 C 
ATOM     11  C   UNL     1      -6.848  -3.461 130.775  0.00  0.00    +0.000 C 
ATOM     12  C   UNL     1      -6.596  -2.864 129.069  0.00  0.00    +0.000 C 
ATOM     13  C   UNL     1      -4.951  -2.370 129.454  0.00  0.00    +0.000 C 
ATOM     14  C   UNL     1      -4.841  -1.308 130.564  0.00  0.00    +0.000 C 
BRANCH  12  15
ATOM     15  N   UNL     1      -7.819  -2.902 127.649  0.00  0.00    +0.000 N 
ATOM     16  C   UNL     1      -7.700  -1.463 127.749  0.00  0.00    +0.000 C 
ATOM     17  O   UNL     1      -7.968  -0.763 128.627  0.00  0.00    +0.000 OA
ATOM     18  O   UNL     1      -6.927  -1.007 126.723  0.00  0.00    +0.000 OA
ATOM     19  C   UNL     1      -7.956  -0.731 125.865  0.00  0.00    +0.000 C 
ATOM     20  C   UNL     1      -7.751  -1.970 125.076  0.00  0.00    +0.000 A 
ATOM     21  C   UNL     1      -7.654  -1.631 123.626  0.00  0.00    +0.000 A 
ATOM     22  C   UNL     1      -8.396  -2.142 122.599  0.00  0.00    +0.000 A 
ATOM     23  C   UNL     1      -9.314  -3.020 123.114  0.00  0.00    +0.000 A 
ATOM     24  C   UNL     1      -9.284  -3.450 124.712  0.00  0.00    +0.000 A 
ATOM     25  C   UNL     1      -8.194  -3.061 125.839  0.00  0.00    +0.000 A 
ENDBRANCH  12  15
ENDBRANCH   6   7
BRANCH   1  27
ATOM     26  C   UNL     1      -7.829   2.697 133.455  0.00  0.00    +0.000 C 
ATOM     27  O   UNL     1      -7.061   1.580 133.798  0.00  0.00    +0.000 OA
ENDBRANCH   1  27
BRANCH   3  28
ATOM     28  O   UNL     1      -3.739   4.821 132.639  0.00  0.00    +0.000 OA
BRANCH  28  29
ATOM     29  C   UNL     1      -4.016   5.563 131.352  0.00  0.00    +0.000 C 
ATOM     30  C   UNL     1      -4.768   6.894 131.564  0.00  0.00    +0.000 C 
ATOM     31  C   UNL     1      -6.328   6.799 131.437  0.00  0.00    +0.000 C 
ATOM     32  N   UNL     1      -6.903   5.913 130.406  0.00  0.00    +0.000 NA
ATOM     33  C   UNL     1      -6.097   4.779 129.962  0.00  0.00    +0.000 C 
ATOM     34  C   UNL     1      -4.594   4.935 130.034  0.00  0.00    +0.000 C 
BRANCH  32  35
ATOM     35  C   UNL     1      -8.302   5.454 130.737  0.00  0.00    +0.000 C 
BRANCH  35  36
ATOM     36  C   UNL     1      -9.548   6.362 130.481  0.00  0.00    +0.000 A 
ATOM     37  C   UNL     1      -9.729   7.346 129.484  0.00  0.00    +0.000 A 
ATOM     38  C   UNL     1     -10.942   7.824 129.001  0.00  0.00    +0.000 A 
ATOM     39  C   UNL     1     -11.015   8.442 127.623  0.00  0.00    +0.000 C 
ATOM     40  C   UNL     1     -12.004   7.644 129.839  0.00  0.00    +0.000 A 
ATOM     41  N   UNL     1     -11.868   6.908 131.012  0.00  0.00    +0.000 N 
ATOM     42  O   UNL     1     -12.814   6.893 131.858  0.00  0.00    +0.000 OA
ATOM     43  C   UNL     1     -10.680   6.203 131.269  0.00  0.00    +0.000 A 
ENDBRANCH  35  36
ENDBRANCH  32  35
ENDBRANCH  28  29
ENDBRANCH   3  28
TORSDOF 7
ENDMDL
MODEL 7
REMARK VINA RESULT:      -9.7      3.516      4.480
REMARK  Name = CHEMBL68752
REMARK  9 active torsions:
REMARK  status: ('A' for Active; 'I' for Inactive)
REMARK    1  A    between atoms: C_1  and  O_2
REMARK    2  A    between atoms: O_2  and  C_3
REMARK    3  A    between atoms: C_5  and  O_6
REMARK    4  A    between atoms: O_6  and  C_7
REMARK    5  A    between atoms: N_10  and  C_11
REMARK    6  A    between atoms: C_11  and  C_12
REMARK    7  A    between atoms: C_14  and  C_15
REMARK    8  A    between atoms: C_24  and  C_25
REMARK    9  A    between atoms: C_30  and  N_31
REMARK                            x       y       z     vdW  Elec       q    Type
REMARK                         _______ _______ _______ _____ _____    ______ ____
ROOT
ATOM      1  C   UNL     1      -7.281  -2.026 128.455  0.00  0.00    +0.000 A 
ATOM      2  C   UNL     1      -8.126  -1.838 127.284  0.00  0.00    +0.000 A 
ATOM      3  C   UNL     1      -8.965  -2.816 126.861  0.00  0.00    +0.000 A 
ATOM      4  C   UNL     1      -8.805  -3.917 127.615  0.00  0.00    +0.000 A 
ATOM      5  C   UNL     1      -8.104  -4.135 128.826  0.00  0.00    +0.000 A 
ATOM      6  C   UNL     1      -7.244  -3.191 129.283  0.00  0.00    +0.000 A 
ENDROOT
BRANCH   6   7
ATOM      7  C   UNL     1      -6.358  -3.674 130.480  0.00  0.00    +0.000 C 
ATOM      8  O   UNL     1      -5.868  -4.809 130.429  0.00  0.00    +0.000 OA
ATOM      9  N   UNL     1      -6.115  -2.812 131.605  0.00  0.00    +0.000 N 
ATOM     10  C   UNL     1      -4.758  -2.167 131.797  0.00  0.00    +0.000 C 
ATOM     11  C   UNL     1      -4.568  -1.575 133.204  0.00  0.00    +0.000 C 
ATOM     12  C   UNL     1      -5.793  -0.315 133.698  0.00  0.00    +0.000 C 
ATOM     13  C   UNL     1      -7.102  -1.479 133.532  0.00  0.00    +0.000 C 
ATOM     14  C   UNL     1      -7.268  -2.065 132.117  0.00  0.00    +0.000 C 
BRANCH  12  15
ATOM     15  N   UNL     1      -5.475   1.474 134.159  0.00  0.00    +0.000 N 
ATOM     16  C   UNL     1      -6.096   1.724 132.877  0.00  0.00    +0.000 C 
ATOM     17  O   UNL     1      -5.755   1.407 131.820  0.00  0.00    +0.000 OA
ATOM     18  O   UNL     1      -7.367   2.174 133.078  0.00  0.00    +0.000 OA
ATOM     19  C   UNL     1      -7.065   3.509 133.044  0.00  0.00    +0.000 C 
ATOM     20  C   UNL     1      -7.099   3.647 134.520  0.00  0.00    +0.000 A 
ATOM     21  C   UNL     1      -7.987   4.785 134.897  0.00  0.00    +0.000 A 
ATOM     22  C   UNL     1      -7.676   5.861 135.678  0.00  0.00    +0.000 A 
ATOM     23  C   UNL     1      -6.361   5.768 136.052  0.00  0.00    +0.000 A 
ATOM     24  C   UNL     1      -5.468   4.417 135.711  0.00  0.00    +0.000 A 
ATOM     25  C   UNL     1      -5.958   3.027 135.052  0.00  0.00    +0.000 A 
ENDBRANCH  12  15
ENDBRANCH   6   7
BRANCH   1  27
ATOM     26  C   UNL     1      -7.329   0.181 128.992  0.00  0.00    +0.000 C 
ATOM     27  O   UNL     1      -6.524  -0.890 128.592  0.00  0.00    +0.000 OA
ENDBRANCH   1  27
BRANCH   3  28
ATOM     28  O   UNL     1      -9.857  -2.913 125.821  0.00  0.00    +0.000 OA
BRANCH  28  29
ATOM     29  C   UNL     1      -9.363  -3.452 124.498  0.00  0.00    +0.000 C 
ATOM     30  C   UNL     1      -7.857  -3.794 124.501  0.00  0.00    +0.000 C 
ATOM     31  C   UNL     1      -6.918  -2.649 123.989  0.00  0.00    +0.000 C 
ATOM     32  N   UNL     1      -7.367  -1.816 122.857  0.00  0.00    +0.000 NA
ATOM     33  C   UNL     1      -8.805  -1.686 122.640  0.00  0.00    +0.000 C 
ATOM     34  C   UNL     1      -9.673  -2.843 123.083  0.00  0.00    +0.000 C 
BRANCH  32  35
ATOM     35  C   UNL     1      -6.717  -0.454 122.832  0.00  0.00    +0.000 C 
BRANCH  35  36
ATOM     36  C   UNL     1      -6.887   0.561 124.007  0.00  0.00    +0.000 A 
ATOM     37  C   UNL     1      -6.135   0.660 125.199  0.00  0.00    +0.000 A 
ATOM     38  C   UNL     1      -6.004   1.785 126.007  0.00  0.00    +0.000 A 
ATOM     39  C   UNL     1      -4.800   1.930 126.909  0.00  0.00    +0.000 C 
ATOM     40  C   UNL     1      -7.001   2.707 125.870  0.00  0.00    +0.000 A 
ATOM     41  N   UNL     1      -7.975   2.563 124.887  0.00  0.00    +0.000 N 
ATOM     42  O   UNL     1      -8.984   3.333 124.883  0.00  0.00    +0.000 OA
ATOM     43  C   UNL     1      -7.853   1.553 123.916  0.00  0.00    +0.000 A 
ENDBRANCH  35  36
ENDBRANCH  32  35
ENDBRANCH  28  29
ENDBRANCH   3  28
TORSDOF 7
ENDMDL
MODEL 8
REMARK VINA RESULT:      -9.6      3.639      7.776
REMARK  Name = CHEMBL68752
REMARK  9 active torsions:
REMARK  status: ('A' for Active; 'I' for Inactive)
REMARK    1  A    between atoms: C_1  and  O_2
REMARK    2  A    between atoms: O_2  and  C_3
REMARK    3  A    between atoms: C_5  and  O_6
REMARK    4  A    between atoms: O_6  and  C_7
REMARK    5  A    between atoms: N_10  and  C_11
REMARK    6  A    between atoms: C_11  and  C_12
REMARK    7  A    between atoms: C_14  and  C_15
REMARK    8  A    between atoms: C_24  and  C_25
REMARK    9  A    between atoms: C_30  and  N_31
REMARK                            x       y       z     vdW  Elec       q    Type
REMARK                         _______ _______ _______ _____ _____    ______ ____
ROOT
ATOM      1  C   UNL     1      -5.920   0.051 130.637  0.00  0.00    +0.000 A 
ATOM      2  C   UNL     1      -5.653   1.216 131.468  0.00  0.00    +0.000 A 
ATOM      3  C   UNL     1      -6.503   2.273 131.487  0.00  0.00    +0.000 A 
ATOM      4  C   UNL     1      -7.496   2.080 130.603  0.00  0.00    +0.000 A 
ATOM      5  C   UNL     1      -7.887   0.939 129.859  0.00  0.00    +0.000 A 
ATOM      6  C   UNL     1      -7.064  -0.136 129.799  0.00  0.00    +0.000 A 
ENDROOT
BRANCH   6   7
ATOM      7  C   UNL     1      -7.502  -1.206 128.743  0.00  0.00    +0.000 C 
ATOM      8  O   UNL     1      -7.968  -2.278 129.149  0.00  0.00    +0.000 OA
ATOM      9  N   UNL     1      -7.373  -0.940 127.336  0.00  0.00    +0.000 N 
ATOM     10  C   UNL     1      -8.600  -0.655 126.494  0.00  0.00    +0.000 C 
ATOM     11  C   UNL     1      -8.325  -0.741 124.983  0.00  0.00    +0.000 C 
ATOM     12  C   UNL     1      -7.022   0.373 124.357  0.00  0.00    +0.000 C 
ATOM     13  C   UNL     1      -5.825  -0.395 125.394  0.00  0.00    +0.000 C 
ATOM     14  C   UNL     1      -6.125  -0.304 126.902  0.00  0.00    +0.000 C 
BRANCH  12  15
ATOM     15  N   UNL     1      -7.193   1.733 123.079  0.00  0.00    +0.000 N 
ATOM     16  C   UNL     1      -7.044   2.589 124.236  0.00  0.00    +0.000 C 
ATOM     17  O   UNL     1      -7.716   2.687 125.170  0.00  0.00    +0.000 OA
ATOM     18  O   UNL     1      -5.786   3.116 124.242  0.00  0.00    +0.000 OA
ATOM     19  C   UNL     1      -6.103   4.276 123.588  0.00  0.00    +0.000 C 
ATOM     20  C   UNL     1      -5.575   3.795 122.289  0.00  0.00    +0.000 A 
ATOM     21  C   UNL     1      -4.629   4.803 121.727  0.00  0.00    +0.000 A 
ATOM     22  C   UNL     1      -4.675   5.394 120.496  0.00  0.00    +0.000 A 
ATOM     23  C   UNL     1      -5.787   4.942 119.832  0.00  0.00    +0.000 A 
ATOM     24  C   UNL     1      -6.722   3.728 120.457  0.00  0.00    +0.000 A 
ATOM     25  C   UNL     1      -6.461   2.834 121.777  0.00  0.00    +0.000 A 
ENDBRANCH  12  15
ENDBRANCH   6   7
BRANCH   1  27
ATOM     26  C   UNL     1      -4.174  -0.511 131.978  0.00  0.00    +0.000 C 
ATOM     27  O   UNL     1      -4.865  -0.811 130.800  0.00  0.00    +0.000 OA
ENDBRANCH   1  27
BRANCH   3  28
ATOM     28  O   UNL     1      -6.508   3.470 132.160  0.00  0.00    +0.000 OA
BRANCH  28  29
ATOM     29  C   UNL     1      -5.285   3.849 132.963  0.00  0.00    +0.000 C 
ATOM     30  C   UNL     1      -5.215   5.354 133.297  0.00  0.00    +0.000 C 
ATOM     31  C   UNL     1      -4.389   6.219 132.283  0.00  0.00    +0.000 C 
ATOM     32  N   UNL     1      -3.157   5.649 131.705  0.00  0.00    +0.000 NA
ATOM     33  C   UNL     1      -3.056   4.195 131.623  0.00  0.00    +0.000 C 
ATOM     34  C   UNL     1      -3.811   3.396 132.662  0.00  0.00    +0.000 C 
BRANCH  32  35
ATOM     35  C   UNL     1      -2.788   6.267 130.378  0.00  0.00    +0.000 C 
BRANCH  35  36
ATOM     36  C   UNL     1      -3.161   5.588 129.022  0.00  0.00    +0.000 A 
ATOM     37  C   UNL     1      -2.306   4.962 128.087  0.00  0.00    +0.000 A 
ATOM     38  C   UNL     1      -2.669   4.013 127.137  0.00  0.00    +0.000 A 
ATOM     39  C   UNL     1      -1.632   3.058 126.590  0.00  0.00    +0.000 C 
ATOM     40  C   UNL     1      -3.992   4.011 126.806  0.00  0.00    +0.000 A 
ATOM     41  N   UNL     1      -4.900   4.812 127.492  0.00  0.00    +0.000 N 
ATOM     42  O   UNL     1      -6.089   4.925 127.064  0.00  0.00    +0.000 OA
ATOM     43  C   UNL     1      -4.494   5.512 128.641  0.00  0.00    +0.000 A 
ENDBRANCH  35  36
ENDBRANCH  32  35
ENDBRANCH  28  29
ENDBRANCH   3  28
TORSDOF 7
ENDMDL
MODEL 9
REMARK VINA RESULT:      -9.5      1.789      2.453
REMARK  Name = CHEMBL68752
REMARK  9 active torsions:
REMARK  status: ('A' for Active; 'I' for Inactive)
REMARK    1  A    between atoms: C_1  and  O_2
REMARK    2  A    between atoms: O_2  and  C_3
REMARK    3  A    between atoms: C_5  and  O_6
REMARK    4  A    between atoms: O_6  and  C_7
REMARK    5  A    between atoms: N_10  and  C_11
REMARK    6  A    between atoms: C_11  and  C_12
REMARK    7  A    between atoms: C_14  and  C_15
REMARK    8  A    between atoms: C_24  and  C_25
REMARK    9  A    between atoms: C_30  and  N_31
REMARK                            x       y       z     vdW  Elec       q    Type
REMARK                         _______ _______ _______ _____ _____    ______ ____
ROOT
ATOM      1  C   UNL     1      -6.100  -0.015 131.130  0.00  0.00    +0.000 A 
ATOM      2  C   UNL     1      -6.022  -0.631 129.813  0.00  0.00    +0.000 A 
ATOM      3  C   UNL     1      -5.629   0.083 128.728  0.00  0.00    +0.000 A 
ATOM      4  C   UNL     1      -5.434   1.368 129.070  0.00  0.00    +0.000 A 
ATOM      5  C   UNL     1      -5.372   2.009 130.332  0.00  0.00    +0.000 A 
ATOM      6  C   UNL     1      -5.767   1.339 131.443  0.00  0.00    +0.000 A 
ENDROOT
BRANCH   6   7
ATOM      7  C   UNL     1      -5.888   2.246 132.714  0.00  0.00    +0.000 C 
ATOM      8  O   UNL     1      -5.111   2.048 133.656  0.00  0.00    +0.000 OA
ATOM      9  N   UNL     1      -6.876   3.290 132.776  0.00  0.00    +0.000 N 
ATOM     10  C   UNL     1      -6.465   4.743 132.661  0.00  0.00    +0.000 C 
ATOM     11  C   UNL     1      -7.574   5.718 133.092  0.00  0.00    +0.000 C 
ATOM     12  C   UNL     1      -9.147   5.571 132.179  0.00  0.00    +0.000 C 
ATOM     13  C   UNL     1      -9.342   3.908 132.720  0.00  0.00    +0.000 C 
ATOM     14  C   UNL     1      -8.216   2.953 132.283  0.00  0.00    +0.000 C 
BRANCH  12  15
ATOM     15  N   UNL     1      -9.995   6.881 131.139  0.00  0.00    +0.000 N 
ATOM     16  C   UNL     1      -9.295   6.217 130.061  0.00  0.00    +0.000 C 
ATOM     17  O   UNL     1      -8.160   6.092 129.888  0.00  0.00    +0.000 OA
ATOM     18  O   UNL     1     -10.181   5.460 129.354  0.00  0.00    +0.000 OA
ATOM     19  C   UNL     1     -10.472   6.406 128.408  0.00  0.00    +0.000 C 
ATOM     20  C   UNL     1     -11.756   6.781 129.047  0.00  0.00    +0.000 A 
ATOM     21  C   UNL     1     -12.851   6.741 128.033  0.00  0.00    +0.000 A 
ATOM     22  C   UNL     1     -13.725   7.740 127.710  0.00  0.00    +0.000 A 
ATOM     23  C   UNL     1     -13.416   8.851 128.451  0.00  0.00    +0.000 A 
ATOM     24  C   UNL     1     -12.276   8.791 129.650  0.00  0.00    +0.000 A 
ATOM     25  C   UNL     1     -11.477   7.507 130.215  0.00  0.00    +0.000 A 
ENDBRANCH  12  15
ENDBRANCH   6   7
BRANCH   1  27
ATOM     26  C   UNL     1      -7.935  -0.786 132.226  0.00  0.00    +0.000 C 
ATOM     27  O   UNL     1      -6.569  -0.972 131.994  0.00  0.00    +0.000 OA
ENDBRANCH   1  27
BRANCH   3  28
ATOM     28  O   UNL     1      -5.461  -0.228 127.401  0.00  0.00    +0.000 OA
BRANCH  28  29
ATOM     29  C   UNL     1      -6.472  -1.141 126.744  0.00  0.00    +0.000 C 
ATOM     30  C   UNL     1      -6.076  -1.559 125.311  0.00  0.00    +0.000 C 
ATOM     31  C   UNL     1      -6.668  -0.658 124.173  0.00  0.00    +0.000 C 
ATOM     32  N   UNL     1      -8.044  -0.145 124.317  0.00  0.00    +0.000 NA
ATOM     33  C   UNL     1      -8.572   0.006 125.670  0.00  0.00    +0.000 C 
ATOM     34  C   UNL     1      -8.028  -0.929 126.727  0.00  0.00    +0.000 C 
BRANCH  32  35
ATOM     35  C   UNL     1      -8.290   1.115 123.523  0.00  0.00    +0.000 C 
BRANCH  35  36
ATOM     36  C   UNL     1      -7.315   2.334 123.591  0.00  0.00    +0.000 A 
ATOM     37  C   UNL     1      -6.710   2.914 124.728  0.00  0.00    +0.000 A 
ATOM     38  C   UNL     1      -5.551   3.683 124.750  0.00  0.00    +0.000 A 
ATOM     39  C   UNL     1      -4.736   3.784 126.020  0.00  0.00    +0.000 C 
ATOM     40  C   UNL     1      -5.227   4.265 123.559  0.00  0.00    +0.000 A 
ATOM     41  N   UNL     1      -5.945   3.971 122.404  0.00  0.00    +0.000 N 
ATOM     42  O   UNL     1      -5.741   4.645 121.348  0.00  0.00    +0.000 OA
ATOM     43  C   UNL     1      -6.909   2.948 122.414  0.00  0.00    +0.000 A 
ENDBRANCH  35  36
ENDBRANCH  32  35
ENDBRANCH  28  29
ENDBRANCH   3  28
TORSDOF 7
ENDMDL
