MODEL 1
REMARK VINA RESULT:      -8.6      0.000      0.000
REMARK  Name = CHEMBL375096
REMARK  21 active torsions:
REMARK  status: ('A' for Active; 'I' for Inactive)
REMARK    1  A    between atoms: N_1  and  C_2
REMARK    2  A    between atoms: C_2  and  C_3
REMARK    3  A    between atoms: C_3  and  C_4
REMARK    4  A    between atoms: C_4  and  C_5
REMARK    5  A    between atoms: C_9  and  C_10
REMARK    6  A    between atoms: C_10  and  C_11
REMARK    7  A    between atoms: C_20  and  C_21
REMARK    8  A    between atoms: C_21  and  C_22
REMARK    9  A    between atoms: C_25  and  O_26
REMARK   10  A    between atoms: C_37  and  C_38
REMARK   11  A    between atoms: C_44  and  C_45
REMARK   12  A    between atoms: N_47  and  C_48
REMARK   13  A    between atoms: C_48  and  C_49
REMARK   14  A    between atoms: C_48  and  C_56
REMARK   15  A    between atoms: C_49  and  C_50
REMARK   16  A    between atoms: C_50  and  C_51
REMARK   17  A    between atoms: C_51  and  N_52
REMARK   18  A    between atoms: N_58  and  C_59
REMARK   19  A    between atoms: C_59  and  C_60
REMARK   20  A    between atoms: C_66  and  C_67
REMARK   21  A    between atoms: C_67  and  C_68
REMARK                            x       y       z     vdW  Elec       q    Type
REMARK                         _______ _______ _______ _____ _____    ______ ____
ROOT
ATOM      1  C   UNL     1      -6.975   3.594 125.574  0.00  0.00    +0.000 C 
ATOM      2  N   UNL     1      -8.090   2.541 126.134  0.00  0.00    +0.000 N 
ATOM      3  C   UNL     1      -8.344   1.417 126.948  0.00  0.00    +0.000 C 
ATOM      4  O   UNL     1      -9.349   1.431 127.677  0.00  0.00    +0.000 OA
ATOM      5  C   UNL     1      -7.524   0.071 126.810  0.00  0.00    +0.000 C 
ATOM      6  N   UNL     1      -6.456  -0.219 127.719  0.00  0.00    +0.000 N 
ATOM      7  C   UNL     1      -6.444  -0.584 129.012  0.00  0.00    +0.000 C 
ATOM      8  O   UNL     1      -5.335  -1.035 129.333  0.00  0.00    +0.000 OA
ATOM      9  C   UNL     1      -7.769  -0.495 129.990  0.00  0.00    +0.000 C 
ATOM     10  N   UNL     1      -7.676  -1.787 130.591  0.00  0.00    +0.000 N 
ATOM     11  C   UNL     1      -6.746  -2.129 131.524  0.00  0.00    +0.000 C 
ATOM     12  O   UNL     1      -6.814  -3.289 131.944  0.00  0.00    +0.000 OA
ATOM     13  C   UNL     1      -5.644  -1.158 132.078  0.00  0.00    +0.000 C 
ATOM     14  C   UNL     1      -5.435   0.311 131.686  0.00  0.00    +0.000 C 
ATOM     15  S   UNL     1      -4.001   1.280 132.229  0.00  0.00    +0.000 S 
ATOM     16  S   UNL     1      -4.839   3.162 131.894  0.00  0.00    +0.000 S 
ATOM     17  C   UNL     1      -3.498   4.274 131.366  0.00  0.00    +0.000 C 
ATOM     18  C   UNL     1      -3.696   5.630 130.662  0.00  0.00    +0.000 C 
ATOM     19  N   UNL     1      -3.433   5.548 129.188  0.00  0.00    +0.000 N 
ATOM     20  C   UNL     1      -4.086   4.853 128.229  0.00  0.00    +0.000 C 
ATOM     21  O   UNL     1      -3.753   4.781 127.053  0.00  0.00    +0.000 OA
ATOM     22  C   UNL     1      -5.301   4.173 128.658  0.00  0.00    +0.000 C 
ATOM     23  N   UNL     1      -6.516   4.933 127.644  0.00  0.00    +0.000 N 
ATOM     24  C   UNL     1      -7.330   4.704 126.520  0.00  0.00    +0.000 C 
ATOM     25  O   UNL     1      -8.501   5.102 126.599  0.00  0.00    +0.000 OA
ATOM     26  H   UNL     1      -8.946   3.092 126.295  0.00  0.00    +0.000 HD
ATOM     27  H   UNL     1      -5.530  -0.336 127.293  0.00  0.00    +0.000 HD
ATOM     28  H   UNL     1      -8.300  -2.514 130.261  0.00  0.00    +0.000 HD
ATOM     29  H   UNL     1      -2.691   6.135 128.816  0.00  0.00    +0.000 HD
ATOM     30  H   UNL     1      -7.357   5.246 128.126  0.00  0.00    +0.000 HD
ENDROOT
BRANCH  18  31
ATOM     31  C   UNL     1      -2.749   6.753 131.221  0.00  0.00    +0.000 C 
ATOM     32  O   UNL     1      -2.231   7.531 130.413  0.00  0.00    +0.000 OA
ATOM     33  N   UNL     1      -2.721   6.989 132.591  0.00  0.00    +0.000 N 
ATOM     34  C   UNL     1      -2.545   6.046 133.684  0.00  0.00    +0.000 C 
ATOM     35  C   UNL     1      -3.285   6.723 134.798  0.00  0.00    +0.000 C 
ATOM     36  C   UNL     1      -2.797   8.149 134.671  0.00  0.00    +0.000 C 
ATOM     37  C   UNL     1      -2.511   8.346 133.165  0.00  0.00    +0.000 C 
BRANCH  37  38
ATOM     38  C   UNL     1      -1.048   8.819 133.120  0.00  0.00    +0.000 C 
ATOM     39  O   UNL     1      -0.137   8.002 132.978  0.00  0.00    +0.000 OA
ATOM     40  N   UNL     1      -0.809  10.169 133.355  0.00  0.00    +0.000 N 
ATOM     41  H   UNL     1      -1.513  10.757 133.790  0.00  0.00    +0.000 HD
BRANCH  40  42
ATOM     42  C   UNL     1       0.522  10.787 133.155  0.00  0.00    +0.000 C 
BRANCH  42  43
ATOM     43  C   UNL     1       1.168  11.183 134.529  0.00  0.00    +0.000 C 
ATOM     44  O   UNL     1       1.823  12.215 134.663  0.00  0.00    +0.000 OA
ATOM     45  N   UNL     1       0.951  10.306 135.579  0.00  0.00    +0.000 N 
ATOM     46  H   UNL     1       0.390   9.488 135.421  0.00  0.00    +0.000 HD
BRANCH  45  47
ATOM     47  C   UNL     1       1.511  10.526 136.916  0.00  0.00    +0.000 C 
BRANCH  47  48
ATOM     48  C   UNL     1       0.911  11.690 137.727  0.00  0.00    +0.000 C 
ATOM     49  N   UNL     1       1.607  12.865 137.783  0.00  0.00    +0.000 N 
ATOM     50  O   UNL     1      -0.163  11.602 138.318  0.00  0.00    +0.000 OA
ATOM     51  H   UNL     1       2.493  13.049 137.349  0.00  0.00    +0.000 HD
ATOM     52  H   UNL     1       1.198  13.616 138.326  0.00  0.00    +0.000 HD
ENDBRANCH  47  48
ENDBRANCH  45  47
ENDBRANCH  42  43
BRANCH  42  53
ATOM     53  C   UNL     1       0.406  12.046 132.267  0.00  0.00    +0.000 C 
BRANCH  53  54
ATOM     54  C   UNL     1      -1.044  12.427 131.987  0.00  0.00    +0.000 C 
BRANCH  54  55
ATOM     55  C   UNL     1      -1.575  13.559 132.815  0.00  0.00    +0.000 C 
BRANCH  55  56
ATOM     56  N   UNL     1      -2.191  12.985 134.011  0.00  0.00    +0.000 NA
ATOM     57  C   UNL     1      -1.663  13.309 135.132  0.00  0.00    +0.000 C 
ATOM     58  N   UNL     1      -0.619  14.137 135.301  0.00  0.00    +0.000 N 
ATOM     59  N   UNL     1      -2.153  12.815 136.279  0.00  0.00    +0.000 N 
ATOM     60  H   UNL     1      -0.183  14.542 134.486  0.00  0.00    +0.000 HD
ATOM     61  H   UNL     1      -0.249  14.387 136.199  0.00  0.00    +0.000 HD
ATOM     62  H   UNL     1      -2.933  12.174 136.210  0.00  0.00    +0.000 HD
ATOM     63  H   UNL     1      -1.802  13.047 137.192  0.00  0.00    +0.000 HD
ENDBRANCH  55  56
ENDBRANCH  54  55
ENDBRANCH  53  54
ENDBRANCH  42  53
ENDBRANCH  40  42
ENDBRANCH  37  38
ENDBRANCH  18  31
BRANCH   9  64
ATOM     64  C   UNL     1      -8.305   0.503 131.146  0.00  0.00    +0.000 C 
BRANCH  64  65
ATOM     65  C   UNL     1      -8.795   1.863 130.795  0.00  0.00    +0.000 A 
ATOM     66  C   UNL     1     -10.094   1.993 130.989  0.00  0.00    +0.000 A 
ATOM     67  C   UNL     1     -10.706   3.180 130.810  0.00  0.00    +0.000 A 
ATOM     68  C   UNL     1     -10.191   4.289 130.178  0.00  0.00    +0.000 A 
ATOM     69  C   UNL     1      -8.872   4.178 129.886  0.00  0.00    +0.000 A 
ATOM     70  C   UNL     1      -8.168   2.990 130.251  0.00  0.00    +0.000 A 
BRANCH  68  71
ATOM     71  O   UNL     1     -10.876   5.375 129.688  0.00  0.00    +0.000 OA
ATOM     72  H   UNL     1     -10.501   6.282 129.650  0.00  0.00    +0.000 HD
ENDBRANCH  68  71
ENDBRANCH  64  65
ENDBRANCH   9  64
BRANCH   5  73
ATOM     73  C   UNL     1      -8.330  -1.204 126.746  0.00  0.00    +0.000 C 
BRANCH  73  74
ATOM     74  C   UNL     1      -8.365  -1.761 125.377  0.00  0.00    +0.000 A 
ATOM     75  C   UNL     1      -7.639  -1.193 124.322  0.00  0.00    +0.000 A 
ATOM     76  C   UNL     1      -7.919  -1.463 123.015  0.00  0.00    +0.000 A 
ATOM     77  C   UNL     1      -8.674  -2.584 122.775  0.00  0.00    +0.000 A 
ATOM     78  C   UNL     1      -9.302  -3.269 123.825  0.00  0.00    +0.000 A 
ATOM     79  C   UNL     1      -9.207  -2.820 125.129  0.00  0.00    +0.000 A 
ENDBRANCH  73  74
ENDBRANCH   5  73
BRANCH   1  80
ATOM     80  C   UNL     1      -5.750   3.244 124.684  0.00  0.00    +0.000 C 
BRANCH  80  81
ATOM     81  C   UNL     1      -6.094   4.105 123.556  0.00  0.00    +0.000 C 
BRANCH  81  82
ATOM     82  C   UNL     1      -6.397   3.293 122.355  0.00  0.00    +0.000 C 
BRANCH  82  83
ATOM     83  N   UNL     1      -7.793   3.606 122.166  0.00  0.00    +0.000 NA
ATOM     84  H   UNL     1      -8.082   4.288 122.851  0.00  0.00    +0.000 HD
ATOM     85  H   UNL     1      -8.342   2.756 122.305  0.00  0.00    +0.000 HD
ENDBRANCH  82  83
ENDBRANCH  81  82
ENDBRANCH  80  81
ENDBRANCH   1  80
BRANCH  22  86
ATOM     86  C   UNL     1      -4.803   2.576 128.883  0.00  0.00    +0.000 C 
BRANCH  86  87
ATOM     87  C   UNL     1      -4.105   1.995 127.745  0.00  0.00    +0.000 C 
ATOM     88  N   UNL     1      -2.877   2.245 128.035  0.00  0.00    +0.000 N 
ATOM     89  O   UNL     1      -4.374   1.629 126.587  0.00  0.00    +0.000 OA
ATOM     90  H   UNL     1      -2.769   2.246 129.020  0.00  0.00    +0.000 HD
ATOM     91  H   UNL     1      -2.133   1.946 127.443  0.00  0.00    +0.000 HD
ENDBRANCH  86  87
ENDBRANCH  22  86
TORSDOF 21
ENDMDL
MODEL 2
REMARK VINA RESULT:      -8.3      4.412     12.672
REMARK  Name = CHEMBL375096
REMARK  21 active torsions:
REMARK  status: ('A' for Active; 'I' for Inactive)
REMARK    1  A    between atoms: N_1  and  C_2
REMARK    2  A    between atoms: C_2  and  C_3
REMARK    3  A    between atoms: C_3  and  C_4
REMARK    4  A    between atoms: C_4  and  C_5
REMARK    5  A    between atoms: C_9  and  C_10
REMARK    6  A    between atoms: C_10  and  C_11
REMARK    7  A    between atoms: C_20  and  C_21
REMARK    8  A    between atoms: C_21  and  C_22
REMARK    9  A    between atoms: C_25  and  O_26
REMARK   10  A    between atoms: C_37  and  C_38
REMARK   11  A    between atoms: C_44  and  C_45
REMARK   12  A    between atoms: N_47  and  C_48
REMARK   13  A    between atoms: C_48  and  C_49
REMARK   14  A    between atoms: C_48  and  C_56
REMARK   15  A    between atoms: C_49  and  C_50
REMARK   16  A    between atoms: C_50  and  C_51
REMARK   17  A    between atoms: C_51  and  N_52
REMARK   18  A    between atoms: N_58  and  C_59
REMARK   19  A    between atoms: C_59  and  C_60
REMARK   20  A    between atoms: C_66  and  C_67
REMARK   21  A    between atoms: C_67  and  C_68
REMARK                            x       y       z     vdW  Elec       q    Type
REMARK                         _______ _______ _______ _____ _____    ______ ____
ROOT
ATOM      1  C   UNL     1      -4.317   6.248 130.660  0.00  0.00    +0.000 C 
ATOM      2  N   UNL     1      -3.385   5.516 131.782  0.00  0.00    +0.000 N 
ATOM      3  C   UNL     1      -3.320   4.559 132.817  0.00  0.00    +0.000 C 
ATOM      4  O   UNL     1      -2.341   3.797 132.855  0.00  0.00    +0.000 OA
ATOM      5  C   UNL     1      -4.328   4.563 134.036  0.00  0.00    +0.000 C 
ATOM      6  N   UNL     1      -5.448   3.669 134.049  0.00  0.00    +0.000 N 
ATOM      7  C   UNL     1      -5.543   2.343 134.238  0.00  0.00    +0.000 C 
ATOM      8  O   UNL     1      -6.714   2.015 134.479  0.00  0.00    +0.000 OA
ATOM      9  C   UNL     1      -4.243   1.330 134.217  0.00  0.00    +0.000 C 
ATOM     10  N   UNL     1      -4.540   0.578 135.394  0.00  0.00    +0.000 N 
ATOM     11  C   UNL     1      -5.532  -0.351 135.474  0.00  0.00    +0.000 C 
ATOM     12  O   UNL     1      -5.647  -0.914 136.567  0.00  0.00    +0.000 OA
ATOM     13  C   UNL     1      -6.489  -0.735 134.290  0.00  0.00    +0.000 C 
ATOM     14  C   UNL     1      -6.468  -0.155 132.869  0.00  0.00    +0.000 C 
ATOM     15  S   UNL     1      -7.753  -0.514 131.640  0.00  0.00    +0.000 S 
ATOM     16  S   UNL     1      -6.636   0.017 129.960  0.00  0.00    +0.000 S 
ATOM     17  C   UNL     1      -7.784   0.735 128.742  0.00  0.00    +0.000 C 
ATOM     18  C   UNL     1      -7.370   1.593 127.531  0.00  0.00    +0.000 C 
ATOM     19  N   UNL     1      -7.610   3.054 127.763  0.00  0.00    +0.000 N 
ATOM     20  C   UNL     1      -7.046   3.891 128.664  0.00  0.00    +0.000 C 
ATOM     21  O   UNL     1      -7.359   5.063 128.837  0.00  0.00    +0.000 OA
ATOM     22  C   UNL     1      -5.956   3.332 129.452  0.00  0.00    +0.000 C 
ATOM     23  N   UNL     1      -4.619   4.381 129.013  0.00  0.00    +0.000 N 
ATOM     24  C   UNL     1      -3.823   5.433 129.500  0.00  0.00    +0.000 C 
ATOM     25  O   UNL     1      -2.607   5.356 129.269  0.00  0.00    +0.000 OA
ATOM     26  H   UNL     1      -2.460   5.389 131.345  0.00  0.00    +0.000 HD
ATOM     27  H   UNL     1      -6.371   4.116 134.084  0.00  0.00    +0.000 HD
ATOM     28  H   UNL     1      -4.024   0.788 136.240  0.00  0.00    +0.000 HD
ATOM     29  H   UNL     1      -8.248   3.527 127.128  0.00  0.00    +0.000 HD
ATOM     30  H   UNL     1      -3.752   3.907 128.765  0.00  0.00    +0.000 HD
ENDROOT
BRANCH  18  31
ATOM     31  C   UNL     1      -8.152   1.217 126.220  0.00  0.00    +0.000 C 
ATOM     32  O   UNL     1      -9.175   0.532 126.330  0.00  0.00    +0.000 OA
ATOM     33  N   UNL     1      -7.820   1.857 125.031  0.00  0.00    +0.000 N 
ATOM     34  C   UNL     1      -6.514   2.036 124.416  0.00  0.00    +0.000 C 
ATOM     35  C   UNL     1      -6.708   3.308 123.646  0.00  0.00    +0.000 C 
ATOM     36  C   UNL     1      -8.054   3.073 122.995  0.00  0.00    +0.000 C 
ATOM     37  C   UNL     1      -8.829   2.172 123.984  0.00  0.00    +0.000 C 
BRANCH  37  38
ATOM     38  C   UNL     1      -9.244   0.957 123.136  0.00  0.00    +0.000 C 
ATOM     39  O   UNL     1      -9.915   1.114 122.115  0.00  0.00    +0.000 OA
ATOM     40  N   UNL     1      -8.925  -0.303 123.632  0.00  0.00    +0.000 N 
ATOM     41  H   UNL     1      -8.676  -0.433 124.608  0.00  0.00    +0.000 HD
BRANCH  40  42
ATOM     42  C   UNL     1      -9.095  -1.538 122.833  0.00  0.00    +0.000 C 
BRANCH  42  43
ATOM     43  C   UNL     1      -9.499  -2.746 123.749  0.00  0.00    +0.000 C 
ATOM     44  O   UNL     1     -10.081  -3.733 123.300  0.00  0.00    +0.000 OA
ATOM     45  N   UNL     1      -9.158  -2.638 125.087  0.00  0.00    +0.000 N 
ATOM     46  H   UNL     1      -8.663  -1.820 125.397  0.00  0.00    +0.000 HD
BRANCH  45  47
ATOM     47  C   UNL     1      -9.491  -3.673 126.070  0.00  0.00    +0.000 C 
BRANCH  47  48
ATOM     48  C   UNL     1      -8.845  -3.529 127.462  0.00  0.00    +0.000 C 
ATOM     49  N   UNL     1      -7.726  -2.754 127.579  0.00  0.00    +0.000 N 
ATOM     50  O   UNL     1      -9.299  -4.079 128.463  0.00  0.00    +0.000 OA
ATOM     51  H   UNL     1      -7.264  -2.266 126.833  0.00  0.00    +0.000 HD
ATOM     52  H   UNL     1      -7.314  -2.677 128.501  0.00  0.00    +0.000 HD
ENDBRANCH  47  48
ENDBRANCH  45  47
ENDBRANCH  42  43
BRANCH  42  53
ATOM     53  C   UNL     1      -7.787  -1.883 122.087  0.00  0.00    +0.000 C 
BRANCH  53  54
ATOM     54  C   UNL     1      -6.564  -1.239 122.730  0.00  0.00    +0.000 C 
BRANCH  54  55
ATOM     55  C   UNL     1      -5.841  -2.100 123.723  0.00  0.00    +0.000 C 
BRANCH  55  56
ATOM     56  N   UNL     1      -5.312  -3.259 123.004  0.00  0.00    +0.000 NA
ATOM     57  C   UNL     1      -4.688  -4.127 123.710  0.00  0.00    +0.000 C 
ATOM     58  N   UNL     1      -4.500  -4.074 125.039  0.00  0.00    +0.000 N 
ATOM     59  N   UNL     1      -4.154  -5.213 123.131  0.00  0.00    +0.000 N 
ATOM     60  H   UNL     1      -4.860  -3.283 125.550  0.00  0.00    +0.000 HD
ATOM     61  H   UNL     1      -4.028  -4.789 125.561  0.00  0.00    +0.000 HD
ATOM     62  H   UNL     1      -4.253  -5.297 122.126  0.00  0.00    +0.000 HD
ATOM     63  H   UNL     1      -3.674  -5.943 123.628  0.00  0.00    +0.000 HD
ENDBRANCH  55  56
ENDBRANCH  54  55
ENDBRANCH  53  54
ENDBRANCH  42  53
ENDBRANCH  40  42
ENDBRANCH  37  38
ENDBRANCH  18  31
BRANCH   9  64
ATOM     64  C   UNL     1      -3.590   0.285 133.167  0.00  0.00    +0.000 C 
BRANCH  64  65
ATOM     65  C   UNL     1      -2.812  -0.884 133.656  0.00  0.00    +0.000 A 
ATOM     66  C   UNL     1      -1.538  -0.595 133.843  0.00  0.00    +0.000 A 
ATOM     67  C   UNL     1      -0.691  -1.503 134.367  0.00  0.00    +0.000 A 
ATOM     68  C   UNL     1      -0.914  -2.852 134.518  0.00  0.00    +0.000 A 
ATOM     69  C   UNL     1      -2.196  -3.217 134.263  0.00  0.00    +0.000 A 
ATOM     70  C   UNL     1      -3.150  -2.221 133.892  0.00  0.00    +0.000 A 
BRANCH  68  71
ATOM     71  O   UNL     1       0.013  -3.843 134.728  0.00  0.00    +0.000 OA
ATOM     72  H   UNL     1      -0.210  -4.799 134.765  0.00  0.00    +0.000 HD
ENDBRANCH  68  71
ENDBRANCH  64  65
ENDBRANCH   9  64
BRANCH   5  73
ATOM     73  C   UNL     1      -3.720   4.435 135.412  0.00  0.00    +0.000 C 
BRANCH  73  74
ATOM     74  C   UNL     1      -4.436   5.263 136.406  0.00  0.00    +0.000 A 
ATOM     75  C   UNL     1      -4.975   4.720 137.580  0.00  0.00    +0.000 A 
ATOM     76  C   UNL     1      -5.917   5.373 138.319  0.00  0.00    +0.000 A 
ATOM     77  C   UNL     1      -6.041   6.721 138.092  0.00  0.00    +0.000 A 
ATOM     78  C   UNL     1      -5.397   7.331 137.005  0.00  0.00    +0.000 A 
ATOM     79  C   UNL     1      -4.642   6.591 136.114  0.00  0.00    +0.000 A 
ENDBRANCH  73  74
ENDBRANCH   5  73
BRANCH   1  80
ATOM     80  C   UNL     1      -5.561   7.138 130.940  0.00  0.00    +0.000 C 
BRANCH  80  81
ATOM     81  C   UNL     1      -6.210   6.244 131.896  0.00  0.00    +0.000 C 
BRANCH  81  82
ATOM     82  C   UNL     1      -7.669   6.501 131.942  0.00  0.00    +0.000 C 
BRANCH  82  83
ATOM     83  N   UNL     1      -7.860   7.174 130.681  0.00  0.00    +0.000 NA
ATOM     84  H   UNL     1      -7.180   6.842 130.013  0.00  0.00    +0.000 HD
ATOM     85  H   UNL     1      -7.717   8.176 130.817  0.00  0.00    +0.000 HD
ENDBRANCH  82  83
ENDBRANCH  81  82
ENDBRANCH  80  81
ENDBRANCH   1  80
BRANCH  22  86
ATOM     86  C   UNL     1      -6.691   2.931 130.916  0.00  0.00    +0.000 C 
BRANCH  86  87
ATOM     87  C   UNL     1      -8.121   3.204 130.970  0.00  0.00    +0.000 C 
ATOM     88  N   UNL     1      -8.334   3.245 132.237  0.00  0.00    +0.000 N 
ATOM     89  O   UNL     1      -9.103   3.127 130.209  0.00  0.00    +0.000 OA
ATOM     90  H   UNL     1      -7.520   3.582 132.692  0.00  0.00    +0.000 HD
ATOM     91  H   UNL     1      -9.239   3.439 132.605  0.00  0.00    +0.000 HD
ENDBRANCH  86  87
ENDBRANCH  22  86
TORSDOF 21
ENDMDL
MODEL 3
REMARK VINA RESULT:      -8.2      4.799     11.407
REMARK  Name = CHEMBL375096
REMARK  21 active torsions:
REMARK  status: ('A' for Active; 'I' for Inactive)
REMARK    1  A    between atoms: N_1  and  C_2
REMARK    2  A    between atoms: C_2  and  C_3
REMARK    3  A    between atoms: C_3  and  C_4
REMARK    4  A    between atoms: C_4  and  C_5
REMARK    5  A    between atoms: C_9  and  C_10
REMARK    6  A    between atoms: C_10  and  C_11
REMARK    7  A    between atoms: C_20  and  C_21
REMARK    8  A    between atoms: C_21  and  C_22
REMARK    9  A    between atoms: C_25  and  O_26
REMARK   10  A    between atoms: C_37  and  C_38
REMARK   11  A    between atoms: C_44  and  C_45
REMARK   12  A    between atoms: N_47  and  C_48
REMARK   13  A    between atoms: C_48  and  C_49
REMARK   14  A    between atoms: C_48  and  C_56
REMARK   15  A    between atoms: C_49  and  C_50
REMARK   16  A    between atoms: C_50  and  C_51
REMARK   17  A    between atoms: C_51  and  N_52
REMARK   18  A    between atoms: N_58  and  C_59
REMARK   19  A    between atoms: C_59  and  C_60
REMARK   20  A    between atoms: C_66  and  C_67
REMARK   21  A    between atoms: C_67  and  C_68
REMARK                            x       y       z     vdW  Elec       q    Type
REMARK                         _______ _______ _______ _____ _____    ______ ____
ROOT
ATOM      1  C   UNL     1      -6.840  -0.992 126.952  0.00  0.00    +0.000 C 
ATOM      2  N   UNL     1      -5.925   0.317 126.618  0.00  0.00    +0.000 N 
ATOM      3  C   UNL     1      -5.622   1.657 126.944  0.00  0.00    +0.000 C 
ATOM      4  O   UNL     1      -4.428   1.993 127.004  0.00  0.00    +0.000 OA
ATOM      5  C   UNL     1      -6.733   2.779 127.024  0.00  0.00    +0.000 C 
ATOM      6  N   UNL     1      -7.259   3.184 128.293  0.00  0.00    +0.000 N 
ATOM      7  C   UNL     1      -6.741   3.913 129.295  0.00  0.00    +0.000 C 
ATOM      8  O   UNL     1      -7.630   4.289 130.073  0.00  0.00    +0.000 OA
ATOM      9  C   UNL     1      -5.141   4.296 129.403  0.00  0.00    +0.000 C 
ATOM     10  N   UNL     1      -5.274   5.684 129.708  0.00  0.00    +0.000 N 
ATOM     11  C   UNL     1      -5.688   6.162 130.913  0.00  0.00    +0.000 C 
ATOM     12  O   UNL     1      -5.740   7.393 131.008  0.00  0.00    +0.000 OA
ATOM     13  C   UNL     1      -6.075   5.265 132.141  0.00  0.00    +0.000 C 
ATOM     14  C   UNL     1      -6.044   3.731 132.202  0.00  0.00    +0.000 C 
ATOM     15  S   UNL     1      -6.713   2.788 133.600  0.00  0.00    +0.000 S 
ATOM     16  S   UNL     1      -5.672   1.020 133.219  0.00  0.00    +0.000 S 
ATOM     17  C   UNL     1      -6.744  -0.366 133.712  0.00  0.00    +0.000 C 
ATOM     18  C   UNL     1      -6.556  -1.832 133.277  0.00  0.00    +0.000 C 
ATOM     19  N   UNL     1      -7.511  -2.229 132.192  0.00  0.00    +0.000 N 
ATOM     20  C   UNL     1      -7.620  -1.771 130.924  0.00  0.00    +0.000 C 
ATOM     21  O   UNL     1      -8.486  -2.099 130.122  0.00  0.00    +0.000 OA
ATOM     22  C   UNL     1      -6.583  -0.840 130.496  0.00  0.00    +0.000 C 
ATOM     23  N   UNL     1      -5.859  -1.701 129.148  0.00  0.00    +0.000 N 
ATOM     24  C   UNL     1      -5.788  -1.712 127.744  0.00  0.00    +0.000 C 
ATOM     25  O   UNL     1      -4.668  -1.910 127.252  0.00  0.00    +0.000 OA
ATOM     26  H   UNL     1      -4.986  -0.042 126.392  0.00  0.00    +0.000 HD
ATOM     27  H   UNL     1      -8.268   3.045 128.419  0.00  0.00    +0.000 HD
ATOM     28  H   UNL     1      -5.110   6.355 128.967  0.00  0.00    +0.000 HD
ATOM     29  H   UNL     1      -8.152  -2.992 132.393  0.00  0.00    +0.000 HD
ATOM     30  H   UNL     1      -4.841  -1.742 129.150  0.00  0.00    +0.000 HD
ENDROOT
BRANCH  18  31
ATOM     31  C   UNL     1      -6.771  -2.851 134.453  0.00  0.00    +0.000 C 
ATOM     32  O   UNL     1      -7.818  -2.772 135.106  0.00  0.00    +0.000 OA
ATOM     33  N   UNL     1      -5.916  -3.942 134.564  0.00  0.00    +0.000 N 
ATOM     34  C   UNL     1      -4.462  -3.976 134.561  0.00  0.00    +0.000 C 
ATOM     35  C   UNL     1      -4.186  -5.342 134.009  0.00  0.00    +0.000 C 
ATOM     36  C   UNL     1      -5.166  -6.193 134.785  0.00  0.00    +0.000 C 
ATOM     37  C   UNL     1      -6.369  -5.266 135.070  0.00  0.00    +0.000 C 
BRANCH  37  38
ATOM     38  C   UNL     1      -6.532  -5.323 136.599  0.00  0.00    +0.000 C 
ATOM     39  O   UNL     1      -5.682  -5.884 137.292  0.00  0.00    +0.000 OA
ATOM     40  N   UNL     1      -7.713  -4.818 137.132  0.00  0.00    +0.000 N 
ATOM     41  H   UNL     1      -8.529  -4.667 136.546  0.00  0.00    +0.000 HD
BRANCH  40  42
ATOM     42  C   UNL     1      -7.915  -4.639 138.588  0.00  0.00    +0.000 C 
BRANCH  42  43
ATOM     43  C   UNL     1      -9.441  -4.674 138.950  0.00  0.00    +0.000 C 
ATOM     44  O   UNL     1      -9.829  -4.826 140.108  0.00  0.00    +0.000 OA
ATOM     45  N   UNL     1     -10.322  -4.517 137.893  0.00  0.00    +0.000 N 
ATOM     46  H   UNL     1      -9.952  -4.373 136.970  0.00  0.00    +0.000 HD
BRANCH  45  47
ATOM     47  C   UNL     1     -11.777  -4.552 138.069  0.00  0.00    +0.000 C 
BRANCH  47  48
ATOM     48  C   UNL     1     -12.459  -3.214 138.412  0.00  0.00    +0.000 C 
ATOM     49  N   UNL     1     -12.056  -2.092 137.743  0.00  0.00    +0.000 N 
ATOM     50  O   UNL     1     -13.347  -3.120 139.256  0.00  0.00    +0.000 OA
ATOM     51  H   UNL     1     -11.337  -2.047 137.043  0.00  0.00    +0.000 HD
ATOM     52  H   UNL     1     -12.512  -1.222 137.989  0.00  0.00    +0.000 HD
ENDBRANCH  47  48
ENDBRANCH  45  47
ENDBRANCH  42  43
BRANCH  42  53
ATOM     53  C   UNL     1      -7.313  -3.295 139.056  0.00  0.00    +0.000 C 
BRANCH  53  54
ATOM     54  C   UNL     1      -8.152  -2.099 138.618  0.00  0.00    +0.000 C 
BRANCH  54  55
ATOM     55  C   UNL     1      -8.438  -1.095 139.695  0.00  0.00    +0.000 C 
BRANCH  55  56
ATOM     56  N   UNL     1      -9.867  -1.161 139.996  0.00  0.00    +0.000 NA
ATOM     57  C   UNL     1     -10.189  -1.734 141.096  0.00  0.00    +0.000 C 
ATOM     58  N   UNL     1      -9.335  -2.254 141.993  0.00  0.00    +0.000 N 
ATOM     59  N   UNL     1     -11.479  -1.855 141.445  0.00  0.00    +0.000 N 
ATOM     60  H   UNL     1      -8.345  -2.215 141.801  0.00  0.00    +0.000 HD
ATOM     61  H   UNL     1      -9.625  -2.672 142.857  0.00  0.00    +0.000 HD
ATOM     62  H   UNL     1     -12.168  -1.492 140.797  0.00  0.00    +0.000 HD
ATOM     63  H   UNL     1     -11.798  -2.271 142.302  0.00  0.00    +0.000 HD
ENDBRANCH  55  56
ENDBRANCH  54  55
ENDBRANCH  53  54
ENDBRANCH  42  53
ENDBRANCH  40  42
ENDBRANCH  37  38
ENDBRANCH  18  31
BRANCH   9  64
ATOM     64  C   UNL     1      -3.865   3.768 130.248  0.00  0.00    +0.000 C 
BRANCH  64  65
ATOM     65  C   UNL     1      -2.799   4.715 130.670  0.00  0.00    +0.000 A 
ATOM     66  C   UNL     1      -2.389   4.491 131.903  0.00  0.00    +0.000 A 
ATOM     67  C   UNL     1      -1.366   5.193 132.432  0.00  0.00    +0.000 A 
ATOM     68  C   UNL     1      -0.811   6.349 131.933  0.00  0.00    +0.000 A 
ATOM     69  C   UNL     1      -1.257   6.668 130.693  0.00  0.00    +0.000 A 
ATOM     70  C   UNL     1      -2.203   5.817 130.044  0.00  0.00    +0.000 A 
BRANCH  68  71
ATOM     71  O   UNL     1      -0.018   7.256 132.592  0.00  0.00    +0.000 OA
ATOM     72  H   UNL     1       0.343   7.110 133.494  0.00  0.00    +0.000 HD
ENDBRANCH  68  71
ENDBRANCH  64  65
ENDBRANCH   9  64
BRANCH   5  73
ATOM     73  C   UNL     1      -6.436   4.072 126.302  0.00  0.00    +0.000 C 
BRANCH  73  74
ATOM     74  C   UNL     1      -6.630   3.940 124.842  0.00  0.00    +0.000 A 
ATOM     75  C   UNL     1      -7.811   3.429 124.289  0.00  0.00    +0.000 A 
ATOM     76  C   UNL     1      -7.880   2.980 123.003  0.00  0.00    +0.000 A 
ATOM     77  C   UNL     1      -6.875   3.389 122.162  0.00  0.00    +0.000 A 
ATOM     78  C   UNL     1      -5.736   4.037 122.663  0.00  0.00    +0.000 A 
ATOM     79  C   UNL     1      -5.575   4.257 124.018  0.00  0.00    +0.000 A 
ENDBRANCH  73  74
ENDBRANCH   5  73
BRANCH   1  80
ATOM     80  C   UNL     1      -8.386  -1.088 126.816  0.00  0.00    +0.000 C 
BRANCH  80  81
ATOM     81  C   UNL     1      -8.462  -2.537 126.651  0.00  0.00    +0.000 C 
BRANCH  81  82
ATOM     82  C   UNL     1      -9.671  -2.910 125.879  0.00  0.00    +0.000 C 
BRANCH  82  83
ATOM     83  N   UNL     1      -9.407  -2.238 124.630  0.00  0.00    +0.000 NA
ATOM     84  H   UNL     1      -9.798  -1.307 124.657  0.00  0.00    +0.000 HD
ATOM     85  H   UNL     1      -9.860  -2.756 123.876  0.00  0.00    +0.000 HD
ENDBRANCH  82  83
ENDBRANCH  81  82
ENDBRANCH  80  81
ENDBRANCH   1  80
BRANCH  22  86
ATOM     86  C   UNL     1      -7.318   0.670 130.655  0.00  0.00    +0.000 C 
BRANCH  86  87
ATOM     87  C   UNL     1      -8.721   0.622 131.044  0.00  0.00    +0.000 C 
ATOM     88  N   UNL     1      -9.203   1.634 130.413  0.00  0.00    +0.000 N 
ATOM     89  O   UNL     1      -9.413   0.100 131.936  0.00  0.00    +0.000 OA
ATOM     90  H   UNL     1      -8.695   1.765 129.573  0.00  0.00    +0.000 HD
ATOM     91  H   UNL     1     -10.173   1.861 130.461  0.00  0.00    +0.000 HD
ENDBRANCH  86  87
ENDBRANCH  22  86
TORSDOF 21
ENDMDL
MODEL 4
REMARK VINA RESULT:      -8.2      4.739      8.001
REMARK  Name = CHEMBL375096
REMARK  21 active torsions:
REMARK  status: ('A' for Active; 'I' for Inactive)
REMARK    1  A    between atoms: N_1  and  C_2
REMARK    2  A    between atoms: C_2  and  C_3
REMARK    3  A    between atoms: C_3  and  C_4
REMARK    4  A    between atoms: C_4  and  C_5
REMARK    5  A    between atoms: C_9  and  C_10
REMARK    6  A    between atoms: C_10  and  C_11
REMARK    7  A    between atoms: C_20  and  C_21
REMARK    8  A    between atoms: C_21  and  C_22
REMARK    9  A    between atoms: C_25  and  O_26
REMARK   10  A    between atoms: C_37  and  C_38
REMARK   11  A    between atoms: C_44  and  C_45
REMARK   12  A    between atoms: N_47  and  C_48
REMARK   13  A    between atoms: C_48  and  C_49
REMARK   14  A    between atoms: C_48  and  C_56
REMARK   15  A    between atoms: C_49  and  C_50
REMARK   16  A    between atoms: C_50  and  C_51
REMARK   17  A    between atoms: C_51  and  N_52
REMARK   18  A    between atoms: N_58  and  C_59
REMARK   19  A    between atoms: C_59  and  C_60
REMARK   20  A    between atoms: C_66  and  C_67
REMARK   21  A    between atoms: C_67  and  C_68
REMARK                            x       y       z     vdW  Elec       q    Type
REMARK                         _______ _______ _______ _____ _____    ______ ____
ROOT
ATOM      1  C   UNL     1      -5.635  -1.618 130.739  0.00  0.00    +0.000 C 
ATOM      2  N   UNL     1      -5.550  -1.028 129.220  0.00  0.00    +0.000 N 
ATOM      3  C   UNL     1      -6.036  -0.077 128.297  0.00  0.00    +0.000 C 
ATOM      4  O   UNL     1      -5.217   0.518 127.577  0.00  0.00    +0.000 OA
ATOM      5  C   UNL     1      -7.579   0.102 128.000  0.00  0.00    +0.000 C 
ATOM      6  N   UNL     1      -8.314   1.164 128.620  0.00  0.00    +0.000 N 
ATOM      7  C   UNL     1      -8.329   2.492 128.414  0.00  0.00    +0.000 C 
ATOM      8  O   UNL     1      -9.325   3.008 128.942  0.00  0.00    +0.000 OA
ATOM      9  C   UNL     1      -7.197   3.282 127.513  0.00  0.00    +0.000 C 
ATOM     10  N   UNL     1      -8.074   4.091 126.730  0.00  0.00    +0.000 N 
ATOM     11  C   UNL     1      -8.750   5.169 127.213  0.00  0.00    +0.000 C 
ATOM     12  O   UNL     1      -9.463   5.761 126.395  0.00  0.00    +0.000 OA
ATOM     13  C   UNL     1      -8.664   5.682 128.694  0.00  0.00    +0.000 C 
ATOM     14  C   UNL     1      -7.816   5.083 129.824  0.00  0.00    +0.000 C 
ATOM     15  S   UNL     1      -7.953   5.625 131.550  0.00  0.00    +0.000 S 
ATOM     16  S   UNL     1      -6.103   4.893 132.181  0.00  0.00    +0.000 S 
ATOM     17  C   UNL     1      -6.288   4.351 133.909  0.00  0.00    +0.000 C 
ATOM     18  C   UNL     1      -5.314   3.417 134.654  0.00  0.00    +0.000 C 
ATOM     19  N   UNL     1      -5.840   2.018 134.761  0.00  0.00    +0.000 N 
ATOM     20  C   UNL     1      -6.103   1.115 133.788  0.00  0.00    +0.000 C 
ATOM     21  O   UNL     1      -6.608   0.012 133.960  0.00  0.00    +0.000 OA
ATOM     22  C   UNL     1      -5.708   1.504 132.440  0.00  0.00    +0.000 C 
ATOM     23  N   UNL     1      -4.557   0.246 132.025  0.00  0.00    +0.000 N 
ATOM     24  C   UNL     1      -4.408  -0.913 131.242  0.00  0.00    +0.000 C 
ATOM     25  O   UNL     1      -3.331  -1.036 130.641  0.00  0.00    +0.000 OA
ATOM     26  H   UNL     1      -4.554  -1.059 128.957  0.00  0.00    +0.000 HD
ATOM     27  H   UNL     1      -9.095   0.873 129.219  0.00  0.00    +0.000 HD
ATOM     28  H   UNL     1      -8.254   3.814 125.772  0.00  0.00    +0.000 HD
ATOM     29  H   UNL     1      -5.979   1.644 135.696  0.00  0.00    +0.000 HD
ATOM     30  H   UNL     1      -3.679   0.570 131.622  0.00  0.00    +0.000 HD
ENDROOT
BRANCH  18  31
ATOM     31  C   UNL     1      -5.015   3.893 136.122  0.00  0.00    +0.000 C 
ATOM     32  O   UNL     1      -5.286   3.121 137.049  0.00  0.00    +0.000 OA
ATOM     33  N   UNL     1      -4.244   5.034 136.316  0.00  0.00    +0.000 N 
ATOM     34  C   UNL     1      -4.391   6.355 135.726  0.00  0.00    +0.000 C 
ATOM     35  C   UNL     1      -2.979   6.858 135.741  0.00  0.00    +0.000 C 
ATOM     36  C   UNL     1      -2.527   6.471 137.132  0.00  0.00    +0.000 C 
ATOM     37  C   UNL     1      -3.317   5.186 137.470  0.00  0.00    +0.000 C 
BRANCH  37  38
ATOM     38  C   UNL     1      -4.024   5.518 138.795  0.00  0.00    +0.000 C 
ATOM     39  O   UNL     1      -3.371   5.904 139.765  0.00  0.00    +0.000 OA
ATOM     40  N   UNL     1      -5.388   5.259 138.870  0.00  0.00    +0.000 N 
ATOM     41  H   UNL     1      -5.842   4.647 138.199  0.00  0.00    +0.000 HD
BRANCH  40  42
ATOM     42  C   UNL     1      -6.221   5.707 140.011  0.00  0.00    +0.000 C 
BRANCH  42  43
ATOM     43  C   UNL     1      -6.483   4.525 141.009  0.00  0.00    +0.000 C 
ATOM     44  O   UNL     1      -5.562   3.855 141.475  0.00  0.00    +0.000 OA
ATOM     45  N   UNL     1      -7.807   4.289 141.339  0.00  0.00    +0.000 N 
ATOM     46  H   UNL     1      -8.518   4.881 140.948  0.00  0.00    +0.000 HD
BRANCH  45  47
ATOM     47  C   UNL     1      -8.212   3.205 142.239  0.00  0.00    +0.000 C 
BRANCH  47  48
ATOM     48  C   UNL     1      -8.281   1.793 141.626  0.00  0.00    +0.000 C 
ATOM     49  N   UNL     1      -7.132   1.055 141.572  0.00  0.00    +0.000 N 
ATOM     50  O   UNL     1      -9.323   1.310 141.190  0.00  0.00    +0.000 OA
ATOM     51  H   UNL     1      -6.225   1.348 141.889  0.00  0.00    +0.000 HD
ATOM     52  H   UNL     1      -7.197   0.132 141.160  0.00  0.00    +0.000 HD
ENDBRANCH  47  48
ENDBRANCH  45  47
ENDBRANCH  42  43
BRANCH  42  53
ATOM     53  C   UNL     1      -7.574   6.257 139.509  0.00  0.00    +0.000 C 
BRANCH  53  54
ATOM     54  C   UNL     1      -7.572   6.525 138.008  0.00  0.00    +0.000 C 
BRANCH  54  55
ATOM     55  C   UNL     1      -7.773   7.959 137.619  0.00  0.00    +0.000 C 
BRANCH  55  56
ATOM     56  N   UNL     1      -9.122   8.085 137.068  0.00  0.00    +0.000 NA
ATOM     57  C   UNL     1      -9.934   8.830 137.722  0.00  0.00    +0.000 C 
ATOM     58  N   UNL     1      -9.649   9.511 138.843  0.00  0.00    +0.000 N 
ATOM     59  N   UNL     1     -11.198   8.988 137.299  0.00  0.00    +0.000 N 
ATOM     60  H   UNL     1      -8.722   9.437 139.236  0.00  0.00    +0.000 HD
ATOM     61  H   UNL     1     -10.306  10.106 139.313  0.00  0.00    +0.000 HD
ATOM     62  H   UNL     1     -11.472   8.485 136.464  0.00  0.00    +0.000 HD
ATOM     63  H   UNL     1     -11.877   9.575 137.750  0.00  0.00    +0.000 HD
ENDBRANCH  55  56
ENDBRANCH  54  55
ENDBRANCH  53  54
ENDBRANCH  42  53
ENDBRANCH  40  42
ENDBRANCH  37  38
ENDBRANCH  18  31
BRANCH   9  64
ATOM     64  C   UNL     1      -5.890   4.189 127.811  0.00  0.00    +0.000 C 
BRANCH  64  65
ATOM     65  C   UNL     1      -4.556   3.775 127.299  0.00  0.00    +0.000 A 
ATOM     66  C   UNL     1      -3.760   3.349 128.262  0.00  0.00    +0.000 A 
ATOM     67  C   UNL     1      -2.541   2.849 127.983  0.00  0.00    +0.000 A 
ATOM     68  C   UNL     1      -1.858   2.949 126.792  0.00  0.00    +0.000 A 
ATOM     69  C   UNL     1      -2.610   3.454 125.782  0.00  0.00    +0.000 A 
ATOM     70  C   UNL     1      -3.971   3.808 126.027  0.00  0.00    +0.000 A 
BRANCH  68  71
ATOM     71  O   UNL     1      -0.517   2.756 126.570  0.00  0.00    +0.000 OA
ATOM     72  H   UNL     1      -0.161   2.149 125.885  0.00  0.00    +0.000 HD
ENDBRANCH  68  71
ENDBRANCH  64  65
ENDBRANCH   9  64
BRANCH   5  73
ATOM     73  C   UNL     1      -7.983   0.153 126.546  0.00  0.00    +0.000 C 
BRANCH  73  74
ATOM     74  C   UNL     1      -7.996  -1.193 125.935  0.00  0.00    +0.000 A 
ATOM     75  C   UNL     1      -6.861  -1.750 125.331  0.00  0.00    +0.000 A 
ATOM     76  C   UNL     1      -6.935  -2.809 124.475  0.00  0.00    +0.000 A 
ATOM     77  C   UNL     1      -8.094  -3.544 124.517  0.00  0.00    +0.000 A 
ATOM     78  C   UNL     1      -9.210  -3.088 125.233  0.00  0.00    +0.000 A 
ATOM     79  C   UNL     1      -9.191  -1.874 125.893  0.00  0.00    +0.000 A 
ENDBRANCH  73  74
ENDBRANCH   5  73
BRANCH   1  80
ATOM     80  C   UNL     1      -6.874  -2.290 131.394  0.00  0.00    +0.000 C 
BRANCH  80  81
ATOM     81  C   UNL     1      -6.758  -3.579 130.716  0.00  0.00    +0.000 C 
BRANCH  81  82
ATOM     82  C   UNL     1      -5.638  -4.366 131.284  0.00  0.00    +0.000 C 
BRANCH  82  83
ATOM     83  N   UNL     1      -6.028  -4.422 132.671  0.00  0.00    +0.000 NA
ATOM     84  H   UNL     1      -6.715  -5.150 132.801  0.00  0.00    +0.000 HD
ATOM     85  H   UNL     1      -6.450  -3.529 132.930  0.00  0.00    +0.000 HD
ENDBRANCH  82  83
ENDBRANCH  81  82
ENDBRANCH  80  81
ENDBRANCH   1  80
BRANCH  22  86
ATOM     86  C   UNL     1      -7.149   2.042 131.746  0.00  0.00    +0.000 C 
BRANCH  86  87
ATOM     87  C   UNL     1      -8.342   1.759 132.532  0.00  0.00    +0.000 C 
ATOM     88  N   UNL     1      -8.812   0.724 131.931  0.00  0.00    +0.000 N 
ATOM     89  O   UNL     1      -9.076   2.354 133.341  0.00  0.00    +0.000 OA
ATOM     90  H   UNL     1      -8.061   0.200 131.550  0.00  0.00    +0.000 HD
ATOM     91  H   UNL     1      -9.637   0.267 132.253  0.00  0.00    +0.000 HD
ENDBRANCH  86  87
ENDBRANCH  22  86
TORSDOF 21
ENDMDL
MODEL 5
REMARK VINA RESULT:      -8.2      1.674      2.171
REMARK  Name = CHEMBL375096
REMARK  21 active torsions:
REMARK  status: ('A' for Active; 'I' for Inactive)
REMARK    1  A    between atoms: N_1  and  C_2
REMARK    2  A    between atoms: C_2  and  C_3
REMARK    3  A    between atoms: C_3  and  C_4
REMARK    4  A    between atoms: C_4  and  C_5
REMARK    5  A    between atoms: C_9  and  C_10
REMARK    6  A    between atoms: C_10  and  C_11
REMARK    7  A    between atoms: C_20  and  C_21
REMARK    8  A    between atoms: C_21  and  C_22
REMARK    9  A    between atoms: C_25  and  O_26
REMARK   10  A    between atoms: C_37  and  C_38
REMARK   11  A    between atoms: C_44  and  C_45
REMARK   12  A    between atoms: N_47  and  C_48
REMARK   13  A    between atoms: C_48  and  C_49
REMARK   14  A    between atoms: C_48  and  C_56
REMARK   15  A    between atoms: C_49  and  C_50
REMARK   16  A    between atoms: C_50  and  C_51
REMARK   17  A    between atoms: C_51  and  N_52
REMARK   18  A    between atoms: N_58  and  C_59
REMARK   19  A    between atoms: C_59  and  C_60
REMARK   20  A    between atoms: C_66  and  C_67
REMARK   21  A    between atoms: C_67  and  C_68
REMARK                            x       y       z     vdW  Elec       q    Type
REMARK                         _______ _______ _______ _____ _____    ______ ____
ROOT
ATOM      1  C   UNL     1      -7.122   3.890 126.145  0.00  0.00    +0.000 C 
ATOM      2  N   UNL     1      -8.153   2.699 126.570  0.00  0.00    +0.000 N 
ATOM      3  C   UNL     1      -8.304   1.428 127.165  0.00  0.00    +0.000 C 
ATOM      4  O   UNL     1      -9.247   1.256 127.955  0.00  0.00    +0.000 OA
ATOM      5  C   UNL     1      -7.457   0.174 126.706  0.00  0.00    +0.000 C 
ATOM      6  N   UNL     1      -6.309  -0.236 127.459  0.00  0.00    +0.000 N 
ATOM      7  C   UNL     1      -6.180  -0.842 128.651  0.00  0.00    +0.000 C 
ATOM      8  O   UNL     1      -5.035  -1.294 128.794  0.00  0.00    +0.000 OA
ATOM      9  C   UNL     1      -7.422  -1.005 129.723  0.00  0.00    +0.000 C 
ATOM     10  N   UNL     1      -7.241  -2.382 130.051  0.00  0.00    +0.000 N 
ATOM     11  C   UNL     1      -6.227  -2.853 130.828  0.00  0.00    +0.000 C 
ATOM     12  O   UNL     1      -6.224  -4.074 131.017  0.00  0.00    +0.000 OA
ATOM     13  C   UNL     1      -5.114  -1.957 131.478  0.00  0.00    +0.000 C 
ATOM     14  C   UNL     1      -4.984  -0.432 131.365  0.00  0.00    +0.000 C 
ATOM     15  S   UNL     1      -3.541   0.480 131.980  0.00  0.00    +0.000 S 
ATOM     16  S   UNL     1      -4.462   2.350 132.082  0.00  0.00    +0.000 S 
ATOM     17  C   UNL     1      -3.204   3.604 131.683  0.00  0.00    +0.000 C 
ATOM     18  C   UNL     1      -3.501   5.060 131.275  0.00  0.00    +0.000 C 
ATOM     19  N   UNL     1      -3.357   5.276 129.798  0.00  0.00    +0.000 N 
ATOM     20  C   UNL     1      -4.065   4.748 128.773  0.00  0.00    +0.000 C 
ATOM     21  O   UNL     1      -3.828   4.920 127.584  0.00  0.00    +0.000 OA
ATOM     22  C   UNL     1      -5.219   3.942 129.149  0.00  0.00    +0.000 C 
ATOM     23  N   UNL     1      -6.536   4.826 128.397  0.00  0.00    +0.000 N 
ATOM     24  C   UNL     1      -7.432   4.780 127.314  0.00  0.00    +0.000 C 
ATOM     25  O   UNL     1      -8.604   5.101 127.556  0.00  0.00    +0.000 OA
ATOM     26  H   UNL     1      -9.010   3.168 126.899  0.00  0.00    +0.000 HD
ATOM     27  H   UNL     1      -5.418  -0.225 126.950  0.00  0.00    +0.000 HD
ATOM     28  H   UNL     1      -7.867  -3.060 129.634  0.00  0.00    +0.000 HD
ATOM     29  H   UNL     1      -2.667   5.956 129.493  0.00  0.00    +0.000 HD
ATOM     30  H   UNL     1      -7.344   5.001 128.992  0.00  0.00    +0.000 HD
ENDROOT
BRANCH  18  31
ATOM     31  C   UNL     1      -2.547   6.097 131.970  0.00  0.00    +0.000 C 
ATOM     32  O   UNL     1      -1.718   6.686 131.268  0.00  0.00    +0.000 OA
ATOM     33  N   UNL     1      -2.822   6.496 133.274  0.00  0.00    +0.000 N 
ATOM     34  C   UNL     1      -3.088   5.681 134.449  0.00  0.00    +0.000 C 
ATOM     35  C   UNL     1      -3.957   6.591 135.265  0.00  0.00    +0.000 C 
ATOM     36  C   UNL     1      -3.217   7.905 135.154  0.00  0.00    +0.000 C 
ATOM     37  C   UNL     1      -2.534   7.870 133.768  0.00  0.00    +0.000 C 
BRANCH  37  38
ATOM     38  C   UNL     1      -1.048   8.120 134.075  0.00  0.00    +0.000 C 
ATOM     39  O   UNL     1      -0.209   7.254 133.822  0.00  0.00    +0.000 OA
ATOM     40  N   UNL     1      -0.726   9.298 134.741  0.00  0.00    +0.000 N 
ATOM     41  H   UNL     1      -1.436   9.833 135.231  0.00  0.00    +0.000 HD
BRANCH  40  42
ATOM     42  C   UNL     1       0.673   9.748 134.927  0.00  0.00    +0.000 C 
BRANCH  42  43
ATOM     43  C   UNL     1       1.258   9.211 136.280  0.00  0.00    +0.000 C 
ATOM     44  O   UNL     1       1.460   9.955 137.239  0.00  0.00    +0.000 OA
ATOM     45  N   UNL     1       1.527   7.853 136.331  0.00  0.00    +0.000 N 
ATOM     46  H   UNL     1       1.323   7.287 135.527  0.00  0.00    +0.000 HD
BRANCH  45  47
ATOM     47  C   UNL     1       2.100   7.209 137.517  0.00  0.00    +0.000 C 
BRANCH  47  48
ATOM     48  C   UNL     1       2.957   5.953 137.268  0.00  0.00    +0.000 C 
ATOM     49  N   UNL     1       4.207   6.117 136.739  0.00  0.00    +0.000 N 
ATOM     50  O   UNL     1       2.563   4.819 137.530  0.00  0.00    +0.000 OA
ATOM     51  H   UNL     1       4.629   6.991 136.479  0.00  0.00    +0.000 HD
ATOM     52  H   UNL     1       4.751   5.279 136.577  0.00  0.00    +0.000 HD
ENDBRANCH  47  48
ENDBRANCH  45  47
ENDBRANCH  42  43
BRANCH  42  53
ATOM     53  C   UNL     1       0.749  11.291 134.918  0.00  0.00    +0.000 C 
BRANCH  53  54
ATOM     54  C   UNL     1       1.803  11.815 133.949  0.00  0.00    +0.000 C 
BRANCH  54  55
ATOM     55  C   UNL     1       1.444  13.090 133.247  0.00  0.00    +0.000 C 
BRANCH  55  56
ATOM     56  N   UNL     1       0.044  12.991 132.833  0.00  0.00    +0.000 NA
ATOM     57  C   UNL     1      -0.171  12.947 131.571  0.00  0.00    +0.000 C 
ATOM     58  N   UNL     1       0.767  12.964 130.610  0.00  0.00    +0.000 N 
ATOM     59  N   UNL     1      -1.426  12.873 131.100  0.00  0.00    +0.000 N 
ATOM     60  H   UNL     1       1.737  13.030 130.879  0.00  0.00    +0.000 HD
ATOM     61  H   UNL     1       0.559  12.901 129.631  0.00  0.00    +0.000 HD
ATOM     62  H   UNL     1      -2.175  12.872 131.782  0.00  0.00    +0.000 HD
ATOM     63  H   UNL     1      -1.663  12.812 130.126  0.00  0.00    +0.000 HD
ENDBRANCH  55  56
ENDBRANCH  54  55
ENDBRANCH  53  54
ENDBRANCH  42  53
ENDBRANCH  40  42
ENDBRANCH  37  38
ENDBRANCH  18  31
BRANCH   9  64
ATOM     64  C   UNL     1      -7.893  -0.273 131.089  0.00  0.00    +0.000 C 
BRANCH  64  65
ATOM     65  C   UNL     1      -8.488   1.089 131.044  0.00  0.00    +0.000 A 
ATOM     66  C   UNL     1      -9.727   1.110 131.497  0.00  0.00    +0.000 A 
ATOM     67  C   UNL     1     -10.402   2.271 131.616  0.00  0.00    +0.000 A 
ATOM     68  C   UNL     1     -10.059   3.487 131.071  0.00  0.00    +0.000 A 
ATOM     69  C   UNL     1      -8.819   3.500 130.521  0.00  0.00    +0.000 A 
ATOM     70  C   UNL     1      -8.018   2.318 130.565  0.00  0.00    +0.000 A 
BRANCH  68  71
ATOM     71  O   UNL     1     -10.863   4.586 130.887  0.00  0.00    +0.000 OA
ATOM     72  H   UNL     1     -11.008   5.274 131.573  0.00  0.00    +0.000 HD
ENDBRANCH  68  71
ENDBRANCH  64  65
ENDBRANCH   9  64
BRANCH   5  73
ATOM     73  C   UNL     1      -8.226  -1.101 126.454  0.00  0.00    +0.000 C 
BRANCH  73  74
ATOM     74  C   UNL     1      -8.016  -1.604 125.080  0.00  0.00    +0.000 A 
ATOM     75  C   UNL     1      -6.862  -2.310 124.712  0.00  0.00    +0.000 A 
ATOM     76  C   UNL     1      -6.492  -2.473 123.409  0.00  0.00    +0.000 A 
ATOM     77  C   UNL     1      -7.467  -2.256 122.468  0.00  0.00    +0.000 A 
ATOM     78  C   UNL     1      -8.696  -1.681 122.824  0.00  0.00    +0.000 A 
ATOM     79  C   UNL     1      -8.953  -1.288 124.124  0.00  0.00    +0.000 A 
ENDBRANCH  73  74
ENDBRANCH   5  73
BRANCH   1  80
ATOM     80  C   UNL     1      -5.963   3.776 125.116  0.00  0.00    +0.000 C 
BRANCH  80  81
ATOM     81  C   UNL     1      -6.630   2.860 124.195  0.00  0.00    +0.000 C 
BRANCH  81  82
ATOM     82  C   UNL     1      -6.745   3.468 122.848  0.00  0.00    +0.000 C 
BRANCH  82  83
ATOM     83  N   UNL     1      -8.178   3.584 122.730  0.00  0.00    +0.000 NA
ATOM     84  H   UNL     1      -8.430   4.553 122.599  0.00  0.00    +0.000 HD
ATOM     85  H   UNL     1      -8.607   3.253 123.595  0.00  0.00    +0.000 HD
ENDBRANCH  82  83
ENDBRANCH  81  82
ENDBRANCH  80  81
ENDBRANCH   1  80
BRANCH  22  86
ATOM     86  C   UNL     1      -4.655   2.357 129.021  0.00  0.00    +0.000 C 
BRANCH  86  87
ATOM     87  C   UNL     1      -4.010   2.046 127.752  0.00  0.00    +0.000 C 
ATOM     88  N   UNL     1      -2.775   2.281 128.021  0.00  0.00    +0.000 N 
ATOM     89  O   UNL     1      -4.338   1.912 126.559  0.00  0.00    +0.000 OA
ATOM     90  H   UNL     1      -2.608   2.087 128.979  0.00  0.00    +0.000 HD
ATOM     91  H   UNL     1      -2.060   2.138 127.342  0.00  0.00    +0.000 HD
ENDBRANCH  86  87
ENDBRANCH  22  86
TORSDOF 21
ENDMDL
MODEL 6
REMARK VINA RESULT:      -8.0      4.351     10.778
REMARK  Name = CHEMBL375096
REMARK  21 active torsions:
REMARK  status: ('A' for Active; 'I' for Inactive)
REMARK    1  A    between atoms: N_1  and  C_2
REMARK    2  A    between atoms: C_2  and  C_3
REMARK    3  A    between atoms: C_3  and  C_4
REMARK    4  A    between atoms: C_4  and  C_5
REMARK    5  A    between atoms: C_9  and  C_10
REMARK    6  A    between atoms: C_10  and  C_11
REMARK    7  A    between atoms: C_20  and  C_21
REMARK    8  A    between atoms: C_21  and  C_22
REMARK    9  A    between atoms: C_25  and  O_26
REMARK   10  A    between atoms: C_37  and  C_38
REMARK   11  A    between atoms: C_44  and  C_45
REMARK   12  A    between atoms: N_47  and  C_48
REMARK   13  A    between atoms: C_48  and  C_49
REMARK   14  A    between atoms: C_48  and  C_56
REMARK   15  A    between atoms: C_49  and  C_50
REMARK   16  A    between atoms: C_50  and  C_51
REMARK   17  A    between atoms: C_51  and  N_52
REMARK   18  A    between atoms: N_58  and  C_59
REMARK   19  A    between atoms: C_59  and  C_60
REMARK   20  A    between atoms: C_66  and  C_67
REMARK   21  A    between atoms: C_67  and  C_68
REMARK                            x       y       z     vdW  Elec       q    Type
REMARK                         _______ _______ _______ _____ _____    ______ ____
ROOT
ATOM      1  C   UNL     1      -7.070  -0.977 126.901  0.00  0.00    +0.000 C 
ATOM      2  N   UNL     1      -6.206   0.359 126.539  0.00  0.00    +0.000 N 
ATOM      3  C   UNL     1      -5.900   1.693 126.884  0.00  0.00    +0.000 C 
ATOM      4  O   UNL     1      -4.710   2.050 126.860  0.00  0.00    +0.000 OA
ATOM      5  C   UNL     1      -7.019   2.791 127.091  0.00  0.00    +0.000 C 
ATOM      6  N   UNL     1      -7.448   3.145 128.411  0.00  0.00    +0.000 N 
ATOM      7  C   UNL     1      -6.863   3.850 129.392  0.00  0.00    +0.000 C 
ATOM      8  O   UNL     1      -7.692   4.184 130.251  0.00  0.00    +0.000 OA
ATOM      9  C   UNL     1      -5.266   4.260 129.384  0.00  0.00    +0.000 C 
ATOM     10  N   UNL     1      -5.396   5.635 129.746  0.00  0.00    +0.000 N 
ATOM     11  C   UNL     1      -5.720   6.066 130.995  0.00  0.00    +0.000 C 
ATOM     12  O   UNL     1      -5.785   7.292 131.136  0.00  0.00    +0.000 OA
ATOM     13  C   UNL     1      -5.991   5.122 132.219  0.00  0.00    +0.000 C 
ATOM     14  C   UNL     1      -5.930   3.589 132.226  0.00  0.00    +0.000 C 
ATOM     15  S   UNL     1      -6.469   2.588 133.640  0.00  0.00    +0.000 S 
ATOM     16  S   UNL     1      -5.432   0.854 133.119  0.00  0.00    +0.000 S 
ATOM     17  C   UNL     1      -6.439  -0.568 133.649  0.00  0.00    +0.000 C 
ATOM     18  C   UNL     1      -6.261  -2.015 133.151  0.00  0.00    +0.000 C 
ATOM     19  N   UNL     1      -7.294  -2.395 132.133  0.00  0.00    +0.000 N 
ATOM     20  C   UNL     1      -7.513  -1.899 130.894  0.00  0.00    +0.000 C 
ATOM     21  O   UNL     1      -8.435  -2.217 130.154  0.00  0.00    +0.000 OA
ATOM     22  C   UNL     1      -6.530  -0.935 130.416  0.00  0.00    +0.000 C 
ATOM     23  N   UNL     1      -5.903  -1.738 128.986  0.00  0.00    +0.000 N 
ATOM     24  C   UNL     1      -5.945  -1.703 127.581  0.00  0.00    +0.000 C 
ATOM     25  O   UNL     1      -4.865  -1.863 126.995  0.00  0.00    +0.000 OA
ATOM     26  H   UNL     1      -5.282   0.025 126.226  0.00  0.00    +0.000 HD
ATOM     27  H   UNL     1      -8.441   2.982 128.613  0.00  0.00    +0.000 HD
ATOM     28  H   UNL     1      -5.304   6.333 129.017  0.00  0.00    +0.000 HD
ATOM     29  H   UNL     1      -7.904  -3.177 132.360  0.00  0.00    +0.000 HD
ATOM     30  H   UNL     1      -4.888  -1.759 128.905  0.00  0.00    +0.000 HD
ENDROOT
BRANCH  18  31
ATOM     31  C   UNL     1      -6.364  -3.076 134.306  0.00  0.00    +0.000 C 
ATOM     32  O   UNL     1      -7.380  -3.071 135.010  0.00  0.00    +0.000 OA
ATOM     33  N   UNL     1      -5.448  -4.122 134.343  0.00  0.00    +0.000 N 
ATOM     34  C   UNL     1      -3.997  -4.077 134.269  0.00  0.00    +0.000 C 
ATOM     35  C   UNL     1      -3.677  -5.411 133.664  0.00  0.00    +0.000 C 
ATOM     36  C   UNL     1      -4.572  -6.334 134.461  0.00  0.00    +0.000 C 
ATOM     37  C   UNL     1      -5.806  -5.481 134.832  0.00  0.00    +0.000 C 
BRANCH  37  38
ATOM     38  C   UNL     1      -5.889  -5.587 136.364  0.00  0.00    +0.000 C 
ATOM     39  O   UNL     1      -5.162  -6.376 136.970  0.00  0.00    +0.000 OA
ATOM     40  N   UNL     1      -6.880  -4.848 137.000  0.00  0.00    +0.000 N 
ATOM     41  H   UNL     1      -7.667  -4.472 136.480  0.00  0.00    +0.000 HD
BRANCH  40  42
ATOM     42  C   UNL     1      -6.948  -4.711 138.473  0.00  0.00    +0.000 C 
BRANCH  42  43
ATOM     43  C   UNL     1      -8.397  -4.324 138.933  0.00  0.00    +0.000 C 
ATOM     44  O   UNL     1      -8.681  -4.174 140.121  0.00  0.00    +0.000 OA
ATOM     45  N   UNL     1      -9.332  -4.154 137.925  0.00  0.00    +0.000 N 
ATOM     46  H   UNL     1      -9.041  -4.266 136.970  0.00  0.00    +0.000 HD
BRANCH  45  47
ATOM     47  C   UNL     1     -10.732  -3.816 138.198  0.00  0.00    +0.000 C 
BRANCH  47  48
ATOM     48  C   UNL     1     -11.119  -2.332 138.059  0.00  0.00    +0.000 C 
ATOM     49  N   UNL     1     -12.331  -2.028 137.505  0.00  0.00    +0.000 N 
ATOM     50  O   UNL     1     -10.385  -1.418 138.428  0.00  0.00    +0.000 OA
ATOM     51  H   UNL     1     -13.006  -2.688 137.162  0.00  0.00    +0.000 HD
ATOM     52  H   UNL     1     -12.563  -1.046 137.417  0.00  0.00    +0.000 HD
ENDBRANCH  47  48
ENDBRANCH  45  47
ENDBRANCH  42  43
BRANCH  42  53
ATOM     53  C   UNL     1      -5.955  -3.634 138.963  0.00  0.00    +0.000 C 
BRANCH  53  54
ATOM     54  C   UNL     1      -6.138  -2.304 138.240  0.00  0.00    +0.000 C 
BRANCH  54  55
ATOM     55  C   UNL     1      -4.927  -1.419 138.221  0.00  0.00    +0.000 C 
BRANCH  55  56
ATOM     56  N   UNL     1      -4.329  -1.512 136.890  0.00  0.00    +0.000 NA
ATOM     57  C   UNL     1      -3.414  -0.657 136.619  0.00  0.00    +0.000 C 
ATOM     58  N   UNL     1      -2.951   0.291 137.451  0.00  0.00    +0.000 N 
ATOM     59  N   UNL     1      -2.822  -0.657 135.415  0.00  0.00    +0.000 N 
ATOM     60  H   UNL     1      -3.351   0.367 138.373  0.00  0.00    +0.000 HD
ATOM     61  H   UNL     1      -2.213   0.927 137.210  0.00  0.00    +0.000 HD
ATOM     62  H   UNL     1      -3.144  -1.342 134.742  0.00  0.00    +0.000 HD
ATOM     63  H   UNL     1      -2.084  -0.031 135.146  0.00  0.00    +0.000 HD
ENDBRANCH  55  56
ENDBRANCH  54  55
ENDBRANCH  53  54
ENDBRANCH  42  53
ENDBRANCH  40  42
ENDBRANCH  37  38
ENDBRANCH  18  31
BRANCH   9  64
ATOM     64  C   UNL     1      -3.917   3.730 130.106  0.00  0.00    +0.000 C 
BRANCH  64  65
ATOM     65  C   UNL     1      -2.863   4.691 130.527  0.00  0.00    +0.000 A 
ATOM     66  C   UNL     1      -2.430   4.455 131.751  0.00  0.00    +0.000 A 
ATOM     67  C   UNL     1      -1.413   5.167 132.275  0.00  0.00    +0.000 A 
ATOM     68  C   UNL     1      -0.887   6.342 131.786  0.00  0.00    +0.000 A 
ATOM     69  C   UNL     1      -1.358   6.672 130.558  0.00  0.00    +0.000 A 
ATOM     70  C   UNL     1      -2.297   5.813 129.910  0.00  0.00    +0.000 A 
BRANCH  68  71
ATOM     71  O   UNL     1      -0.101   7.253 132.448  0.00  0.00    +0.000 OA
ATOM     72  H   UNL     1      -0.048   7.318 133.427  0.00  0.00    +0.000 HD
ENDBRANCH  68  71
ENDBRANCH  64  65
ENDBRANCH   9  64
BRANCH   5  73
ATOM     73  C   UNL     1      -6.803   4.112 126.391  0.00  0.00    +0.000 C 
BRANCH  73  74
ATOM     74  C   UNL     1      -6.852   3.966 124.921  0.00  0.00    +0.000 A 
ATOM     75  C   UNL     1      -7.950   3.394 124.264  0.00  0.00    +0.000 A 
ATOM     76  C   UNL     1      -7.875   2.939 122.980  0.00  0.00    +0.000 A 
ATOM     77  C   UNL     1      -6.818   3.396 122.234  0.00  0.00    +0.000 A 
ATOM     78  C   UNL     1      -5.765   4.103 122.834  0.00  0.00    +0.000 A 
ATOM     79  C   UNL     1      -5.743   4.334 124.196  0.00  0.00    +0.000 A 
ENDBRANCH  73  74
ENDBRANCH   5  73
BRANCH   1  80
ATOM     80  C   UNL     1      -8.620  -1.099 126.886  0.00  0.00    +0.000 C 
BRANCH  80  81
ATOM     81  C   UNL     1      -8.805  -0.865 125.457  0.00  0.00    +0.000 C 
BRANCH  81  82
ATOM     82  C   UNL     1      -8.879  -2.151 124.724  0.00  0.00    +0.000 C 
BRANCH  82  83
ATOM     83  N   UNL     1      -9.929  -2.815 125.458  0.00  0.00    +0.000 NA
ATOM     84  H   UNL     1      -9.947  -3.794 125.213  0.00  0.00    +0.000 HD
ATOM     85  H   UNL     1     -10.825  -2.401 125.196  0.00  0.00    +0.000 HD
ENDBRANCH  82  83
ENDBRANCH  81  82
ENDBRANCH  80  81
ENDBRANCH   1  80
BRANCH  22  86
ATOM     86  C   UNL     1      -7.275   0.555 130.685  0.00  0.00    +0.000 C 
BRANCH  86  87
ATOM     87  C   UNL     1      -8.653   0.468 131.147  0.00  0.00    +0.000 C 
ATOM     88  N   UNL     1      -9.190   1.482 130.567  0.00  0.00    +0.000 N 
ATOM     89  O   UNL     1      -9.284  -0.089 132.064  0.00  0.00    +0.000 OA
ATOM     90  H   UNL     1      -8.730   1.643 129.704  0.00  0.00    +0.000 HD
ATOM     91  H   UNL     1     -10.159   1.687 130.673  0.00  0.00    +0.000 HD
ENDBRANCH  86  87
ENDBRANCH  22  86
TORSDOF 21
ENDMDL
MODEL 7
REMARK VINA RESULT:      -8.0      5.404     11.839
REMARK  Name = CHEMBL375096
REMARK  21 active torsions:
REMARK  status: ('A' for Active; 'I' for Inactive)
REMARK    1  A    between atoms: N_1  and  C_2
REMARK    2  A    between atoms: C_2  and  C_3
REMARK    3  A    between atoms: C_3  and  C_4
REMARK    4  A    between atoms: C_4  and  C_5
REMARK    5  A    between atoms: C_9  and  C_10
REMARK    6  A    between atoms: C_10  and  C_11
REMARK    7  A    between atoms: C_20  and  C_21
REMARK    8  A    between atoms: C_21  and  C_22
REMARK    9  A    between atoms: C_25  and  O_26
REMARK   10  A    between atoms: C_37  and  C_38
REMARK   11  A    between atoms: C_44  and  C_45
REMARK   12  A    between atoms: N_47  and  C_48
REMARK   13  A    between atoms: C_48  and  C_49
REMARK   14  A    between atoms: C_48  and  C_56
REMARK   15  A    between atoms: C_49  and  C_50
REMARK   16  A    between atoms: C_50  and  C_51
REMARK   17  A    between atoms: C_51  and  N_52
REMARK   18  A    between atoms: N_58  and  C_59
REMARK   19  A    between atoms: C_59  and  C_60
REMARK   20  A    between atoms: C_66  and  C_67
REMARK   21  A    between atoms: C_67  and  C_68
REMARK                            x       y       z     vdW  Elec       q    Type
REMARK                         _______ _______ _______ _____ _____    ______ ____
ROOT
ATOM      1  C   UNL     1      -4.473   3.077 134.108  0.00  0.00    +0.000 C 
ATOM      2  N   UNL     1      -3.876   1.985 135.163  0.00  0.00    +0.000 N 
ATOM      3  C   UNL     1      -4.016   0.705 135.740  0.00  0.00    +0.000 C 
ATOM      4  O   UNL     1      -3.000   0.003 135.872  0.00  0.00    +0.000 OA
ATOM      5  C   UNL     1      -5.365   0.222 136.408  0.00  0.00    +0.000 C 
ATOM      6  N   UNL     1      -6.266  -0.626 135.685  0.00  0.00    +0.000 N 
ATOM      7  C   UNL     1      -6.209  -1.924 135.347  0.00  0.00    +0.000 C 
ATOM      8  O   UNL     1      -7.324  -2.338 134.998  0.00  0.00    +0.000 OA
ATOM      9  C   UNL     1      -4.836  -2.830 135.461  0.00  0.00    +0.000 C 
ATOM     10  N   UNL     1      -5.392  -3.981 136.094  0.00  0.00    +0.000 N 
ATOM     11  C   UNL     1      -6.191  -4.886 135.465  0.00  0.00    +0.000 C 
ATOM     12  O   UNL     1      -6.581  -5.828 136.162  0.00  0.00    +0.000 OA
ATOM     13  C   UNL     1      -6.614  -4.800 133.956  0.00  0.00    +0.000 C 
ATOM     14  C   UNL     1      -6.203  -3.717 132.948  0.00  0.00    +0.000 C 
ATOM     15  S   UNL     1      -6.919  -3.597 131.286  0.00  0.00    +0.000 S 
ATOM     16  S   UNL     1      -5.396  -2.442 130.449  0.00  0.00    +0.000 S 
ATOM     17  C   UNL     1      -6.159  -1.330 129.226  0.00  0.00    +0.000 C 
ATOM     18  C   UNL     1      -5.499  -0.065 128.643  0.00  0.00    +0.000 C 
ATOM     19  N   UNL     1      -6.031   1.190 129.266  0.00  0.00    +0.000 N 
ATOM     20  C   UNL     1      -5.949   1.625 130.544  0.00  0.00    +0.000 C 
ATOM     21  O   UNL     1      -6.484   2.635 130.986  0.00  0.00    +0.000 OA
ATOM     22  C   UNL     1      -5.118   0.824 131.433  0.00  0.00    +0.000 C 
ATOM     23  N   UNL     1      -3.896   1.983 131.927  0.00  0.00    +0.000 N 
ATOM     24  C   UNL     1      -3.491   2.780 133.013  0.00  0.00    +0.000 C 
ATOM     25  O   UNL     1      -2.274   2.817 133.243  0.00  0.00    +0.000 OA
ATOM     26  H   UNL     1      -2.849   2.052 135.091  0.00  0.00    +0.000 HD
ATOM     27  H   UNL     1      -7.205  -0.242 135.526  0.00  0.00    +0.000 HD
ATOM     28  H   UNL     1      -5.236  -4.104 137.088  0.00  0.00    +0.000 HD
ATOM     29  H   UNL     1      -6.482   1.860 128.648  0.00  0.00    +0.000 HD
ATOM     30  H   UNL     1      -2.933   1.655 131.873  0.00  0.00    +0.000 HD
ENDROOT
BRANCH  18  31
ATOM     31  C   UNL     1      -5.717   0.079 127.094  0.00  0.00    +0.000 C 
ATOM     32  O   UNL     1      -4.952   0.820 126.466  0.00  0.00    +0.000 OA
ATOM     33  N   UNL     1      -6.582  -0.799 126.451  0.00  0.00    +0.000 N 
ATOM     34  C   UNL     1      -7.950  -1.158 126.792  0.00  0.00    +0.000 C 
ATOM     35  C   UNL     1      -8.052  -2.547 126.236  0.00  0.00    +0.000 C 
ATOM     36  C   UNL     1      -7.411  -2.383 124.875  0.00  0.00    +0.000 C 
ATOM     37  C   UNL     1      -6.356  -1.268 125.057  0.00  0.00    +0.000 C 
BRANCH  37  38
ATOM     38  C   UNL     1      -6.722  -0.228 123.985  0.00  0.00    +0.000 C 
ATOM     39  O   UNL     1      -6.773  -0.553 122.798  0.00  0.00    +0.000 OA
ATOM     40  N   UNL     1      -6.878   1.089 124.404  0.00  0.00    +0.000 N 
ATOM     41  H   UNL     1      -6.516   1.399 125.301  0.00  0.00    +0.000 HD
BRANCH  40  42
ATOM     42  C   UNL     1      -7.413   2.148 123.517  0.00  0.00    +0.000 C 
BRANCH  42  43
ATOM     43  C   UNL     1      -6.255   3.051 122.963  0.00  0.00    +0.000 C 
ATOM     44  O   UNL     1      -5.563   3.744 123.707  0.00  0.00    +0.000 OA
ATOM     45  N   UNL     1      -6.057   3.016 121.593  0.00  0.00    +0.000 N 
ATOM     46  H   UNL     1      -6.637   2.416 121.034  0.00  0.00    +0.000 HD
BRANCH  45  47
ATOM     47  C   UNL     1      -5.032   3.824 120.925  0.00  0.00    +0.000 C 
BRANCH  47  48
ATOM     48  C   UNL     1      -5.538   4.956 120.011  0.00  0.00    +0.000 C 
ATOM     49  N   UNL     1      -6.631   4.714 119.227  0.00  0.00    +0.000 N 
ATOM     50  O   UNL     1      -5.002   6.061 119.965  0.00  0.00    +0.000 OA
ATOM     51  H   UNL     1      -7.143   3.851 119.176  0.00  0.00    +0.000 HD
ATOM     52  H   UNL     1      -6.944   5.469 118.629  0.00  0.00    +0.000 HD
ENDBRANCH  47  48
ENDBRANCH  45  47
ENDBRANCH  42  43
BRANCH  42  53
ATOM     53  C   UNL     1      -8.426   3.031 124.278  0.00  0.00    +0.000 C 
BRANCH  53  54
ATOM     54  C   UNL     1      -8.299   2.888 125.791  0.00  0.00    +0.000 C 
BRANCH  54  55
ATOM     55  C   UNL     1      -7.760   4.094 126.500  0.00  0.00    +0.000 C 
BRANCH  55  56
ATOM     56  N   UNL     1      -6.679   3.648 127.379  0.00  0.00    +0.000 NA
ATOM     57  C   UNL     1      -5.523   4.153 127.155  0.00  0.00    +0.000 C 
ATOM     58  N   UNL     1      -5.229   5.060 126.209  0.00  0.00    +0.000 N 
ATOM     59  N   UNL     1      -4.469   3.788 127.901  0.00  0.00    +0.000 N 
ATOM     60  H   UNL     1      -5.963   5.379 125.595  0.00  0.00    +0.000 HD
ATOM     61  H   UNL     1      -4.314   5.452 126.082  0.00  0.00    +0.000 HD
ATOM     62  H   UNL     1      -4.631   3.094 128.621  0.00  0.00    +0.000 HD
ATOM     63  H   UNL     1      -3.542   4.161 127.794  0.00  0.00    +0.000 HD
ENDBRANCH  55  56
ENDBRANCH  54  55
ENDBRANCH  53  54
ENDBRANCH  42  53
ENDBRANCH  40  42
ENDBRANCH  37  38
ENDBRANCH  18  31
BRANCH   9  64
ATOM     64  C   UNL     1      -3.707  -3.378 134.438  0.00  0.00    +0.000 C 
BRANCH  64  65
ATOM     65  C   UNL     1      -2.268  -3.335 134.814  0.00  0.00    +0.000 A 
ATOM     66  C   UNL     1      -1.951  -4.272 135.687  0.00  0.00    +0.000 A 
ATOM     67  C   UNL     1      -0.674  -4.447 136.082  0.00  0.00    +0.000 A 
ATOM     68  C   UNL     1       0.378  -3.583 135.887  0.00  0.00    +0.000 A 
ATOM     69  C   UNL     1       0.082  -2.554 135.053  0.00  0.00    +0.000 A 
ATOM     70  C   UNL     1      -1.221  -2.470 134.475  0.00  0.00    +0.000 A 
BRANCH  68  71
ATOM     71  O   UNL     1       1.585  -3.561 136.542  0.00  0.00    +0.000 OA
ATOM     72  H   UNL     1       1.960  -2.757 136.965  0.00  0.00    +0.000 HD
ENDBRANCH  68  71
ENDBRANCH  64  65
ENDBRANCH   9  64
BRANCH   5  73
ATOM     73  C   UNL     1      -5.250  -0.415 137.772  0.00  0.00    +0.000 C 
BRANCH  73  74
ATOM     74  C   UNL     1      -5.426   0.575 138.856  0.00  0.00    +0.000 A 
ATOM     75  C   UNL     1      -6.175   0.296 140.007  0.00  0.00    +0.000 A 
ATOM     76  C   UNL     1      -6.634   1.279 140.834  0.00  0.00    +0.000 A 
ATOM     77  C   UNL     1      -6.028   2.505 140.715  0.00  0.00    +0.000 A 
ATOM     78  C   UNL     1      -5.155   2.777 139.652  0.00  0.00    +0.000 A 
ATOM     79  C   UNL     1      -4.901   1.833 138.675  0.00  0.00    +0.000 A 
ENDBRANCH  73  74
ENDBRANCH   5  73
BRANCH   1  80
ATOM     80  C   UNL     1      -5.863   3.769 134.194  0.00  0.00    +0.000 C 
BRANCH  80  81
ATOM     81  C   UNL     1      -5.495   4.998 133.496  0.00  0.00    +0.000 C 
BRANCH  81  82
ATOM     82  C   UNL     1      -6.705   5.708 133.018  0.00  0.00    +0.000 C 
BRANCH  82  83
ATOM     83  N   UNL     1      -7.579   4.592 132.750  0.00  0.00    +0.000 NA
ATOM     84  H   UNL     1      -7.376   3.841 133.392  0.00  0.00    +0.000 HD
ATOM     85  H   UNL     1      -7.406   4.260 131.799  0.00  0.00    +0.000 HD
ENDBRANCH  82  83
ENDBRANCH  81  82
ENDBRANCH  80  81
ENDBRANCH   1  80
BRANCH  22  86
ATOM     86  C   UNL     1      -6.235  -0.122 132.272  0.00  0.00    +0.000 C 
BRANCH  86  87
ATOM     87  C   UNL     1      -7.398   0.606 132.761  0.00  0.00    +0.000 C 
ATOM     88  N   UNL     1      -8.301   0.256 131.916  0.00  0.00    +0.000 N 
ATOM     89  O   UNL     1      -7.633   1.573 133.508  0.00  0.00    +0.000 OA
ATOM     90  H   UNL     1      -8.110  -0.663 131.598  0.00  0.00    +0.000 HD
ATOM     91  H   UNL     1      -9.240   0.581 131.995  0.00  0.00    +0.000 HD
ENDBRANCH  86  87
ENDBRANCH  22  86
TORSDOF 21
ENDMDL
MODEL 8
REMARK VINA RESULT:      -7.4      4.015      6.245
REMARK  Name = CHEMBL375096
REMARK  21 active torsions:
REMARK  status: ('A' for Active; 'I' for Inactive)
REMARK    1  A    between atoms: N_1  and  C_2
REMARK    2  A    between atoms: C_2  and  C_3
REMARK    3  A    between atoms: C_3  and  C_4
REMARK    4  A    between atoms: C_4  and  C_5
REMARK    5  A    between atoms: C_9  and  C_10
REMARK    6  A    between atoms: C_10  and  C_11
REMARK    7  A    between atoms: C_20  and  C_21
REMARK    8  A    between atoms: C_21  and  C_22
REMARK    9  A    between atoms: C_25  and  O_26
REMARK   10  A    between atoms: C_37  and  C_38
REMARK   11  A    between atoms: C_44  and  C_45
REMARK   12  A    between atoms: N_47  and  C_48
REMARK   13  A    between atoms: C_48  and  C_49
REMARK   14  A    between atoms: C_48  and  C_56
REMARK   15  A    between atoms: C_49  and  C_50
REMARK   16  A    between atoms: C_50  and  C_51
REMARK   17  A    between atoms: C_51  and  N_52
REMARK   18  A    between atoms: N_58  and  C_59
REMARK   19  A    between atoms: C_59  and  C_60
REMARK   20  A    between atoms: C_66  and  C_67
REMARK   21  A    between atoms: C_67  and  C_68
REMARK                            x       y       z     vdW  Elec       q    Type
REMARK                         _______ _______ _______ _____ _____    ______ ____
ROOT
ATOM      1  C   UNL     1      -4.963   6.234 129.923  0.00  0.00    +0.000 C 
ATOM      2  N   UNL     1      -5.731   5.007 129.170  0.00  0.00    +0.000 N 
ATOM      3  C   UNL     1      -5.898   3.610 129.066  0.00  0.00    +0.000 C 
ATOM      4  O   UNL     1      -7.052   3.160 128.965  0.00  0.00    +0.000 OA
ATOM      5  C   UNL     1      -4.678   2.625 128.861  0.00  0.00    +0.000 C 
ATOM      6  N   UNL     1      -4.135   1.908 129.976  0.00  0.00    +0.000 N 
ATOM      7  C   UNL     1      -4.592   0.865 130.688  0.00  0.00    +0.000 C 
ATOM      8  O   UNL     1      -3.683   0.358 131.361  0.00  0.00    +0.000 OA
ATOM      9  C   UNL     1      -6.145   0.319 130.599  0.00  0.00    +0.000 C 
ATOM     10  N   UNL     1      -5.873  -1.078 130.482  0.00  0.00    +0.000 N 
ATOM     11  C   UNL     1      -5.433  -1.856 131.508  0.00  0.00    +0.000 C 
ATOM     12  O   UNL     1      -5.254  -3.048 131.234  0.00  0.00    +0.000 OA
ATOM     13  C   UNL     1      -5.164  -1.339 132.965  0.00  0.00    +0.000 C 
ATOM     14  C   UNL     1      -5.356   0.095 133.479  0.00  0.00    +0.000 C 
ATOM     15  S   UNL     1      -4.815   0.631 135.126  0.00  0.00    +0.000 S 
ATOM     16  S   UNL     1      -6.028   2.325 135.240  0.00  0.00    +0.000 S 
ATOM     17  C   UNL     1      -5.115   3.592 136.175  0.00  0.00    +0.000 C 
ATOM     18  C   UNL     1      -5.448   5.097 136.189  0.00  0.00    +0.000 C 
ATOM     19  N   UNL     1      -4.520   5.890 135.319  0.00  0.00    +0.000 N 
ATOM     20  C   UNL     1      -4.341   5.849 133.979  0.00  0.00    +0.000 C 
ATOM     21  O   UNL     1      -3.500   6.483 133.355  0.00  0.00    +0.000 OA
ATOM     22  C   UNL     1      -5.267   4.997 133.243  0.00  0.00    +0.000 C 
ATOM     23  N   UNL     1      -6.053   6.152 132.180  0.00  0.00    +0.000 N 
ATOM     24  C   UNL     1      -6.100   6.580 130.842  0.00  0.00    +0.000 C 
ATOM     25  O   UNL     1      -7.225   6.811 130.377  0.00  0.00    +0.000 OA
ATOM     26  H   UNL     1      -6.698   5.328 129.015  0.00  0.00    +0.000 HD
ATOM     27  H   UNL     1      -3.148   2.097 130.187  0.00  0.00    +0.000 HD
ATOM     28  H   UNL     1      -5.953  -1.507 129.568  0.00  0.00    +0.000 HD
ATOM     29  H   UNL     1      -3.966   6.614 135.770  0.00  0.00    +0.000 HD
ATOM     30  H   UNL     1      -7.069   6.095 132.145  0.00  0.00    +0.000 HD
ENDROOT
BRANCH  18  31
ATOM     31  C   UNL     1      -5.362   5.729 137.625  0.00  0.00    +0.000 C 
ATOM     32  O   UNL     1      -6.325   6.391 138.026  0.00  0.00    +0.000 OA
ATOM     33  N   UNL     1      -4.339   5.328 138.476  0.00  0.00    +0.000 N 
ATOM     34  C   UNL     1      -2.908   5.257 138.226  0.00  0.00    +0.000 C 
ATOM     35  C   UNL     1      -2.486   4.161 139.158  0.00  0.00    +0.000 C 
ATOM     36  C   UNL     1      -3.223   4.533 140.426  0.00  0.00    +0.000 C 
ATOM     37  C   UNL     1      -4.516   5.234 139.951  0.00  0.00    +0.000 C 
BRANCH  37  38
ATOM     38  C   UNL     1      -4.489   6.594 140.667  0.00  0.00    +0.000 C 
ATOM     39  O   UNL     1      -3.718   6.784 141.609  0.00  0.00    +0.000 OA
ATOM     40  N   UNL     1      -5.436   7.537 140.278  0.00  0.00    +0.000 N 
ATOM     41  H   UNL     1      -6.259   7.264 139.750  0.00  0.00    +0.000 HD
BRANCH  40  42
ATOM     42  C   UNL     1      -5.399   8.941 140.748  0.00  0.00    +0.000 C 
BRANCH  42  43
ATOM     43  C   UNL     1      -6.732   9.686 140.387  0.00  0.00    +0.000 C 
ATOM     44  O   UNL     1      -7.025  10.769 140.893  0.00  0.00    +0.000 OA
ATOM     45  N   UNL     1      -7.551   9.058 139.463  0.00  0.00    +0.000 N 
ATOM     46  H   UNL     1      -7.252   8.186 139.064  0.00  0.00    +0.000 HD
BRANCH  45  47
ATOM     47  C   UNL     1      -8.839   9.618 139.045  0.00  0.00    +0.000 C 
BRANCH  47  48
ATOM     48  C   UNL     1      -9.682   8.757 138.085  0.00  0.00    +0.000 C 
ATOM     49  N   UNL     1      -9.068   7.720 137.439  0.00  0.00    +0.000 N 
ATOM     50  O   UNL     1     -10.876   8.964 137.884  0.00  0.00    +0.000 OA
ATOM     51  H   UNL     1      -8.101   7.463 137.518  0.00  0.00    +0.000 HD
ATOM     52  H   UNL     1      -9.639   7.170 136.808  0.00  0.00    +0.000 HD
ENDBRANCH  47  48
ENDBRANCH  45  47
ENDBRANCH  42  43
BRANCH  42  53
ATOM     53  C   UNL     1      -4.209   9.693 140.113  0.00  0.00    +0.000 C 
BRANCH  53  54
ATOM     54  C   UNL     1      -4.172   9.546 138.596  0.00  0.00    +0.000 C 
BRANCH  54  55
ATOM     55  C   UNL     1      -2.966   8.838 138.055  0.00  0.00    +0.000 C 
BRANCH  55  56
ATOM     56  N   UNL     1      -3.197   8.588 136.633  0.00  0.00    +0.000 NA
ATOM     57  C   UNL     1      -2.406   9.181 135.817  0.00  0.00    +0.000 C 
ATOM     58  N   UNL     1      -1.385   9.985 136.155  0.00  0.00    +0.000 N 
ATOM     59  N   UNL     1      -2.556   9.024 134.493  0.00  0.00    +0.000 N 
ATOM     60  H   UNL     1      -1.210  10.167 137.132  0.00  0.00    +0.000 HD
ATOM     61  H   UNL     1      -0.770  10.411 135.486  0.00  0.00    +0.000 HD
ATOM     62  H   UNL     1      -3.322   8.438 134.181  0.00  0.00    +0.000 HD
ATOM     63  H   UNL     1      -1.958   9.440 133.801  0.00  0.00    +0.000 HD
ENDBRANCH  55  56
ENDBRANCH  54  55
ENDBRANCH  53  54
ENDBRANCH  42  53
ENDBRANCH  40  42
ENDBRANCH  37  38
ENDBRANCH  18  31
BRANCH   9  64
ATOM     64  C   UNL     1      -7.484   0.444 131.500  0.00  0.00    +0.000 C 
BRANCH  64  65
ATOM     65  C   UNL     1      -8.346   1.653 131.400  0.00  0.00    +0.000 A 
ATOM     66  C   UNL     1      -8.007   2.583 132.272  0.00  0.00    +0.000 A 
ATOM     67  C   UNL     1      -8.616   3.785 132.275  0.00  0.00    +0.000 A 
ATOM     68  C   UNL     1      -9.781   4.124 131.625  0.00  0.00    +0.000 A 
ATOM     69  C   UNL     1     -10.217   3.166 130.769  0.00  0.00    +0.000 A 
ATOM     70  C   UNL     1      -9.464   1.962 130.617  0.00  0.00    +0.000 A 
BRANCH  68  71
ATOM     71  O   UNL     1     -10.596   5.203 131.862  0.00  0.00    +0.000 OA
ATOM     72  H   UNL     1     -10.669   5.649 132.735  0.00  0.00    +0.000 HD
ENDBRANCH  68  71
ENDBRANCH  64  65
ENDBRANCH   9  64
BRANCH   5  73
ATOM     73  C   UNL     1      -4.825   1.588 127.772  0.00  0.00    +0.000 C 
BRANCH  73  74
ATOM     74  C   UNL     1      -5.119   2.208 126.463  0.00  0.00    +0.000 A 
ATOM     75  C   UNL     1      -4.425   3.333 125.997  0.00  0.00    +0.000 A 
ATOM     76  C   UNL     1      -4.898   4.114 124.984  0.00  0.00    +0.000 A 
ATOM     77  C   UNL     1      -5.871   3.558 124.192  0.00  0.00    +0.000 A 
ATOM     78  C   UNL     1      -6.491   2.352 124.552  0.00  0.00    +0.000 A 
ATOM     79  C   UNL     1      -6.166   1.703 125.728  0.00  0.00    +0.000 A 
ENDBRANCH  73  74
ENDBRANCH   5  73
BRANCH   1  80
ATOM     80  C   UNL     1      -3.434   6.513 129.897  0.00  0.00    +0.000 C 
BRANCH  80  81
ATOM     81  C   UNL     1      -3.507   7.944 130.180  0.00  0.00    +0.000 C 
BRANCH  81  82
ATOM     82  C   UNL     1      -3.681   8.714 128.926  0.00  0.00    +0.000 C 
BRANCH  82  83
ATOM     83  N   UNL     1      -4.048  10.004 129.455  0.00  0.00    +0.000 NA
ATOM     84  H   UNL     1      -4.740  10.432 128.857  0.00  0.00    +0.000 HD
ATOM     85  H   UNL     1      -3.220  10.602 129.468  0.00  0.00    +0.000 HD
ENDBRANCH  82  83
ENDBRANCH  81  82
ENDBRANCH  80  81
ENDBRANCH   1  80
BRANCH  22  86
ATOM     86  C   UNL     1      -4.381   3.585 132.980  0.00  0.00    +0.000 C 
BRANCH  86  87
ATOM     87  C   UNL     1      -3.050   3.800 132.429  0.00  0.00    +0.000 C 
ATOM     88  N   UNL     1      -2.309   3.667 133.472  0.00  0.00    +0.000 N 
ATOM     89  O   UNL     1      -2.545   4.300 131.407  0.00  0.00    +0.000 OA
ATOM     90  H   UNL     1      -2.734   3.021 134.092  0.00  0.00    +0.000 HD
ATOM     91  H   UNL     1      -1.317   3.739 133.415  0.00  0.00    +0.000 HD
ENDBRANCH  86  87
ENDBRANCH  22  86
TORSDOF 21
ENDMDL
MODEL 9
REMARK VINA RESULT:      -7.4      4.007      7.360
REMARK  Name = CHEMBL375096
REMARK  21 active torsions:
REMARK  status: ('A' for Active; 'I' for Inactive)
REMARK    1  A    between atoms: N_1  and  C_2
REMARK    2  A    between atoms: C_2  and  C_3
REMARK    3  A    between atoms: C_3  and  C_4
REMARK    4  A    between atoms: C_4  and  C_5
REMARK    5  A    between atoms: C_9  and  C_10
REMARK    6  A    between atoms: C_10  and  C_11
REMARK    7  A    between atoms: C_20  and  C_21
REMARK    8  A    between atoms: C_21  and  C_22
REMARK    9  A    between atoms: C_25  and  O_26
REMARK   10  A    between atoms: C_37  and  C_38
REMARK   11  A    between atoms: C_44  and  C_45
REMARK   12  A    between atoms: N_47  and  C_48
REMARK   13  A    between atoms: C_48  and  C_49
REMARK   14  A    between atoms: C_48  and  C_56
REMARK   15  A    between atoms: C_49  and  C_50
REMARK   16  A    between atoms: C_50  and  C_51
REMARK   17  A    between atoms: C_51  and  N_52
REMARK   18  A    between atoms: N_58  and  C_59
REMARK   19  A    between atoms: C_59  and  C_60
REMARK   20  A    between atoms: C_66  and  C_67
REMARK   21  A    between atoms: C_67  and  C_68
REMARK                            x       y       z     vdW  Elec       q    Type
REMARK                         _______ _______ _______ _____ _____    ______ ____
ROOT
ATOM      1  C   UNL     1      -5.636  -1.376 130.979  0.00  0.00    +0.000 C 
ATOM      2  N   UNL     1      -5.491  -0.808 129.455  0.00  0.00    +0.000 N 
ATOM      3  C   UNL     1      -5.961   0.108 128.490  0.00  0.00    +0.000 C 
ATOM      4  O   UNL     1      -5.127   0.722 127.804  0.00  0.00    +0.000 OA
ATOM      5  C   UNL     1      -7.491   0.222 128.108  0.00  0.00    +0.000 C 
ATOM      6  N   UNL     1      -8.299   1.266 128.667  0.00  0.00    +0.000 N 
ATOM      7  C   UNL     1      -8.353   2.587 128.436  0.00  0.00    +0.000 C 
ATOM      8  O   UNL     1      -9.394   3.074 128.900  0.00  0.00    +0.000 OA
ATOM      9  C   UNL     1      -7.203   3.406 127.582  0.00  0.00    +0.000 C 
ATOM     10  N   UNL     1      -8.066   4.167 126.738  0.00  0.00    +0.000 N 
ATOM     11  C   UNL     1      -8.808   5.226 127.164  0.00  0.00    +0.000 C 
ATOM     12  O   UNL     1      -9.497   5.777 126.298  0.00  0.00    +0.000 OA
ATOM     13  C   UNL     1      -8.822   5.767 128.637  0.00  0.00    +0.000 C 
ATOM     14  C   UNL     1      -8.015   5.220 129.823  0.00  0.00    +0.000 C 
ATOM     15  S   UNL     1      -8.266   5.785 131.529  0.00  0.00    +0.000 S 
ATOM     16  S   UNL     1      -6.427   5.135 132.271  0.00  0.00    +0.000 S 
ATOM     17  C   UNL     1      -6.685   4.615 133.997  0.00  0.00    +0.000 C 
ATOM     18  C   UNL     1      -5.718   3.732 134.811  0.00  0.00    +0.000 C 
ATOM     19  N   UNL     1      -6.196   2.316 134.915  0.00  0.00    +0.000 N 
ATOM     20  C   UNL     1      -6.372   1.387 133.947  0.00  0.00    +0.000 C 
ATOM     21  O   UNL     1      -6.844   0.269 134.112  0.00  0.00    +0.000 OA
ATOM     22  C   UNL     1      -5.919   1.769 132.615  0.00  0.00    +0.000 C 
ATOM     23  N   UNL     1      -4.700   0.549 132.285  0.00  0.00    +0.000 N 
ATOM     24  C   UNL     1      -4.466  -0.615 131.533  0.00  0.00    +0.000 C 
ATOM     25  O   UNL     1      -3.354  -0.707 130.994  0.00  0.00    +0.000 OA
ATOM     26  H   UNL     1      -4.481  -0.805 129.247  0.00  0.00    +0.000 HD
ATOM     27  H   UNL     1      -9.099   0.954 129.228  0.00  0.00    +0.000 HD
ATOM     28  H   UNL     1      -8.184   3.868 125.778  0.00  0.00    +0.000 HD
ATOM     29  H   UNL     1      -6.372   1.952 135.848  0.00  0.00    +0.000 HD
ATOM     30  H   UNL     1      -3.815   0.900 131.924  0.00  0.00    +0.000 HD
ENDROOT
BRANCH  18  31
ATOM     31  C   UNL     1      -5.518   4.243 136.283  0.00  0.00    +0.000 C 
ATOM     32  O   UNL     1      -6.125   5.263 136.632  0.00  0.00    +0.000 OA
ATOM     33  N   UNL     1      -4.879   3.418 137.202  0.00  0.00    +0.000 N 
ATOM     34  C   UNL     1      -3.611   2.715 137.082  0.00  0.00    +0.000 C 
ATOM     35  C   UNL     1      -3.825   1.537 137.983  0.00  0.00    +0.000 C 
ATOM     36  C   UNL     1      -4.453   2.186 139.197  0.00  0.00    +0.000 C 
ATOM     37  C   UNL     1      -5.240   3.397 138.645  0.00  0.00    +0.000 C 
BRANCH  37  38
ATOM     38  C   UNL     1      -4.690   4.594 139.439  0.00  0.00    +0.000 C 
ATOM     39  O   UNL     1      -3.796   4.428 140.271  0.00  0.00    +0.000 OA
ATOM     40  N   UNL     1      -5.316   5.822 139.254  0.00  0.00    +0.000 N 
ATOM     41  H   UNL     1      -6.238   5.881 138.833  0.00  0.00    +0.000 HD
BRANCH  40  42
ATOM     42  C   UNL     1      -4.771   7.084 139.806  0.00  0.00    +0.000 C 
BRANCH  42  43
ATOM     43  C   UNL     1      -5.859   7.846 140.640  0.00  0.00    +0.000 C 
ATOM     44  O   UNL     1      -6.041   7.613 141.834  0.00  0.00    +0.000 OA
ATOM     45  N   UNL     1      -6.596   8.798 139.955  0.00  0.00    +0.000 N 
ATOM     46  H   UNL     1      -6.392   8.965 138.985  0.00  0.00    +0.000 HD
BRANCH  45  47
ATOM     47  C   UNL     1      -7.665   9.574 140.591  0.00  0.00    +0.000 C 
BRANCH  47  48
ATOM     48  C   UNL     1      -8.146  10.827 139.835  0.00  0.00    +0.000 C 
ATOM     49  N   UNL     1      -7.212  11.745 139.444  0.00  0.00    +0.000 N 
ATOM     50  O   UNL     1      -9.329  11.028 139.570  0.00  0.00    +0.000 OA
ATOM     51  H   UNL     1      -6.223  11.691 139.612  0.00  0.00    +0.000 HD
ATOM     52  H   UNL     1      -7.550  12.564 138.954  0.00  0.00    +0.000 HD
ENDBRANCH  47  48
ENDBRANCH  45  47
ENDBRANCH  42  43
BRANCH  42  53
ATOM     53  C   UNL     1      -4.270   8.000 138.668  0.00  0.00    +0.000 C 
BRANCH  53  54
ATOM     54  C   UNL     1      -3.233   7.314 137.785  0.00  0.00    +0.000 C 
BRANCH  54  55
ATOM     55  C   UNL     1      -3.396   7.552 136.313  0.00  0.00    +0.000 C 
BRANCH  55  56
ATOM     56  N   UNL     1      -2.873   6.379 135.612  0.00  0.00    +0.000 NA
ATOM     57  C   UNL     1      -2.100   6.612 134.617  0.00  0.00    +0.000 C 
ATOM     58  N   UNL     1      -1.719   7.824 134.182  0.00  0.00    +0.000 N 
ATOM     59  N   UNL     1      -1.589   5.596 133.905  0.00  0.00    +0.000 N 
ATOM     60  H   UNL     1      -2.069   8.643 134.655  0.00  0.00    +0.000 HD
ATOM     61  H   UNL     1      -1.089   7.965 133.414  0.00  0.00    +0.000 HD
ATOM     62  H   UNL     1      -1.856   4.659 134.181  0.00  0.00    +0.000 HD
ATOM     63  H   UNL     1      -0.959   5.707 133.130  0.00  0.00    +0.000 HD
ENDBRANCH  55  56
ENDBRANCH  54  55
ENDBRANCH  53  54
ENDBRANCH  42  53
ENDBRANCH  40  42
ENDBRANCH  37  38
ENDBRANCH  18  31
BRANCH   9  64
ATOM     64  C   UNL     1      -5.949   4.368 127.933  0.00  0.00    +0.000 C 
BRANCH  64  65
ATOM     65  C   UNL     1      -4.561   3.936 127.619  0.00  0.00    +0.000 A 
ATOM     66  C   UNL     1      -4.361   3.794 126.322  0.00  0.00    +0.000 A 
ATOM     67  C   UNL     1      -3.141   3.493 125.838  0.00  0.00    +0.000 A 
ATOM     68  C   UNL     1      -2.055   3.041 126.553  0.00  0.00    +0.000 A 
ATOM     69  C   UNL     1      -2.236   3.094 127.896  0.00  0.00    +0.000 A 
ATOM     70  C   UNL     1      -3.465   3.598 128.422  0.00  0.00    +0.000 A 
BRANCH  68  71
ATOM     71  O   UNL     1      -0.929   2.419 126.073  0.00  0.00    +0.000 OA
ATOM     72  H   UNL     1      -0.015   2.668 126.336  0.00  0.00    +0.000 HD
ENDBRANCH  68  71
ENDBRANCH  64  65
ENDBRANCH   9  64
BRANCH   5  73
ATOM     73  C   UNL     1      -7.818   0.233 126.633  0.00  0.00    +0.000 C 
BRANCH  73  74
ATOM     74  C   UNL     1      -7.874  -1.135 126.076  0.00  0.00    +0.000 A 
ATOM     75  C   UNL     1      -6.773  -1.730 125.445  0.00  0.00    +0.000 A 
ATOM     76  C   UNL     1      -6.898  -2.819 124.634  0.00  0.00    +0.000 A 
ATOM     77  C   UNL     1      -8.063  -3.536 124.755  0.00  0.00    +0.000 A 
ATOM     78  C   UNL     1      -9.141  -3.038 125.501  0.00  0.00    +0.000 A 
ATOM     79  C   UNL     1      -9.078  -1.800 126.112  0.00  0.00    +0.000 A 
ENDBRANCH  73  74
ENDBRANCH   5  73
BRANCH   1  80
ATOM     80  C   UNL     1      -6.883  -2.085 131.578  0.00  0.00    +0.000 C 
BRANCH  80  81
ATOM     81  C   UNL     1      -6.164  -3.120 132.316  0.00  0.00    +0.000 C 
BRANCH  81  82
ATOM     82  C   UNL     1      -6.734  -3.281 133.674  0.00  0.00    +0.000 C 
BRANCH  82  83
ATOM     83  N   UNL     1      -5.789  -2.518 134.452  0.00  0.00    +0.000 NA
ATOM     84  H   UNL     1      -4.852  -2.707 134.128  0.00  0.00    +0.000 HD
ATOM     85  H   UNL     1      -5.857  -2.808 135.429  0.00  0.00    +0.000 HD
ENDBRANCH  82  83
ENDBRANCH  81  82
ENDBRANCH  80  81
ENDBRANCH   1  80
BRANCH  22  86
ATOM     86  C   UNL     1      -7.339   2.240 131.834  0.00  0.00    +0.000 C 
BRANCH  86  87
ATOM     87  C   UNL     1      -8.561   1.923 132.560  0.00  0.00    +0.000 C 
ATOM     88  N   UNL     1      -8.963   0.865 131.949  0.00  0.00    +0.000 N 
ATOM     89  O   UNL     1      -9.358   2.501 133.322  0.00  0.00    +0.000 OA
ATOM     90  H   UNL     1      -8.175   0.364 131.615  0.00  0.00    +0.000 HD
ATOM     91  H   UNL     1      -9.787   0.383 132.233  0.00  0.00    +0.000 HD
ENDBRANCH  86  87
ENDBRANCH  22  86
TORSDOF 21
ENDMDL
