MODEL 1
REMARK VINA RESULT:     -10.5      0.000      0.000
REMARK  Name = CHEMBL3814120
REMARK  25 active torsions:
REMARK  status: ('A' for Active; 'I' for Inactive)
REMARK    1  A    between atoms: C_1  and  C_2
REMARK    2  A    between atoms: C_2  and  C_3
REMARK    3  A    between atoms: C_3  and  C_4
REMARK    4  A    between atoms: C_3  and  C_5
REMARK    5  A    between atoms: C_9  and  C_10
REMARK    6  A    between atoms: C_10  and  C_11
REMARK    7  A    between atoms: C_14  and  O_15
REMARK    8  A    between atoms: C_21  and  N_22
REMARK    9  A    between atoms: C_27  and  C_28
REMARK   10  A    between atoms: C_34  and  C_35
REMARK   11  A    between atoms: N_37  and  C_38
REMARK   12  A    between atoms: C_38  and  C_39
REMARK   13  A    between atoms: C_38  and  C_43
REMARK   14  A    between atoms: C_39  and  C_40
REMARK   15  A    between atoms: C_40  and  C_41
REMARK   16  A    between atoms: C_40  and  C_42
REMARK   17  A    between atoms: N_45  and  C_46
REMARK   18  A    between atoms: N_45  and  C_47
REMARK   19  A    between atoms: C_47  and  C_48
REMARK   20  A    between atoms: N_51  and  C_52
REMARK   21  A    between atoms: C_55  and  C_56
REMARK   22  A    between atoms: C_56  and  C_57
REMARK   23  A    between atoms: C_63  and  C_64
REMARK   24  A    between atoms: C_64  and  C_65
REMARK   25  A    between atoms: C_65  and  C_66
REMARK                            x       y       z     vdW  Elec       q    Type
REMARK                         _______ _______ _______ _____ _____    ______ ____
ROOT
ATOM      1  C   UNL     1      -3.558   1.858 132.785  0.00  0.00    +0.000 C 
ATOM      2  N   UNL     1      -2.577   4.364 133.700  0.00  0.00    +0.000 N 
ATOM      3  C   UNL     1      -1.750   6.844 134.561  0.00  0.00    +0.000 C 
ATOM      4  O   UNL     1      -0.655   8.140 135.344  0.00  0.00    +0.000 OA
ATOM      5  C   UNL     1      -1.818   9.542 135.312  0.00  0.00    +0.000 C 
ATOM      6  N   UNL     1      -2.296  11.036 134.613  0.00  0.00    +0.000 N 
ATOM      7  C   UNL     1      -2.202   9.862 134.027  0.00  0.00    +0.000 C 
ATOM      8  O   UNL     1      -2.380   9.555 132.894  0.00  0.00    +0.000 OA
ATOM      9  C   UNL     1      -2.231   8.423 134.706  0.00  0.00    +0.000 C 
ATOM     10  C   UNL     1      -3.037   7.472 135.335  0.00  0.00    +0.000 C 
ATOM     11  S   UNL     1      -3.136   6.950 133.332  0.00  0.00    +0.000 S 
ATOM     12  S   UNL     1      -4.374   5.443 133.704  0.00  0.00    +0.000 S 
ATOM     13  C   UNL     1      -4.457   4.567 132.113  0.00  0.00    +0.000 C 
ATOM     14  C   UNL     1      -5.445   3.499 132.206  0.00  0.00    +0.000 C 
ATOM     15  N   UNL     1      -4.900   2.789 133.203  0.00  0.00    +0.000 N 
ATOM     16  C   UNL     1      -4.556   2.764 134.547  0.00  0.00    +0.000 C 
ATOM     17  C   UNL     1      -5.532   1.667 133.250  0.00  0.00    +0.000 C 
ATOM     18  O   UNL     1      -5.213   1.362 132.065  0.00  0.00    +0.000 OA
ATOM     19  C   UNL     1      -4.317   0.192 133.769  0.00  0.00    +0.000 C 
ATOM     20  N   UNL     1      -5.035  -1.023 133.843  0.00  0.00    +0.000 N 
ATOM     21  C   UNL     1      -4.954  -2.040 132.800  0.00  0.00    +0.000 C 
ATOM     22  O   UNL     1      -5.953  -3.495 132.670  0.00  0.00    +0.000 OA
ATOM     23  C   UNL     1      -4.716  -1.196 130.768  0.00  0.00    +0.000 C 
ATOM     24  N   UNL     1      -3.995  -2.253 130.572  0.00  0.00    +0.000 N 
ATOM     25  C   UNL     1      -3.840  -0.653 131.877  0.00  0.00    +0.000 C 
ATOM     26  O   UNL     1      -3.902  -2.402 131.223  0.00  0.00    +0.000 OA
ATOM     27  H   UNL     1      -1.834   5.813 134.290  0.00  0.00    +0.000 HD
ATOM     28  H   UNL     1      -2.700  11.845 134.057  0.00  0.00    +0.000 HD
ATOM     29  H   UNL     1      -5.528  -1.285 134.613  0.00  0.00    +0.000 HD
ATOM     30  H   UNL     1      -3.098  -2.621 130.292  0.00  0.00    +0.000 HD
ENDROOT
BRANCH  14  31
ATOM     31  C   UNL     1      -5.718   2.866 130.790  0.00  0.00    +0.000 C 
ATOM     32  O   UNL     1      -4.904   2.326 130.087  0.00  0.00    +0.000 OA
ATOM     33  N   UNL     1      -6.998   2.918 130.268  0.00  0.00    +0.000 N 
ATOM     34  C   UNL     1      -7.802   4.111 130.277  0.00  0.00    +0.000 C 
ATOM     35  C   UNL     1      -9.196   3.575 130.375  0.00  0.00    +0.000 C 
ATOM     36  C   UNL     1      -9.180   2.421 129.379  0.00  0.00    +0.000 C 
ATOM     37  C   UNL     1      -7.768   1.889 129.472  0.00  0.00    +0.000 C 
BRANCH  37  38
ATOM     38  C   UNL     1      -7.524   1.949 127.989  0.00  0.00    +0.000 C 
ATOM     39  O   UNL     1      -8.744   2.116 127.212  0.00  0.00    +0.000 OA
ATOM     40  N   UNL     1      -6.305   2.514 127.422  0.00  0.00    +0.000 N 
ATOM     41  H   UNL     1      -5.469   2.382 127.945  0.00  0.00    +0.000 HD
BRANCH  40  42
ATOM     42  C   UNL     1      -6.176   3.008 126.019  0.00  0.00    +0.000 C 
BRANCH  42  43
ATOM     43  C   UNL     1      -6.517   1.866 125.028  0.00  0.00    +0.000 C 
ATOM     44  O   UNL     1      -5.918   0.788 125.130  0.00  0.00    +0.000 OA
ATOM     45  N   UNL     1      -7.509   2.096 124.039  0.00  0.00    +0.000 N 
ATOM     46  C   UNL     1      -8.174   3.365 123.975  0.00  0.00    +0.000 C 
BRANCH  45  47
ATOM     47  C   UNL     1      -7.861   1.032 123.074  0.00  0.00    +0.000 C 
BRANCH  47  48
ATOM     48  C   UNL     1      -9.240   0.406 123.365  0.00  0.00    +0.000 C 
ATOM     49  N   UNL     1     -10.277   0.519 122.440  0.00  0.00    +0.000 N 
ATOM     50  O   UNL     1      -9.439  -0.199 124.418  0.00  0.00    +0.000 OA
ATOM     51  H   UNL     1     -10.256   0.963 121.582  0.00  0.00    +0.000 HD
ATOM     52  H   UNL     1     -11.187   0.156 122.532  0.00  0.00    +0.000 HD
ENDBRANCH  47  48
ENDBRANCH  45  47
ENDBRANCH  42  43
BRANCH  42  53
ATOM     53  C   UNL     1      -4.772   3.513 125.755  0.00  0.00    +0.000 C 
BRANCH  53  54
ATOM     54  C   UNL     1      -3.976   3.615 127.021  0.00  0.00    +0.000 C 
ATOM     55  C   UNL     1      -2.627   3.114 126.877  0.00  0.00    +0.000 C 
ATOM     56  C   UNL     1      -3.802   5.020 127.406  0.00  0.00    +0.000 C 
ENDBRANCH  53  54
ENDBRANCH  42  53
ENDBRANCH  40  42
ENDBRANCH  37  38
ENDBRANCH  14  31
BRANCH   9  57
ATOM     57  N   UNL     1      -1.413   8.874 136.729  0.00  0.00    +0.000 NA
ATOM     58  H   UNL     1      -0.995   8.082 136.983  0.00  0.00    +0.000 HD
ATOM     59  H   UNL     1      -2.074   8.158 137.527  0.00  0.00    +0.000 HD
ENDBRANCH   9  57
BRANCH   1  60
ATOM     60  C   UNL     1      -5.432  -0.197 132.157  0.00  0.00    +0.000 C 
ATOM     61  C   UNL     1      -7.345  -1.763 131.348  0.00  0.00    +0.000 C 
BRANCH  60  63
ATOM     62  C   UNL     1      -8.988  -0.239 132.093  0.00  0.00    +0.000 C 
ATOM     63  C   UNL     1      -7.266  -1.197 131.989  0.00  0.00    +0.000 C 
ENDBRANCH  60  63
ENDBRANCH   1  60
BRANCH  19  64
ATOM     64  C   UNL     1      -2.686  -0.527 133.128  0.00  0.00    +0.000 C 
BRANCH  64  65
ATOM     65  C   UNL     1      -1.861  -0.967 134.410  0.00  0.00    +0.000 C 
ATOM     66  N   UNL     1      -0.457  -0.916 134.408  0.00  0.00    +0.000 N 
ATOM     67  O   UNL     1      -2.428  -1.436 135.371  0.00  0.00    +0.000 OA
ATOM     68  H   UNL     1       0.008  -0.390 133.698  0.00  0.00    +0.000 HD
ATOM     69  H   UNL     1       0.151  -1.000 135.172  0.00  0.00    +0.000 HD
ENDBRANCH  64  65
ENDBRANCH  19  64
BRANCH   5  70
ATOM     70  C   UNL     1      -2.886  10.621 136.941  0.00  0.00    +0.000 C 
BRANCH  70  71
ATOM     71  C   UNL     1      -4.328  10.462 137.539  0.00  0.00    +0.000 A 
ATOM     72  C   UNL     1      -5.202   9.459 137.158  0.00  0.00    +0.000 A 
ATOM     73  C   UNL     1      -6.480   9.371 137.695  0.00  0.00    +0.000 A 
ATOM     74  C   UNL     1      -6.872  10.297 138.642  0.00  0.00    +0.000 A 
ATOM     75  C   UNL     1      -6.017  11.314 139.009  0.00  0.00    +0.000 A 
ATOM     76  C   UNL     1      -4.756  11.386 138.469  0.00  0.00    +0.000 A 
BRANCH  74  77
ATOM     77  O   UNL     1      -8.087  10.290 139.248  0.00  0.00    +0.000 OA
ATOM     78  H   UNL     1      -8.567  11.126 139.276  0.00  0.00    +0.000 HD
ENDBRANCH  74  77
ENDBRANCH  70  71
ENDBRANCH   5  70
BRANCH  23  79
ATOM     79  C   UNL     1      -5.992  -0.892 130.030  0.00  0.00    +0.000 C 
BRANCH  79  80
ATOM     80  C   UNL     1      -6.051  -0.997 128.206  0.00  0.00    +0.000 C 
BRANCH  80  81
ATOM     81  C   UNL     1      -7.122  -1.686 127.748  0.00  0.00    +0.000 C 
ATOM     82  N   UNL     1      -7.940  -1.059 126.967  0.00  0.00    +0.000 N 
ATOM     83  O   UNL     1      -7.216  -2.844 128.076  0.00  0.00    +0.000 OA
ATOM     84  H   UNL     1      -7.754  -0.218 126.609  0.00  0.00    +0.000 HD
ATOM     85  H   UNL     1      -8.685  -1.478 126.504  0.00  0.00    +0.000 HD
ENDBRANCH  80  81
ENDBRANCH  79  80
ENDBRANCH  23  79
TORSDOF 19
ENDMDL
MODEL 2
REMARK VINA RESULT:     -10.5      1.256      1.413
REMARK  Name = CHEMBL3814120
REMARK  25 active torsions:
REMARK  status: ('A' for Active; 'I' for Inactive)
REMARK    1  A    between atoms: C_1  and  C_2
REMARK    2  A    between atoms: C_2  and  C_3
REMARK    3  A    between atoms: C_3  and  C_4
REMARK    4  A    between atoms: C_3  and  C_5
REMARK    5  A    between atoms: C_9  and  C_10
REMARK    6  A    between atoms: C_10  and  C_11
REMARK    7  A    between atoms: C_14  and  O_15
REMARK    8  A    between atoms: C_21  and  N_22
REMARK    9  A    between atoms: C_27  and  C_28
REMARK   10  A    between atoms: C_34  and  C_35
REMARK   11  A    between atoms: N_37  and  C_38
REMARK   12  A    between atoms: C_38  and  C_39
REMARK   13  A    between atoms: C_38  and  C_43
REMARK   14  A    between atoms: C_39  and  C_40
REMARK   15  A    between atoms: C_40  and  C_41
REMARK   16  A    between atoms: C_40  and  C_42
REMARK   17  A    between atoms: N_45  and  C_46
REMARK   18  A    between atoms: N_45  and  C_47
REMARK   19  A    between atoms: C_47  and  C_48
REMARK   20  A    between atoms: N_51  and  C_52
REMARK   21  A    between atoms: C_55  and  C_56
REMARK   22  A    between atoms: C_56  and  C_57
REMARK   23  A    between atoms: C_63  and  C_64
REMARK   24  A    between atoms: C_64  and  C_65
REMARK   25  A    between atoms: C_65  and  C_66
REMARK                            x       y       z     vdW  Elec       q    Type
REMARK                         _______ _______ _______ _____ _____    ______ ____
ROOT
ATOM      1  C   UNL     1      -3.551   0.973 132.548  0.00  0.00    +0.000 C 
ATOM      2  N   UNL     1      -2.594   3.517 133.378  0.00  0.00    +0.000 N 
ATOM      3  C   UNL     1      -1.793   6.030 134.165  0.00  0.00    +0.000 C 
ATOM      4  O   UNL     1      -0.690   7.369 134.860  0.00  0.00    +0.000 OA
ATOM      5  C   UNL     1      -1.900   8.729 134.906  0.00  0.00    +0.000 C 
ATOM      6  N   UNL     1      -2.479  10.201 134.237  0.00  0.00    +0.000 N 
ATOM      7  C   UNL     1      -2.388   9.027 133.651  0.00  0.00    +0.000 C 
ATOM      8  O   UNL     1      -2.636   8.705 132.535  0.00  0.00    +0.000 OA
ATOM      9  C   UNL     1      -2.317   7.592 134.337  0.00  0.00    +0.000 C 
ATOM     10  C   UNL     1      -3.042   6.619 135.028  0.00  0.00    +0.000 C 
ATOM     11  S   UNL     1      -3.268   6.080 133.040  0.00  0.00    +0.000 S 
ATOM     12  S   UNL     1      -4.422   4.534 133.507  0.00  0.00    +0.000 S 
ATOM     13  C   UNL     1      -4.590   3.643 131.931  0.00  0.00    +0.000 C 
ATOM     14  C   UNL     1      -5.531   2.543 132.101  0.00  0.00    +0.000 C 
ATOM     15  N   UNL     1      -4.890   1.859 133.059  0.00  0.00    +0.000 N 
ATOM     16  C   UNL     1      -4.449   1.856 134.374  0.00  0.00    +0.000 C 
ATOM     17  C   UNL     1      -5.478   0.717 133.157  0.00  0.00    +0.000 C 
ATOM     18  O   UNL     1      -5.236   0.415 131.953  0.00  0.00    +0.000 OA
ATOM     19  C   UNL     1      -4.178  -0.712 133.593  0.00  0.00    +0.000 C 
ATOM     20  N   UNL     1      -4.845  -1.950 133.724  0.00  0.00    +0.000 N 
ATOM     21  C   UNL     1      -4.805  -2.972 132.683  0.00  0.00    +0.000 C 
ATOM     22  O   UNL     1      -5.760  -4.460 132.634  0.00  0.00    +0.000 OA
ATOM     23  C   UNL     1      -4.745  -2.134 130.636  0.00  0.00    +0.000 C 
ATOM     24  N   UNL     1      -4.004  -3.167 130.393  0.00  0.00    +0.000 N 
ATOM     25  C   UNL     1      -3.810  -1.554 131.675  0.00  0.00    +0.000 C 
ATOM     26  O   UNL     1      -3.859  -3.308 131.035  0.00  0.00    +0.000 OA
ATOM     27  H   UNL     1      -1.861   4.995 133.905  0.00  0.00    +0.000 HD
ATOM     28  H   UNL     1      -2.951  10.991 133.708  0.00  0.00    +0.000 HD
ATOM     29  H   UNL     1      -5.272  -2.223 134.529  0.00  0.00    +0.000 HD
ATOM     30  H   UNL     1      -3.117  -3.506 130.049  0.00  0.00    +0.000 HD
ENDROOT
BRANCH  14  31
ATOM     31  C   UNL     1      -5.884   1.891 130.712  0.00  0.00    +0.000 C 
ATOM     32  O   UNL     1      -5.157   1.196 130.050  0.00  0.00    +0.000 OA
ATOM     33  N   UNL     1      -7.133   2.117 130.164  0.00  0.00    +0.000 N 
ATOM     34  C   UNL     1      -7.741   3.419 130.101  0.00  0.00    +0.000 C 
ATOM     35  C   UNL     1      -9.202   3.113 130.197  0.00  0.00    +0.000 C 
ATOM     36  C   UNL     1      -9.357   1.922 129.257  0.00  0.00    +0.000 C 
ATOM     37  C   UNL     1      -8.046   1.182 129.403  0.00  0.00    +0.000 C 
BRANCH  37  38
ATOM     38  C   UNL     1      -7.779   1.130 127.923  0.00  0.00    +0.000 C 
ATOM     39  O   UNL     1      -8.603   2.054 127.158  0.00  0.00    +0.000 OA
ATOM     40  N   UNL     1      -6.462   0.823 127.379  0.00  0.00    +0.000 N 
ATOM     41  H   UNL     1      -5.908   0.176 127.893  0.00  0.00    +0.000 HD
BRANCH  40  42
ATOM     42  C   UNL     1      -6.013   1.177 125.999  0.00  0.00    +0.000 C 
BRANCH  42  43
ATOM     43  C   UNL     1      -6.202  -0.040 125.060  0.00  0.00    +0.000 C 
ATOM     44  O   UNL     1      -5.487  -1.038 125.224  0.00  0.00    +0.000 OA
ATOM     45  N   UNL     1      -7.190   0.030 124.043  0.00  0.00    +0.000 N 
ATOM     46  C   UNL     1      -7.992   1.210 123.906  0.00  0.00    +0.000 C 
BRANCH  45  47
ATOM     47  C   UNL     1      -7.398  -1.111 123.125  0.00  0.00    +0.000 C 
BRANCH  47  48
ATOM     48  C   UNL     1      -8.344  -2.177 123.714  0.00  0.00    +0.000 C 
ATOM     49  N   UNL     1      -7.836  -3.232 124.470  0.00  0.00    +0.000 N 
ATOM     50  O   UNL     1      -9.557  -2.106 123.522  0.00  0.00    +0.000 OA
ATOM     51  H   UNL     1      -6.913  -3.405 124.696  0.00  0.00    +0.000 HD
ATOM     52  H   UNL     1      -8.355  -3.957 124.886  0.00  0.00    +0.000 HD
ENDBRANCH  47  48
ENDBRANCH  45  47
ENDBRANCH  42  43
BRANCH  42  53
ATOM     53  C   UNL     1      -4.560   1.604 126.000  0.00  0.00    +0.000 C 
BRANCH  53  54
ATOM     54  C   UNL     1      -4.406   3.035 126.422  0.00  0.00    +0.000 C 
ATOM     55  C   UNL     1      -3.022   3.435 126.549  0.00  0.00    +0.000 C 
ATOM     56  C   UNL     1      -4.950   3.932 125.398  0.00  0.00    +0.000 C 
ENDBRANCH  53  54
ENDBRANCH  42  53
ENDBRANCH  40  42
ENDBRANCH  37  38
ENDBRANCH  14  31
BRANCH   9  57
ATOM     57  N   UNL     1      -1.370   8.085 136.293  0.00  0.00    +0.000 NA
ATOM     58  H   UNL     1      -0.963   7.290 136.552  0.00  0.00    +0.000 HD
ATOM     59  H   UNL     1      -2.006   7.420 137.153  0.00  0.00    +0.000 HD
ENDBRANCH   9  57
BRANCH   1  60
ATOM     60  C   UNL     1      -5.392  -1.151 132.068  0.00  0.00    +0.000 C 
ATOM     61  C   UNL     1      -7.346  -2.771 131.497  0.00  0.00    +0.000 C 
BRANCH  60  63
ATOM     62  C   UNL     1      -8.172  -2.463 133.858  0.00  0.00    +0.000 C 
ATOM     63  C   UNL     1      -7.148  -2.289 132.179  0.00  0.00    +0.000 C 
ENDBRANCH  60  63
ENDBRANCH   1  60
BRANCH  19  64
ATOM     64  C   UNL     1      -2.574  -1.379 132.838  0.00  0.00    +0.000 C 
BRANCH  64  65
ATOM     65  C   UNL     1      -1.585  -1.633 134.052  0.00  0.00    +0.000 C 
ATOM     66  N   UNL     1      -0.442  -0.832 134.222  0.00  0.00    +0.000 N 
ATOM     67  O   UNL     1      -1.754  -2.574 134.794  0.00  0.00    +0.000 OA
ATOM     68  H   UNL     1      -0.377   0.031 133.725  0.00  0.00    +0.000 HD
ATOM     69  H   UNL     1       0.146  -0.779 135.004  0.00  0.00    +0.000 HD
ENDBRANCH  64  65
ENDBRANCH  19  64
BRANCH   5  70
ATOM     70  C   UNL     1      -2.883   9.783 136.604  0.00  0.00    +0.000 C 
BRANCH  70  71
ATOM     71  C   UNL     1      -4.311   9.646 137.242  0.00  0.00    +0.000 A 
ATOM     72  C   UNL     1      -5.113   8.530 137.076  0.00  0.00    +0.000 A 
ATOM     73  C   UNL     1      -6.381   8.462 137.639  0.00  0.00    +0.000 A 
ATOM     74  C   UNL     1      -6.836   9.526 138.393  0.00  0.00    +0.000 A 
ATOM     75  C   UNL     1      -6.054  10.651 138.542  0.00  0.00    +0.000 A 
ATOM     76  C   UNL     1      -4.801  10.702 137.980  0.00  0.00    +0.000 A 
BRANCH  74  77
ATOM     77  O   UNL     1      -8.047   9.554 139.006  0.00  0.00    +0.000 OA
ATOM     78  H   UNL     1      -8.578  10.351 138.890  0.00  0.00    +0.000 HD
ENDBRANCH  74  77
ENDBRANCH  70  71
ENDBRANCH   5  70
BRANCH  23  79
ATOM     79  C   UNL     1      -6.081  -1.880 129.990  0.00  0.00    +0.000 C 
BRANCH  79  80
ATOM     80  C   UNL     1      -6.380  -2.376 128.258  0.00  0.00    +0.000 C 
BRANCH  80  81
ATOM     81  C   UNL     1      -7.685  -2.612 127.989  0.00  0.00    +0.000 C 
ATOM     82  N   UNL     1      -8.221  -3.660 128.526  0.00  0.00    +0.000 N 
ATOM     83  O   UNL     1      -8.260  -1.809 127.296  0.00  0.00    +0.000 OA
ATOM     84  H   UNL     1      -7.792  -4.170 129.179  0.00  0.00    +0.000 HD
ATOM     85  H   UNL     1      -9.168  -3.875 128.482  0.00  0.00    +0.000 HD
ENDBRANCH  80  81
ENDBRANCH  79  80
ENDBRANCH  23  79
TORSDOF 19
ENDMDL
MODEL 3
REMARK VINA RESULT:     -10.1      1.617      2.657
REMARK  Name = CHEMBL3814120
REMARK  25 active torsions:
REMARK  status: ('A' for Active; 'I' for Inactive)
REMARK    1  A    between atoms: C_1  and  C_2
REMARK    2  A    between atoms: C_2  and  C_3
REMARK    3  A    between atoms: C_3  and  C_4
REMARK    4  A    between atoms: C_3  and  C_5
REMARK    5  A    between atoms: C_9  and  C_10
REMARK    6  A    between atoms: C_10  and  C_11
REMARK    7  A    between atoms: C_14  and  O_15
REMARK    8  A    between atoms: C_21  and  N_22
REMARK    9  A    between atoms: C_27  and  C_28
REMARK   10  A    between atoms: C_34  and  C_35
REMARK   11  A    between atoms: N_37  and  C_38
REMARK   12  A    between atoms: C_38  and  C_39
REMARK   13  A    between atoms: C_38  and  C_43
REMARK   14  A    between atoms: C_39  and  C_40
REMARK   15  A    between atoms: C_40  and  C_41
REMARK   16  A    between atoms: C_40  and  C_42
REMARK   17  A    between atoms: N_45  and  C_46
REMARK   18  A    between atoms: N_45  and  C_47
REMARK   19  A    between atoms: C_47  and  C_48
REMARK   20  A    between atoms: N_51  and  C_52
REMARK   21  A    between atoms: C_55  and  C_56
REMARK   22  A    between atoms: C_56  and  C_57
REMARK   23  A    between atoms: C_63  and  C_64
REMARK   24  A    between atoms: C_64  and  C_65
REMARK   25  A    between atoms: C_65  and  C_66
REMARK                            x       y       z     vdW  Elec       q    Type
REMARK                         _______ _______ _______ _____ _____    ______ ____
ROOT
ATOM      1  C   UNL     1      -3.562   1.240 132.437  0.00  0.00    +0.000 C 
ATOM      2  N   UNL     1      -2.551   3.737 133.345  0.00  0.00    +0.000 N 
ATOM      3  C   UNL     1      -1.698   6.205 134.215  0.00  0.00    +0.000 C 
ATOM      4  O   UNL     1      -0.558   7.501 134.931  0.00  0.00    +0.000 OA
ATOM      5  C   UNL     1      -1.751   8.869 135.076  0.00  0.00    +0.000 C 
ATOM      6  N   UNL     1      -2.336  10.375 134.492  0.00  0.00    +0.000 N 
ATOM      7  C   UNL     1      -2.276   9.227 133.853  0.00  0.00    +0.000 C 
ATOM      8  O   UNL     1      -2.564   8.957 132.732  0.00  0.00    +0.000 OA
ATOM      9  C   UNL     1      -2.199   7.763 134.472  0.00  0.00    +0.000 C 
ATOM     10  C   UNL     1      -2.911   6.767 135.143  0.00  0.00    +0.000 C 
ATOM     11  S   UNL     1      -3.207   6.318 133.142  0.00  0.00    +0.000 S 
ATOM     12  S   UNL     1      -4.363   4.764 133.579  0.00  0.00    +0.000 S 
ATOM     13  C   UNL     1      -4.592   3.946 131.971  0.00  0.00    +0.000 C 
ATOM     14  C   UNL     1      -5.538   2.848 132.124  0.00  0.00    +0.000 C 
ATOM     15  N   UNL     1      -4.874   2.116 133.030  0.00  0.00    +0.000 N 
ATOM     16  C   UNL     1      -4.391   2.051 134.328  0.00  0.00    +0.000 C 
ATOM     17  C   UNL     1      -5.471   0.977 133.097  0.00  0.00    +0.000 C 
ATOM     18  O   UNL     1      -5.271   0.725 131.873  0.00  0.00    +0.000 OA
ATOM     19  C   UNL     1      -4.173  -0.483 133.427  0.00  0.00    +0.000 C 
ATOM     20  N   UNL     1      -4.849  -1.719 133.526  0.00  0.00    +0.000 N 
ATOM     21  C   UNL     1      -4.854  -2.694 132.440  0.00  0.00    +0.000 C 
ATOM     22  O   UNL     1      -5.826  -4.170 132.357  0.00  0.00    +0.000 OA
ATOM     23  C   UNL     1      -4.851  -1.768 130.431  0.00  0.00    +0.000 C 
ATOM     24  N   UNL     1      -4.130  -2.795 130.118  0.00  0.00    +0.000 N 
ATOM     25  C   UNL     1      -3.877  -1.242 131.463  0.00  0.00    +0.000 C 
ATOM     26  O   UNL     1      -3.965  -2.966 130.749  0.00  0.00    +0.000 OA
ATOM     27  H   UNL     1      -1.785   5.183 133.912  0.00  0.00    +0.000 HD
ATOM     28  H   UNL     1      -2.816  11.192 134.013  0.00  0.00    +0.000 HD
ATOM     29  H   UNL     1      -5.252  -2.023 134.332  0.00  0.00    +0.000 HD
ATOM     30  H   UNL     1      -3.259  -3.127 129.731  0.00  0.00    +0.000 HD
ENDROOT
BRANCH  14  31
ATOM     31  C   UNL     1      -5.943   2.261 130.720  0.00  0.00    +0.000 C 
ATOM     32  O   UNL     1      -5.221   1.656 129.971  0.00  0.00    +0.000 OA
ATOM     33  N   UNL     1      -7.238   2.440 130.267  0.00  0.00    +0.000 N 
ATOM     34  C   UNL     1      -7.924   3.703 130.328  0.00  0.00    +0.000 C 
ATOM     35  C   UNL     1      -9.355   3.299 130.495  0.00  0.00    +0.000 C 
ATOM     36  C   UNL     1      -9.501   2.161 129.491  0.00  0.00    +0.000 C 
ATOM     37  C   UNL     1      -8.142   1.497 129.505  0.00  0.00    +0.000 C 
BRANCH  37  38
ATOM     38  C   UNL     1      -7.971   1.553 128.011  0.00  0.00    +0.000 C 
ATOM     39  O   UNL     1      -6.584   1.709 127.597  0.00  0.00    +0.000 OA
ATOM     40  N   UNL     1      -8.849   0.832 127.099  0.00  0.00    +0.000 N 
ATOM     41  H   UNL     1      -9.801   0.743 127.375  0.00  0.00    +0.000 HD
BRANCH  40  42
ATOM     42  C   UNL     1      -8.499   0.477 125.691  0.00  0.00    +0.000 C 
BRANCH  42  43
ATOM     43  C   UNL     1      -8.581   1.741 124.798  0.00  0.00    +0.000 C 
ATOM     44  O   UNL     1      -9.373   2.640 125.107  0.00  0.00    +0.000 OA
ATOM     45  N   UNL     1      -7.741   1.824 123.656  0.00  0.00    +0.000 N 
ATOM     46  C   UNL     1      -6.839   0.752 123.354  0.00  0.00    +0.000 C 
BRANCH  45  47
ATOM     47  C   UNL     1      -7.793   3.013 122.778  0.00  0.00    +0.000 C 
BRANCH  47  48
ATOM     48  C   UNL     1      -6.459   3.787 122.756  0.00  0.00    +0.000 C 
ATOM     49  N   UNL     1      -6.050   4.521 123.867  0.00  0.00    +0.000 N 
ATOM     50  O   UNL     1      -5.743   3.764 121.755  0.00  0.00    +0.000 OA
ATOM     51  H   UNL     1      -6.512   4.623 124.710  0.00  0.00    +0.000 HD
ATOM     52  H   UNL     1      -5.221   5.045 123.951  0.00  0.00    +0.000 HD
ENDBRANCH  47  48
ENDBRANCH  45  47
ENDBRANCH  42  43
BRANCH  42  53
ATOM     53  C   UNL     1      -9.433  -0.589 125.158  0.00  0.00    +0.000 C 
BRANCH  53  54
ATOM     54  C   UNL     1      -8.763  -1.930 125.100  0.00  0.00    +0.000 C 
ATOM     55  C   UNL     1      -9.422  -2.921 125.922  0.00  0.00    +0.000 C 
ATOM     56  C   UNL     1      -8.834  -2.480 123.742  0.00  0.00    +0.000 C 
ENDBRANCH  53  54
ENDBRANCH  42  53
ENDBRANCH  40  42
ENDBRANCH  37  38
ENDBRANCH  14  31
BRANCH   9  57
ATOM     57  N   UNL     1      -1.184   8.160 136.416  0.00  0.00    +0.000 NA
ATOM     58  H   UNL     1      -1.117   7.320 136.810  0.00  0.00    +0.000 HD
ATOM     59  H   UNL     1      -2.046   7.922 137.302  0.00  0.00    +0.000 HD
ENDBRANCH   9  57
BRANCH   1  60
ATOM     60  C   UNL     1      -5.441  -0.842 131.926  0.00  0.00    +0.000 C 
ATOM     61  C   UNL     1      -7.426  -2.418 131.335  0.00  0.00    +0.000 C 
BRANCH  60  63
ATOM     62  C   UNL     1      -8.148  -2.273 133.737  0.00  0.00    +0.000 C 
ATOM     63  C   UNL     1      -7.214  -1.955 132.027  0.00  0.00    +0.000 C 
ENDBRANCH  60  63
ENDBRANCH   1  60
BRANCH  19  64
ATOM     64  C   UNL     1      -2.602  -1.130 132.591  0.00  0.00    +0.000 C 
BRANCH  64  65
ATOM     65  C   UNL     1      -1.637  -1.598 133.761  0.00  0.00    +0.000 C 
ATOM     66  N   UNL     1      -0.599  -0.763 134.207  0.00  0.00    +0.000 N 
ATOM     67  O   UNL     1      -1.729  -2.713 134.223  0.00  0.00    +0.000 OA
ATOM     68  H   UNL     1      -0.610   0.203 133.955  0.00  0.00    +0.000 HD
ATOM     69  H   UNL     1      -0.050  -0.860 135.013  0.00  0.00    +0.000 HD
ENDBRANCH  64  65
ENDBRANCH  19  64
BRANCH   5  70
ATOM     70  C   UNL     1      -2.667   9.857 136.850  0.00  0.00    +0.000 C 
BRANCH  70  71
ATOM     71  C   UNL     1      -4.143   9.904 137.382  0.00  0.00    +0.000 A 
ATOM     72  C   UNL     1      -4.642  10.944 138.147  0.00  0.00    +0.000 A 
ATOM     73  C   UNL     1      -5.948  10.932 138.618  0.00  0.00    +0.000 A 
ATOM     74  C   UNL     1      -6.766   9.865 138.298  0.00  0.00    +0.000 A 
ATOM     75  C   UNL     1      -6.269   8.815 137.557  0.00  0.00    +0.000 A 
ATOM     76  C   UNL     1      -4.975   8.842 137.097  0.00  0.00    +0.000 A 
BRANCH  74  77
ATOM     77  O   UNL     1      -8.062   9.765 138.685  0.00  0.00    +0.000 OA
ATOM     78  H   UNL     1      -8.464   8.889 138.644  0.00  0.00    +0.000 HD
ENDBRANCH  74  77
ENDBRANCH  70  71
ENDBRANCH   5  70
BRANCH  23  79
ATOM     79  C   UNL     1      -6.205  -1.472 129.841  0.00  0.00    +0.000 C 
BRANCH  79  80
ATOM     80  C   UNL     1      -6.552  -1.852 128.088  0.00  0.00    +0.000 C 
BRANCH  80  81
ATOM     81  C   UNL     1      -5.458  -1.756 127.297  0.00  0.00    +0.000 C 
ATOM     82  N   UNL     1      -5.156  -0.583 126.843  0.00  0.00    +0.000 N 
ATOM     83  O   UNL     1      -4.827  -2.766 127.101  0.00  0.00    +0.000 OA
ATOM     84  H   UNL     1      -5.573   0.197 127.140  0.00  0.00    +0.000 HD
ATOM     85  H   UNL     1      -4.345  -0.379 126.348  0.00  0.00    +0.000 HD
ENDBRANCH  80  81
ENDBRANCH  79  80
ENDBRANCH  23  79
TORSDOF 19
ENDMDL
MODEL 4
REMARK VINA RESULT:     -10.0      2.415      3.709
REMARK  Name = CHEMBL3814120
REMARK  25 active torsions:
REMARK  status: ('A' for Active; 'I' for Inactive)
REMARK    1  A    between atoms: C_1  and  C_2
REMARK    2  A    between atoms: C_2  and  C_3
REMARK    3  A    between atoms: C_3  and  C_4
REMARK    4  A    between atoms: C_3  and  C_5
REMARK    5  A    between atoms: C_9  and  C_10
REMARK    6  A    between atoms: C_10  and  C_11
REMARK    7  A    between atoms: C_14  and  O_15
REMARK    8  A    between atoms: C_21  and  N_22
REMARK    9  A    between atoms: C_27  and  C_28
REMARK   10  A    between atoms: C_34  and  C_35
REMARK   11  A    between atoms: N_37  and  C_38
REMARK   12  A    between atoms: C_38  and  C_39
REMARK   13  A    between atoms: C_38  and  C_43
REMARK   14  A    between atoms: C_39  and  C_40
REMARK   15  A    between atoms: C_40  and  C_41
REMARK   16  A    between atoms: C_40  and  C_42
REMARK   17  A    between atoms: N_45  and  C_46
REMARK   18  A    between atoms: N_45  and  C_47
REMARK   19  A    between atoms: C_47  and  C_48
REMARK   20  A    between atoms: N_51  and  C_52
REMARK   21  A    between atoms: C_55  and  C_56
REMARK   22  A    between atoms: C_56  and  C_57
REMARK   23  A    between atoms: C_63  and  C_64
REMARK   24  A    between atoms: C_64  and  C_65
REMARK   25  A    between atoms: C_65  and  C_66
REMARK                            x       y       z     vdW  Elec       q    Type
REMARK                         _______ _______ _______ _____ _____    ______ ____
ROOT
ATOM      1  C   UNL     1      -3.798   0.359 134.873  0.00  0.00    +0.000 C 
ATOM      2  N   UNL     1      -3.517   2.947 136.014  0.00  0.00    +0.000 N 
ATOM      3  C   UNL     1      -3.363   5.486 137.063  0.00  0.00    +0.000 C 
ATOM      4  O   UNL     1      -2.742   6.904 138.111  0.00  0.00    +0.000 OA
ATOM      5  C   UNL     1      -4.064   8.107 137.761  0.00  0.00    +0.000 C 
ATOM      6  N   UNL     1      -4.573   9.536 136.957  0.00  0.00    +0.000 N 
ATOM      7  C   UNL     1      -4.137   8.417 136.420  0.00  0.00    +0.000 C 
ATOM      8  O   UNL     1      -3.952   8.133 135.282  0.00  0.00    +0.000 OA
ATOM      9  C   UNL     1      -4.114   6.964 137.068  0.00  0.00    +0.000 C 
ATOM     10  C   UNL     1      -4.894   5.873 137.458  0.00  0.00    +0.000 C 
ATOM     11  S   UNL     1      -4.367   5.427 135.504  0.00  0.00    +0.000 S 
ATOM     12  S   UNL     1      -5.399   3.731 135.528  0.00  0.00    +0.000 S 
ATOM     13  C   UNL     1      -4.910   2.919 133.976  0.00  0.00    +0.000 C 
ATOM     14  C   UNL     1      -5.701   1.707 133.801  0.00  0.00    +0.000 C 
ATOM     15  N   UNL     1      -5.335   1.050 134.910  0.00  0.00    +0.000 N 
ATOM     16  C   UNL     1      -5.364   1.023 136.296  0.00  0.00    +0.000 C 
ATOM     17  C   UNL     1      -5.766  -0.157 134.785  0.00  0.00    +0.000 C 
ATOM     18  O   UNL     1      -5.097  -0.359 133.731  0.00  0.00    +0.000 OA
ATOM     19  C   UNL     1      -4.513  -1.446 135.617  0.00  0.00    +0.000 C 
ATOM     20  N   UNL     1      -5.017  -2.760 135.496  0.00  0.00    +0.000 N 
ATOM     21  C   UNL     1      -4.497  -3.707 134.516  0.00  0.00    +0.000 C 
ATOM     22  O   UNL     1      -5.176  -5.293 134.123  0.00  0.00    +0.000 OA
ATOM     23  C   UNL     1      -3.863  -2.752 132.624  0.00  0.00    +0.000 C 
ATOM     24  N   UNL     1      -2.956  -3.673 132.632  0.00  0.00    +0.000 N 
ATOM     25  C   UNL     1      -3.416  -2.125 133.927  0.00  0.00    +0.000 C 
ATOM     26  O   UNL     1      -3.017  -3.833 133.284  0.00  0.00    +0.000 OA
ATOM     27  H   UNL     1      -3.203   4.468 136.781  0.00  0.00    +0.000 HD
ATOM     28  H   UNL     1      -4.939  10.294 136.310  0.00  0.00    +0.000 HD
ATOM     29  H   UNL     1      -5.650  -3.127 136.104  0.00  0.00    +0.000 HD
ATOM     30  H   UNL     1      -1.968  -3.885 132.606  0.00  0.00    +0.000 HD
ENDROOT
BRANCH  14  31
ATOM     31  C   UNL     1      -5.478   1.099 132.365  0.00  0.00    +0.000 C 
ATOM     32  O   UNL     1      -4.415   0.904 131.835  0.00  0.00    +0.000 OA
ATOM     33  N   UNL     1      -6.581   0.749 131.608  0.00  0.00    +0.000 N 
ATOM     34  C   UNL     1      -7.730   1.599 131.451  0.00  0.00    +0.000 C 
ATOM     35  C   UNL     1      -8.851   0.622 131.286  0.00  0.00    +0.000 C 
ATOM     36  C   UNL     1      -8.262  -0.402 130.323  0.00  0.00    +0.000 C 
ATOM     37  C   UNL     1      -6.795  -0.434 130.690  0.00  0.00    +0.000 C 
BRANCH  37  38
ATOM     38  C   UNL     1      -6.320  -0.212 129.280  0.00  0.00    +0.000 C 
ATOM     39  O   UNL     1      -4.883  -0.391 129.123  0.00  0.00    +0.000 OA
ATOM     40  N   UNL     1      -7.148  -0.521 128.120  0.00  0.00    +0.000 N 
ATOM     41  H   UNL     1      -8.127  -0.380 128.223  0.00  0.00    +0.000 HD
BRANCH  40  42
ATOM     42  C   UNL     1      -6.621  -0.751 126.742  0.00  0.00    +0.000 C 
BRANCH  42  43
ATOM     43  C   UNL     1      -7.073   0.401 125.810  0.00  0.00    +0.000 C 
ATOM     44  O   UNL     1      -8.195   0.343 125.290  0.00  0.00    +0.000 OA
ATOM     45  N   UNL     1      -6.185   1.486 125.587  0.00  0.00    +0.000 N 
ATOM     46  C   UNL     1      -4.900   1.499 126.223  0.00  0.00    +0.000 C 
BRANCH  45  47
ATOM     47  C   UNL     1      -6.579   2.603 124.702  0.00  0.00    +0.000 C 
BRANCH  47  48
ATOM     48  C   UNL     1      -7.562   3.576 125.384  0.00  0.00    +0.000 C 
ATOM     49  N   UNL     1      -7.245   4.157 126.610  0.00  0.00    +0.000 N 
ATOM     50  O   UNL     1      -8.638   3.849 124.852  0.00  0.00    +0.000 OA
ATOM     51  H   UNL     1      -6.441   4.031 127.133  0.00  0.00    +0.000 HD
ATOM     52  H   UNL     1      -7.802   4.786 127.122  0.00  0.00    +0.000 HD
ENDBRANCH  47  48
ENDBRANCH  45  47
ENDBRANCH  42  43
BRANCH  42  53
ATOM     53  C   UNL     1      -7.111  -2.076 126.194  0.00  0.00    +0.000 C 
BRANCH  53  54
ATOM     54  C   UNL     1      -8.420  -2.476 126.808  0.00  0.00    +0.000 C 
ATOM     55  C   UNL     1      -9.388  -2.912 125.827  0.00  0.00    +0.000 C 
ATOM     56  C   UNL     1      -8.241  -3.638 127.684  0.00  0.00    +0.000 C 
ENDBRANCH  53  54
ENDBRANCH  42  53
ENDBRANCH  40  42
ENDBRANCH  37  38
ENDBRANCH  14  31
BRANCH   9  57
ATOM     57  N   UNL     1      -3.952   7.451 139.237  0.00  0.00    +0.000 NA
ATOM     58  H   UNL     1      -3.545   6.700 139.606  0.00  0.00    +0.000 HD
ATOM     59  H   UNL     1      -4.736   6.658 139.821  0.00  0.00    +0.000 HD
ENDBRANCH   9  57
BRANCH   1  60
ATOM     60  C   UNL     1      -5.077  -1.936 133.764  0.00  0.00    +0.000 C 
ATOM     61  C   UNL     1      -6.497  -3.740 132.541  0.00  0.00    +0.000 C 
BRANCH  60  63
ATOM     62  C   UNL     1      -8.317  -3.325 134.236  0.00  0.00    +0.000 C 
ATOM     63  C   UNL     1      -6.603  -3.281 133.259  0.00  0.00    +0.000 C 
ENDBRANCH  60  63
ENDBRANCH   1  60
BRANCH  19  64
ATOM     64  C   UNL     1      -2.676  -1.873 135.444  0.00  0.00    +0.000 C 
BRANCH  64  65
ATOM     65  C   UNL     1      -2.113  -2.020 136.920  0.00  0.00    +0.000 C 
ATOM     66  N   UNL     1      -1.276  -1.033 137.467  0.00  0.00    +0.000 N 
ATOM     67  O   UNL     1      -2.326  -3.025 137.560  0.00  0.00    +0.000 OA
ATOM     68  H   UNL     1      -1.224  -0.140 137.022  0.00  0.00    +0.000 HD
ATOM     69  H   UNL     1      -1.002  -0.923 138.401  0.00  0.00    +0.000 HD
ENDBRANCH  64  65
ENDBRANCH  19  64
BRANCH   5  70
ATOM     70  C   UNL     1      -5.689   8.937 139.039  0.00  0.00    +0.000 C 
BRANCH  70  71
ATOM     71  C   UNL     1      -7.225   9.142 138.786  0.00  0.00    +0.000 A 
ATOM     72  C   UNL     1      -8.003  10.026 139.512  0.00  0.00    +0.000 A 
ATOM     73  C   UNL     1      -9.365  10.157 139.271  0.00  0.00    +0.000 A 
ATOM     74  C   UNL     1      -9.943   9.397 138.273  0.00  0.00    +0.000 A 
ATOM     75  C   UNL     1      -9.180   8.495 137.562  0.00  0.00    +0.000 A 
ATOM     76  C   UNL     1      -7.834   8.379 137.811  0.00  0.00    +0.000 A 
BRANCH  74  77
ATOM     77  O   UNL     1     -11.257   9.463 137.939  0.00  0.00    +0.000 OA
ATOM     78  H   UNL     1     -11.847   8.823 138.356  0.00  0.00    +0.000 HD
ENDBRANCH  74  77
ENDBRANCH  70  71
ENDBRANCH   5  70
BRANCH  23  79
ATOM     79  C   UNL     1      -4.926  -2.620 131.566  0.00  0.00    +0.000 C 
BRANCH  79  80
ATOM     80  C   UNL     1      -4.911  -3.710 130.100  0.00  0.00    +0.000 C 
BRANCH  80  81
ATOM     81  C   UNL     1      -3.898  -3.437 129.244  0.00  0.00    +0.000 C 
ATOM     82  N   UNL     1      -4.211  -2.913 128.104  0.00  0.00    +0.000 N 
ATOM     83  O   UNL     1      -2.777  -3.672 129.623  0.00  0.00    +0.000 OA
ATOM     84  H   UNL     1      -5.069  -2.602 127.908  0.00  0.00    +0.000 HD
ATOM     85  H   UNL     1      -3.565  -2.588 127.454  0.00  0.00    +0.000 HD
ENDBRANCH  80  81
ENDBRANCH  79  80
ENDBRANCH  23  79
TORSDOF 19
ENDMDL
MODEL 5
REMARK VINA RESULT:      -9.4      4.250      8.992
REMARK  Name = CHEMBL3814120
REMARK  25 active torsions:
REMARK  status: ('A' for Active; 'I' for Inactive)
REMARK    1  A    between atoms: C_1  and  C_2
REMARK    2  A    between atoms: C_2  and  C_3
REMARK    3  A    between atoms: C_3  and  C_4
REMARK    4  A    between atoms: C_3  and  C_5
REMARK    5  A    between atoms: C_9  and  C_10
REMARK    6  A    between atoms: C_10  and  C_11
REMARK    7  A    between atoms: C_14  and  O_15
REMARK    8  A    between atoms: C_21  and  N_22
REMARK    9  A    between atoms: C_27  and  C_28
REMARK   10  A    between atoms: C_34  and  C_35
REMARK   11  A    between atoms: N_37  and  C_38
REMARK   12  A    between atoms: C_38  and  C_39
REMARK   13  A    between atoms: C_38  and  C_43
REMARK   14  A    between atoms: C_39  and  C_40
REMARK   15  A    between atoms: C_40  and  C_41
REMARK   16  A    between atoms: C_40  and  C_42
REMARK   17  A    between atoms: N_45  and  C_46
REMARK   18  A    between atoms: N_45  and  C_47
REMARK   19  A    between atoms: C_47  and  C_48
REMARK   20  A    between atoms: N_51  and  C_52
REMARK   21  A    between atoms: C_55  and  C_56
REMARK   22  A    between atoms: C_56  and  C_57
REMARK   23  A    between atoms: C_63  and  C_64
REMARK   24  A    between atoms: C_64  and  C_65
REMARK   25  A    between atoms: C_65  and  C_66
REMARK                            x       y       z     vdW  Elec       q    Type
REMARK                         _______ _______ _______ _____ _____    ______ ____
ROOT
ATOM      1  C   UNL     1      -6.358   0.982 132.899  0.00  0.00    +0.000 C 
ATOM      2  N   UNL     1      -6.167  -0.983 134.944  0.00  0.00    +0.000 N 
ATOM      3  C   UNL     1      -5.860  -2.920 136.875  0.00  0.00    +0.000 C 
ATOM      4  O   UNL     1      -6.208  -3.907 138.423  0.00  0.00    +0.000 OA
ATOM      5  C   UNL     1      -4.701  -4.931 138.443  0.00  0.00    +0.000 C 
ATOM      6  N   UNL     1      -3.964  -6.461 138.193  0.00  0.00    +0.000 N 
ATOM      7  C   UNL     1      -4.596  -5.714 137.314  0.00  0.00    +0.000 C 
ATOM      8  O   UNL     1      -4.844  -5.920 136.171  0.00  0.00    +0.000 OA
ATOM      9  C   UNL     1      -4.862  -4.147 137.371  0.00  0.00    +0.000 C 
ATOM     10  C   UNL     1      -4.278  -2.883 137.261  0.00  0.00    +0.000 C 
ATOM     11  S   UNL     1      -4.905  -3.305 135.331  0.00  0.00    +0.000 S 
ATOM     12  S   UNL     1      -4.184  -1.590 134.637  0.00  0.00    +0.000 S 
ATOM     13  C   UNL     1      -4.831  -1.520 132.938  0.00  0.00    +0.000 C 
ATOM     14  C   UNL     1      -4.266  -0.360 132.260  0.00  0.00    +0.000 C 
ATOM     15  N   UNL     1      -4.724   0.606 133.068  0.00  0.00    +0.000 N 
ATOM     16  C   UNL     1      -4.679   1.164 134.337  0.00  0.00    +0.000 C 
ATOM     17  C   UNL     1      -4.512   1.725 132.467  0.00  0.00    +0.000 C 
ATOM     18  O   UNL     1      -5.222   1.402 131.472  0.00  0.00    +0.000 OA
ATOM     19  C   UNL     1      -5.957   3.022 132.855  0.00  0.00    +0.000 C 
ATOM     20  N   UNL     1      -5.692   4.251 132.211  0.00  0.00    +0.000 N 
ATOM     21  C   UNL     1      -6.385   4.658 130.993  0.00  0.00    +0.000 C 
ATOM     22  O   UNL     1      -5.998   6.058 129.983  0.00  0.00    +0.000 OA
ATOM     23  C   UNL     1      -6.870   2.966 129.653  0.00  0.00    +0.000 C 
ATOM     24  N   UNL     1      -7.925   3.668 129.389  0.00  0.00    +0.000 N 
ATOM     25  C   UNL     1      -7.182   2.825 131.127  0.00  0.00    +0.000 C 
ATOM     26  O   UNL     1      -7.882   4.072 129.927  0.00  0.00    +0.000 OA
ATOM     27  H   UNL     1      -6.199  -2.125 136.246  0.00  0.00    +0.000 HD
ATOM     28  H   UNL     1      -3.481  -7.342 137.849  0.00  0.00    +0.000 HD
ATOM     29  H   UNL     1      -5.124   4.916 132.584  0.00  0.00    +0.000 HD
ATOM     30  H   UNL     1      -8.934   3.697 129.365  0.00  0.00    +0.000 HD
ENDROOT
BRANCH  14  31
ATOM     31  C   UNL     1      -4.613  -0.389 130.724  0.00  0.00    +0.000 C 
ATOM     32  O   UNL     1      -4.103   0.286 129.869  0.00  0.00    +0.000 OA
ATOM     33  N   UNL     1      -5.595  -1.255 130.276  0.00  0.00    +0.000 N 
ATOM     34  C   UNL     1      -6.870  -1.402 130.924  0.00  0.00    +0.000 C 
ATOM     35  C   UNL     1      -7.222  -2.830 130.653  0.00  0.00    +0.000 C 
ATOM     36  C   UNL     1      -6.856  -2.991 129.182  0.00  0.00    +0.000 C 
ATOM     37  C   UNL     1      -5.660  -2.082 129.011  0.00  0.00    +0.000 C 
BRANCH  37  38
ATOM     38  C   UNL     1      -6.237  -1.353 127.828  0.00  0.00    +0.000 C 
ATOM     39  O   UNL     1      -5.250  -1.053 126.801  0.00  0.00    +0.000 OA
ATOM     40  N   UNL     1      -7.607  -1.561 127.378  0.00  0.00    +0.000 N 
ATOM     41  H   UNL     1      -8.284  -1.747 128.083  0.00  0.00    +0.000 HD
BRANCH  40  42
ATOM     42  C   UNL     1      -8.105  -1.240 126.007  0.00  0.00    +0.000 C 
BRANCH  42  43
ATOM     43  C   UNL     1      -8.573   0.237 125.953  0.00  0.00    +0.000 C 
ATOM     44  O   UNL     1      -9.109   0.730 126.954  0.00  0.00    +0.000 OA
ATOM     45  N   UNL     1      -8.367   0.973 124.757  0.00  0.00    +0.000 N 
ATOM     46  C   UNL     1      -7.733   0.349 123.633  0.00  0.00    +0.000 C 
BRANCH  45  47
ATOM     47  C   UNL     1      -8.802   2.384 124.666  0.00  0.00    +0.000 C 
BRANCH  47  48
ATOM     48  C   UNL     1      -8.356   3.054 123.351  0.00  0.00    +0.000 C 
ATOM     49  N   UNL     1      -7.158   3.764 123.290  0.00  0.00    +0.000 N 
ATOM     50  O   UNL     1      -9.055   2.969 122.341  0.00  0.00    +0.000 OA
ATOM     51  H   UNL     1      -6.520   3.906 124.002  0.00  0.00    +0.000 HD
ATOM     52  H   UNL     1      -6.789   4.223 122.503  0.00  0.00    +0.000 HD
ENDBRANCH  47  48
ENDBRANCH  45  47
ENDBRANCH  42  43
BRANCH  42  53
ATOM     53  C   UNL     1      -9.250  -2.155 125.623  0.00  0.00    +0.000 C 
BRANCH  53  54
ATOM     54  C   UNL     1      -8.788  -3.273 124.736  0.00  0.00    +0.000 C 
ATOM     55  C   UNL     1      -9.426  -3.257 123.438  0.00  0.00    +0.000 C 
ATOM     56  C   UNL     1      -7.359  -3.135 124.440  0.00  0.00    +0.000 C 
ENDBRANCH  53  54
ENDBRANCH  42  53
ENDBRANCH  40  42
ENDBRANCH  37  38
ENDBRANCH  14  31
BRANCH   9  57
ATOM     57  N   UNL     1      -4.904  -3.787 139.571  0.00  0.00    +0.000 NA
ATOM     58  H   UNL     1      -4.840  -2.862 139.648  0.00  0.00    +0.000 HD
ATOM     59  H   UNL     1      -3.757  -3.360 139.865  0.00  0.00    +0.000 HD
ENDBRANCH   9  57
BRANCH   1  60
ATOM     60  C   UNL     1      -5.516   2.848 130.914  0.00  0.00    +0.000 C 
ATOM     61  C   UNL     1      -4.450   4.245 128.996  0.00  0.00    +0.000 C 
BRANCH  60  63
ATOM     62  C   UNL     1      -2.671   4.964 130.639  0.00  0.00    +0.000 C 
ATOM     63  C   UNL     1      -4.256   4.118 129.823  0.00  0.00    +0.000 C 
ENDBRANCH  60  63
ENDBRANCH   1  60
BRANCH  19  64
ATOM     64  C   UNL     1      -7.843   3.059 132.683  0.00  0.00    +0.000 C 
BRANCH  64  65
ATOM     65  C   UNL     1      -8.394   3.768 133.990  0.00  0.00    +0.000 C 
ATOM     66  N   UNL     1      -9.767   4.030 134.137  0.00  0.00    +0.000 N 
ATOM     67  O   UNL     1      -7.629   4.171 134.837  0.00  0.00    +0.000 OA
ATOM     68  H   UNL     1     -10.416   3.568 133.535  0.00  0.00    +0.000 HD
ATOM     69  H   UNL     1     -10.246   4.304 134.947  0.00  0.00    +0.000 HD
ENDBRANCH  64  65
ENDBRANCH  19  64
BRANCH   5  70
ATOM     70  C   UNL     1      -2.937  -4.946 139.803  0.00  0.00    +0.000 C 
BRANCH  70  71
ATOM     71  C   UNL     1      -1.425  -4.596 139.568  0.00  0.00    +0.000 A 
ATOM     72  C   UNL     1      -0.475  -4.623 140.574  0.00  0.00    +0.000 A 
ATOM     73  C   UNL     1       0.849  -4.281 140.326  0.00  0.00    +0.000 A 
ATOM     74  C   UNL     1       1.219  -3.924 139.043  0.00  0.00    +0.000 A 
ATOM     75  C   UNL     1       0.273  -3.872 138.042  0.00  0.00    +0.000 A 
ATOM     76  C   UNL     1      -1.032  -4.214 138.303  0.00  0.00    +0.000 A 
BRANCH  74  77
ATOM     77  O   UNL     1       2.486  -3.596 138.687  0.00  0.00    +0.000 OA
ATOM     78  H   UNL     1       2.654  -3.458 137.747  0.00  0.00    +0.000 HD
ENDBRANCH  74  77
ENDBRANCH  70  71
ENDBRANCH   5  70
BRANCH  23  79
ATOM     79  C   UNL     1      -5.817   2.607 128.639  0.00  0.00    +0.000 C 
BRANCH  79  80
ATOM     80  C   UNL     1      -6.229   2.545 126.860  0.00  0.00    +0.000 C 
BRANCH  80  81
ATOM     81  C   UNL     1      -5.137   2.493 126.063  0.00  0.00    +0.000 C 
ATOM     82  N   UNL     1      -4.297   1.531 126.270  0.00  0.00    +0.000 N 
ATOM     83  O   UNL     1      -5.045   3.328 125.197  0.00  0.00    +0.000 OA
ATOM     84  H   UNL     1      -4.477   0.816 126.842  0.00  0.00    +0.000 HD
ATOM     85  H   UNL     1      -3.532   1.339 125.702  0.00  0.00    +0.000 HD
ENDBRANCH  80  81
ENDBRANCH  79  80
ENDBRANCH  23  79
TORSDOF 19
ENDMDL
MODEL 6
REMARK VINA RESULT:      -9.3      4.034     13.177
REMARK  Name = CHEMBL3814120
REMARK  25 active torsions:
REMARK  status: ('A' for Active; 'I' for Inactive)
REMARK    1  A    between atoms: C_1  and  C_2
REMARK    2  A    between atoms: C_2  and  C_3
REMARK    3  A    between atoms: C_3  and  C_4
REMARK    4  A    between atoms: C_3  and  C_5
REMARK    5  A    between atoms: C_9  and  C_10
REMARK    6  A    between atoms: C_10  and  C_11
REMARK    7  A    between atoms: C_14  and  O_15
REMARK    8  A    between atoms: C_21  and  N_22
REMARK    9  A    between atoms: C_27  and  C_28
REMARK   10  A    between atoms: C_34  and  C_35
REMARK   11  A    between atoms: N_37  and  C_38
REMARK   12  A    between atoms: C_38  and  C_39
REMARK   13  A    between atoms: C_38  and  C_43
REMARK   14  A    between atoms: C_39  and  C_40
REMARK   15  A    between atoms: C_40  and  C_41
REMARK   16  A    between atoms: C_40  and  C_42
REMARK   17  A    between atoms: N_45  and  C_46
REMARK   18  A    between atoms: N_45  and  C_47
REMARK   19  A    between atoms: C_47  and  C_48
REMARK   20  A    between atoms: N_51  and  C_52
REMARK   21  A    between atoms: C_55  and  C_56
REMARK   22  A    between atoms: C_56  and  C_57
REMARK   23  A    between atoms: C_63  and  C_64
REMARK   24  A    between atoms: C_64  and  C_65
REMARK   25  A    between atoms: C_65  and  C_66
REMARK                            x       y       z     vdW  Elec       q    Type
REMARK                         _______ _______ _______ _____ _____    ______ ____
ROOT
ATOM      1  C   UNL     1      -4.933   7.114 135.262  0.00  0.00    +0.000 C 
ATOM      2  N   UNL     1      -5.551   6.149 132.661  0.00  0.00    +0.000 N 
ATOM      3  C   UNL     1      -6.017   5.192 130.123  0.00  0.00    +0.000 C 
ATOM      4  O   UNL     1      -6.976   4.579 128.640  0.00  0.00    +0.000 OA
ATOM      5  C   UNL     1      -5.576   4.034 127.610  0.00  0.00    +0.000 C 
ATOM      6  N   UNL     1      -4.560   4.307 126.253  0.00  0.00    +0.000 N 
ATOM      7  C   UNL     1      -4.723   5.074 127.310  0.00  0.00    +0.000 C 
ATOM      8  O   UNL     1      -4.255   6.135 127.566  0.00  0.00    +0.000 OA
ATOM      9  C   UNL     1      -5.257   4.658 128.750  0.00  0.00    +0.000 C 
ATOM     10  C   UNL     1      -4.952   3.975 129.929  0.00  0.00    +0.000 C 
ATOM     11  S   UNL     1      -4.316   5.912 130.304  0.00  0.00    +0.000 S 
ATOM     12  S   UNL     1      -3.659   5.431 132.115  0.00  0.00    +0.000 S 
ATOM     13  C   UNL     1      -3.258   7.041 132.857  0.00  0.00    +0.000 C 
ATOM     14  C   UNL     1      -2.634   6.826 134.158  0.00  0.00    +0.000 C 
ATOM     15  N   UNL     1      -3.630   6.167 134.766  0.00  0.00    +0.000 N 
ATOM     16  C   UNL     1      -4.397   5.012 134.798  0.00  0.00    +0.000 C 
ATOM     17  C   UNL     1      -3.329   6.112 136.017  0.00  0.00    +0.000 C 
ATOM     18  O   UNL     1      -3.297   7.372 136.133  0.00  0.00    +0.000 OA
ATOM     19  C   UNL     1      -4.955   6.227 137.142  0.00  0.00    +0.000 C 
ATOM     20  N   UNL     1      -4.607   6.136 138.508  0.00  0.00    +0.000 N 
ATOM     21  C   UNL     1      -4.571   7.304 139.382  0.00  0.00    +0.000 C 
ATOM     22  O   UNL     1      -3.952   7.356 141.039  0.00  0.00    +0.000 OA
ATOM     23  C   UNL     1      -3.915   9.150 138.353  0.00  0.00    +0.000 C 
ATOM     24  N   UNL     1      -4.754   9.720 139.156  0.00  0.00    +0.000 N 
ATOM     25  C   UNL     1      -4.958   8.284 137.678  0.00  0.00    +0.000 C 
ATOM     26  O   UNL     1      -5.091   9.161 139.323  0.00  0.00    +0.000 OA
ATOM     27  H   UNL     1      -6.089   5.587 131.113  0.00  0.00    +0.000 HD
ATOM     28  H   UNL     1      -3.816   4.579 125.546  0.00  0.00    +0.000 HD
ATOM     29  H   UNL     1      -4.474   5.306 138.952  0.00  0.00    +0.000 HD
ATOM     30  H   UNL     1      -5.566  10.314 139.243  0.00  0.00    +0.000 HD
ENDROOT
BRANCH  14  31
ATOM     31  C   UNL     1      -2.061   8.176 134.731  0.00  0.00    +0.000 C 
ATOM     32  O   UNL     1      -2.650   9.224 134.800  0.00  0.00    +0.000 OA
ATOM     33  N   UNL     1      -0.762   8.204 135.206  0.00  0.00    +0.000 N 
ATOM     34  C   UNL     1       0.348   7.629 134.494  0.00  0.00    +0.000 C 
ATOM     35  C   UNL     1       1.266   7.202 135.595  0.00  0.00    +0.000 C 
ATOM     36  C   UNL     1       1.233   8.397 136.541  0.00  0.00    +0.000 C 
ATOM     37  C   UNL     1      -0.179   8.921 136.403  0.00  0.00    +0.000 C 
BRANCH  37  38
ATOM     38  C   UNL     1       0.251  10.336 136.123  0.00  0.00    +0.000 C 
ATOM     39  O   UNL     1       1.694  10.482 135.992  0.00  0.00    +0.000 OA
ATOM     40  N   UNL     1      -0.573  11.264 135.359  0.00  0.00    +0.000 N 
ATOM     41  H   UNL     1      -1.558  11.175 135.465  0.00  0.00    +0.000 HD
BRANCH  40  42
ATOM     42  C   UNL     1      -0.056  12.487 134.675  0.00  0.00    +0.000 C 
BRANCH  42  43
ATOM     43  C   UNL     1      -0.762  13.743 135.246  0.00  0.00    +0.000 C 
ATOM     44  O   UNL     1      -1.999  13.798 135.217  0.00  0.00    +0.000 OA
ATOM     45  N   UNL     1       0.035  14.786 135.787  0.00  0.00    +0.000 N 
ATOM     46  C   UNL     1       1.463  14.661 135.799  0.00  0.00    +0.000 C 
BRANCH  45  47
ATOM     47  C   UNL     1      -0.602  16.001 136.339  0.00  0.00    +0.000 C 
BRANCH  47  48
ATOM     48  C   UNL     1      -0.979  15.845 137.825  0.00  0.00    +0.000 C 
ATOM     49  N   UNL     1      -0.046  16.116 138.824  0.00  0.00    +0.000 N 
ATOM     50  O   UNL     1      -2.110  15.479 138.145  0.00  0.00    +0.000 OA
ATOM     51  H   UNL     1       0.868  16.410 138.713  0.00  0.00    +0.000 HD
ATOM     52  H   UNL     1      -0.189  16.047 139.795  0.00  0.00    +0.000 HD
ENDBRANCH  47  48
ENDBRANCH  45  47
ENDBRANCH  42  43
BRANCH  42  53
ATOM     53  C   UNL     1      -0.288  12.405 133.180  0.00  0.00    +0.000 C 
BRANCH  53  54
ATOM     54  C   UNL     1       0.984  12.617 132.413  0.00  0.00    +0.000 C 
ATOM     55  C   UNL     1       1.844  11.455 132.424  0.00  0.00    +0.000 C 
ATOM     56  C   UNL     1       0.694  12.842 130.994  0.00  0.00    +0.000 C 
ENDBRANCH  53  54
ENDBRANCH  42  53
ENDBRANCH  40  42
ENDBRANCH  37  38
ENDBRANCH  14  31
BRANCH   9  57
ATOM     57  N   UNL     1      -6.574   2.931 128.249  0.00  0.00    +0.000 NA
ATOM     58  H   UNL     1      -6.723   2.517 129.069  0.00  0.00    +0.000 HD
ATOM     59  H   UNL     1      -5.877   1.903 128.458  0.00  0.00    +0.000 HD
ENDBRANCH   9  57
BRANCH   1  60
ATOM     60  C   UNL     1      -3.491   7.468 137.696  0.00  0.00    +0.000 C 
ATOM     61  C   UNL     1      -1.819   7.819 139.658  0.00  0.00    +0.000 C 
BRANCH  60  63
ATOM     62  C   UNL     1      -1.191   5.387 139.436  0.00  0.00    +0.000 C 
ATOM     63  C   UNL     1      -2.075   7.136 139.204  0.00  0.00    +0.000 C 
ENDBRANCH  60  63
ENDBRANCH   1  60
BRANCH  19  64
ATOM     64  C   UNL     1      -6.399   7.437 137.338  0.00  0.00    +0.000 C 
BRANCH  64  65
ATOM     65  C   UNL     1      -7.714   6.551 137.401  0.00  0.00    +0.000 C 
ATOM     66  N   UNL     1      -8.288   6.040 136.224  0.00  0.00    +0.000 N 
ATOM     67  O   UNL     1      -8.288   6.380 138.452  0.00  0.00    +0.000 OA
ATOM     68  H   UNL     1      -7.748   6.036 135.384  0.00  0.00    +0.000 HD
ATOM     69  H   UNL     1      -8.987   5.358 136.140  0.00  0.00    +0.000 HD
ENDBRANCH  64  65
ENDBRANCH  19  64
BRANCH   5  70
ATOM     70  C   UNL     1      -4.892   2.007 126.989  0.00  0.00    +0.000 C 
BRANCH  70  71
ATOM     71  C   UNL     1      -5.502   0.948 126.005  0.00  0.00    +0.000 A 
ATOM     72  C   UNL     1      -5.185  -0.399 126.047  0.00  0.00    +0.000 A 
ATOM     73  C   UNL     1      -5.729  -1.298 125.139  0.00  0.00    +0.000 A 
ATOM     74  C   UNL     1      -6.619  -0.834 124.189  0.00  0.00    +0.000 A 
ATOM     75  C   UNL     1      -6.921   0.509 124.125  0.00  0.00    +0.000 A 
ATOM     76  C   UNL     1      -6.375   1.386 125.031  0.00  0.00    +0.000 A 
BRANCH  74  77
ATOM     77  O   UNL     1      -7.227  -1.628 123.272  0.00  0.00    +0.000 OA
ATOM     78  H   UNL     1      -6.670  -2.003 122.580  0.00  0.00    +0.000 HD
ENDBRANCH  74  77
ENDBRANCH  70  71
ENDBRANCH   5  70
BRANCH  23  79
ATOM     79  C   UNL     1      -2.433   9.410 138.352  0.00  0.00    +0.000 C 
BRANCH  79  80
ATOM     80  C   UNL     1      -1.743  10.824 139.282  0.00  0.00    +0.000 C 
BRANCH  80  81
ATOM     81  C   UNL     1      -1.621  11.945 138.533  0.00  0.00    +0.000 C 
ATOM     82  N   UNL     1      -2.707  12.462 138.059  0.00  0.00    +0.000 N 
ATOM     83  O   UNL     1      -0.510  12.395 138.389  0.00  0.00    +0.000 OA
ATOM     84  H   UNL     1      -3.558  12.179 138.319  0.00  0.00    +0.000 HD
ATOM     85  H   UNL     1      -2.751  13.313 137.592  0.00  0.00    +0.000 HD
ENDBRANCH  80  81
ENDBRANCH  79  80
ENDBRANCH  23  79
TORSDOF 19
ENDMDL
MODEL 7
REMARK VINA RESULT:      -9.3      2.888      7.589
REMARK  Name = CHEMBL3814120
REMARK  25 active torsions:
REMARK  status: ('A' for Active; 'I' for Inactive)
REMARK    1  A    between atoms: C_1  and  C_2
REMARK    2  A    between atoms: C_2  and  C_3
REMARK    3  A    between atoms: C_3  and  C_4
REMARK    4  A    between atoms: C_3  and  C_5
REMARK    5  A    between atoms: C_9  and  C_10
REMARK    6  A    between atoms: C_10  and  C_11
REMARK    7  A    between atoms: C_14  and  O_15
REMARK    8  A    between atoms: C_21  and  N_22
REMARK    9  A    between atoms: C_27  and  C_28
REMARK   10  A    between atoms: C_34  and  C_35
REMARK   11  A    between atoms: N_37  and  C_38
REMARK   12  A    between atoms: C_38  and  C_39
REMARK   13  A    between atoms: C_38  and  C_43
REMARK   14  A    between atoms: C_39  and  C_40
REMARK   15  A    between atoms: C_40  and  C_41
REMARK   16  A    between atoms: C_40  and  C_42
REMARK   17  A    between atoms: N_45  and  C_46
REMARK   18  A    between atoms: N_45  and  C_47
REMARK   19  A    between atoms: C_47  and  C_48
REMARK   20  A    between atoms: N_51  and  C_52
REMARK   21  A    between atoms: C_55  and  C_56
REMARK   22  A    between atoms: C_56  and  C_57
REMARK   23  A    between atoms: C_63  and  C_64
REMARK   24  A    between atoms: C_64  and  C_65
REMARK   25  A    between atoms: C_65  and  C_66
REMARK                            x       y       z     vdW  Elec       q    Type
REMARK                         _______ _______ _______ _____ _____    ______ ____
ROOT
ATOM      1  C   UNL     1      -6.287   4.509 132.900  0.00  0.00    +0.000 C 
ATOM      2  N   UNL     1      -4.934   6.402 134.533  0.00  0.00    +0.000 N 
ATOM      3  C   UNL     1      -3.508   8.204 136.047  0.00  0.00    +0.000 C 
ATOM      4  O   UNL     1      -3.184   9.590 137.260  0.00  0.00    +0.000 OA
ATOM      5  C   UNL     1      -1.397   9.793 136.975  0.00  0.00    +0.000 C 
ATOM      6  N   UNL     1       0.213   9.560 137.526  0.00  0.00    +0.000 N 
ATOM      7  C   UNL     1      -0.695   8.644 137.267  0.00  0.00    +0.000 C 
ATOM      8  O   UNL     1      -0.646   7.463 137.382  0.00  0.00    +0.000 OA
ATOM      9  C   UNL     1      -1.979   8.772 136.336  0.00  0.00    +0.000 C 
ATOM     10  C   UNL     1      -2.431   8.861 135.018  0.00  0.00    +0.000 C 
ATOM     11  S   UNL     1      -2.445   6.825 135.406  0.00  0.00    +0.000 S 
ATOM     12  S   UNL     1      -3.071   6.398 133.571  0.00  0.00    +0.000 S 
ATOM     13  C   UNL     1      -3.459   4.624 133.662  0.00  0.00    +0.000 C 
ATOM     14  C   UNL     1      -3.811   4.143 132.332  0.00  0.00    +0.000 C 
ATOM     15  N   UNL     1      -4.869   4.930 132.093  0.00  0.00    +0.000 N 
ATOM     16  C   UNL     1      -5.318   6.226 131.884  0.00  0.00    +0.000 C 
ATOM     17  C   UNL     1      -5.451   4.462 131.044  0.00  0.00    +0.000 C 
ATOM     18  O   UNL     1      -5.662   3.336 131.582  0.00  0.00    +0.000 OA
ATOM     19  C   UNL     1      -7.415   4.690 131.163  0.00  0.00    +0.000 C 
ATOM     20  N   UNL     1      -8.032   4.197 129.992  0.00  0.00    +0.000 N 
ATOM     21  C   UNL     1      -8.722   2.911 129.957  0.00  0.00    +0.000 C 
ATOM     22  O   UNL     1      -9.345   2.092 128.517  0.00  0.00    +0.000 OA
ATOM     23  C   UNL     1      -7.796   1.383 131.261  0.00  0.00    +0.000 C 
ATOM     24  N   UNL     1      -9.019   0.994 131.427  0.00  0.00    +0.000 N 
ATOM     25  C   UNL     1      -8.028   2.766 131.831  0.00  0.00    +0.000 C 
ATOM     26  O   UNL     1      -9.309   1.560 131.203  0.00  0.00    +0.000 OA
ATOM     27  H   UNL     1      -4.258   7.588 135.598  0.00  0.00    +0.000 HD
ATOM     28  H   UNL     1       1.195   9.240 137.769  0.00  0.00    +0.000 HD
ATOM     29  H   UNL     1      -8.116   4.712 129.197  0.00  0.00    +0.000 HD
ATOM     30  H   UNL     1      -9.759   0.798 132.085  0.00  0.00    +0.000 HD
ENDROOT
BRANCH  14  31
ATOM     31  C   UNL     1      -3.927   2.572 132.320  0.00  0.00    +0.000 C 
ATOM     32  O   UNL     1      -3.882   1.866 131.346  0.00  0.00    +0.000 OA
ATOM     33  N   UNL     1      -4.103   1.904 133.518  0.00  0.00    +0.000 N 
ATOM     34  C   UNL     1      -5.055   2.316 134.516  0.00  0.00    +0.000 C 
ATOM     35  C   UNL     1      -4.407   1.888 135.794  0.00  0.00    +0.000 C 
ATOM     36  C   UNL     1      -3.894   0.493 135.459  0.00  0.00    +0.000 C 
ATOM     37  C   UNL     1      -3.524   0.592 133.996  0.00  0.00    +0.000 C 
BRANCH  37  38
ATOM     38  C   UNL     1      -4.325  -0.617 133.593  0.00  0.00    +0.000 C 
ATOM     39  O   UNL     1      -3.743  -1.345 132.474  0.00  0.00    +0.000 OA
ATOM     40  N   UNL     1      -5.092  -1.399 134.554  0.00  0.00    +0.000 N 
ATOM     41  H   UNL     1      -5.505  -0.897 135.307  0.00  0.00    +0.000 HD
BRANCH  40  42
ATOM     42  C   UNL     1      -5.530  -2.810 134.339  0.00  0.00    +0.000 C 
BRANCH  42  43
ATOM     43  C   UNL     1      -6.304  -3.313 135.583  0.00  0.00    +0.000 C 
ATOM     44  O   UNL     1      -5.699  -3.428 136.657  0.00  0.00    +0.000 OA
ATOM     45  N   UNL     1      -7.683  -3.623 135.449  0.00  0.00    +0.000 N 
ATOM     46  C   UNL     1      -8.331  -3.463 134.180  0.00  0.00    +0.000 C 
BRANCH  45  47
ATOM     47  C   UNL     1      -8.456  -4.108 136.613  0.00  0.00    +0.000 C 
BRANCH  47  48
ATOM     48  C   UNL     1      -9.229  -2.977 137.320  0.00  0.00    +0.000 C 
ATOM     49  N   UNL     1     -10.620  -3.015 137.401  0.00  0.00    +0.000 N 
ATOM     50  O   UNL     1      -8.625  -2.028 137.820  0.00  0.00    +0.000 OA
ATOM     51  H   UNL     1     -11.213  -3.695 137.055  0.00  0.00    +0.000 HD
ATOM     52  H   UNL     1     -11.201  -2.346 137.828  0.00  0.00    +0.000 HD
ENDBRANCH  47  48
ENDBRANCH  45  47
ENDBRANCH  42  43
BRANCH  42  53
ATOM     53  C   UNL     1      -4.338  -3.709 134.079  0.00  0.00    +0.000 C 
BRANCH  53  54
ATOM     54  C   UNL     1      -4.766  -5.075 133.631  0.00  0.00    +0.000 C 
ATOM     55  C   UNL     1      -5.149  -5.113 132.237  0.00  0.00    +0.000 C 
ATOM     56  C   UNL     1      -3.647  -6.019 133.726  0.00  0.00    +0.000 C 
ENDBRANCH  53  54
ENDBRANCH  42  53
ENDBRANCH  40  42
ENDBRANCH  37  38
ENDBRANCH  14  31
BRANCH   9  57
ATOM     57  N   UNL     1      -2.419  10.952 136.492  0.00  0.00    +0.000 NA
ATOM     58  H   UNL     1      -2.034  11.313 135.725  0.00  0.00    +0.000 HD
ATOM     59  H   UNL     1      -1.305  11.509 136.671  0.00  0.00    +0.000 HD
ENDBRANCH   9  57
BRANCH   1  60
ATOM     60  C   UNL     1      -6.837   2.847 130.649  0.00  0.00    +0.000 C 
ATOM     61  C   UNL     1      -6.908   1.242 128.604  0.00  0.00    +0.000 C 
BRANCH  60  63
ATOM     62  C   UNL     1      -6.045   3.150 127.195  0.00  0.00    +0.000 C 
ATOM     63  C   UNL     1      -6.719   2.073 128.706  0.00  0.00    +0.000 C 
ENDBRANCH  60  63
ENDBRANCH   1  60
BRANCH  19  64
ATOM     64  C   UNL     1      -8.777   4.196 132.383  0.00  0.00    +0.000 C 
BRANCH  64  65
ATOM     65  C   UNL     1      -9.731   5.457 132.517  0.00  0.00    +0.000 C 
ATOM     66  N   UNL     1     -10.931   5.525 131.790  0.00  0.00    +0.000 N 
ATOM     67  O   UNL     1      -9.394   6.413 133.178  0.00  0.00    +0.000 OA
ATOM     68  H   UNL     1     -11.295   4.693 131.375  0.00  0.00    +0.000 HD
ATOM     69  H   UNL     1     -11.672   6.156 131.905  0.00  0.00    +0.000 HD
ENDBRANCH  64  65
ENDBRANCH  19  64
BRANCH   5  70
ATOM     70  C   UNL     1      -0.223  11.434 136.030  0.00  0.00    +0.000 C 
BRANCH  70  71
ATOM     71  C   UNL     1       0.124  11.750 134.532  0.00  0.00    +0.000 A 
ATOM     72  C   UNL     1       1.270  11.294 133.905  0.00  0.00    +0.000 A 
ATOM     73  C   UNL     1       1.550  11.620 132.584  0.00  0.00    +0.000 A 
ATOM     74  C   UNL     1       0.652  12.402 131.883  0.00  0.00    +0.000 A 
ATOM     75  C   UNL     1      -0.480  12.880 132.508  0.00  0.00    +0.000 A 
ATOM     76  C   UNL     1      -0.743  12.548 133.815  0.00  0.00    +0.000 A 
BRANCH  74  77
ATOM     77  O   UNL     1       0.814  12.759 130.584  0.00  0.00    +0.000 OA
ATOM     78  H   UNL     1       0.629  13.678 130.357  0.00  0.00    +0.000 HD
ENDBRANCH  74  77
ENDBRANCH  70  71
ENDBRANCH   5  70
BRANCH  23  79
ATOM     79  C   UNL     1      -6.719   0.543 130.628  0.00  0.00    +0.000 C 
BRANCH  79  80
ATOM     80  C   UNL     1      -6.659  -1.259 130.923  0.00  0.00    +0.000 C 
BRANCH  80  81
ATOM     81  C   UNL     1      -6.144  -1.952 129.880  0.00  0.00    +0.000 C 
ATOM     82  N   UNL     1      -4.868  -2.160 129.879  0.00  0.00    +0.000 N 
ATOM     83  O   UNL     1      -6.920  -2.351 129.047  0.00  0.00    +0.000 OA
ATOM     84  H   UNL     1      -4.324  -1.974 130.614  0.00  0.00    +0.000 HD
ATOM     85  H   UNL     1      -4.405  -2.724 129.236  0.00  0.00    +0.000 HD
ENDBRANCH  80  81
ENDBRANCH  79  80
ENDBRANCH  23  79
TORSDOF 19
ENDMDL
MODEL 8
REMARK VINA RESULT:      -9.3      3.144      7.893
REMARK  Name = CHEMBL3814120
REMARK  25 active torsions:
REMARK  status: ('A' for Active; 'I' for Inactive)
REMARK    1  A    between atoms: C_1  and  C_2
REMARK    2  A    between atoms: C_2  and  C_3
REMARK    3  A    between atoms: C_3  and  C_4
REMARK    4  A    between atoms: C_3  and  C_5
REMARK    5  A    between atoms: C_9  and  C_10
REMARK    6  A    between atoms: C_10  and  C_11
REMARK    7  A    between atoms: C_14  and  O_15
REMARK    8  A    between atoms: C_21  and  N_22
REMARK    9  A    between atoms: C_27  and  C_28
REMARK   10  A    between atoms: C_34  and  C_35
REMARK   11  A    between atoms: N_37  and  C_38
REMARK   12  A    between atoms: C_38  and  C_39
REMARK   13  A    between atoms: C_38  and  C_43
REMARK   14  A    between atoms: C_39  and  C_40
REMARK   15  A    between atoms: C_40  and  C_41
REMARK   16  A    between atoms: C_40  and  C_42
REMARK   17  A    between atoms: N_45  and  C_46
REMARK   18  A    between atoms: N_45  and  C_47
REMARK   19  A    between atoms: C_47  and  C_48
REMARK   20  A    between atoms: N_51  and  C_52
REMARK   21  A    between atoms: C_55  and  C_56
REMARK   22  A    between atoms: C_56  and  C_57
REMARK   23  A    between atoms: C_63  and  C_64
REMARK   24  A    between atoms: C_64  and  C_65
REMARK   25  A    between atoms: C_65  and  C_66
REMARK                            x       y       z     vdW  Elec       q    Type
REMARK                         _______ _______ _______ _____ _____    ______ ____
ROOT
ATOM      1  C   UNL     1      -7.957   4.433 132.217  0.00  0.00    +0.000 C 
ATOM      2  N   UNL     1      -8.061   6.032 134.565  0.00  0.00    +0.000 N 
ATOM      3  C   UNL     1      -8.045   7.522 136.879  0.00  0.00    +0.000 C 
ATOM      4  O   UNL     1      -8.544   8.842 138.105  0.00  0.00    +0.000 OA
ATOM      5  C   UNL     1      -7.192   8.629 139.306  0.00  0.00    +0.000 C 
ATOM      6  N   UNL     1      -6.668   8.060 140.840  0.00  0.00    +0.000 N 
ATOM      7  C   UNL     1      -7.181   7.362 139.850  0.00  0.00    +0.000 C 
ATOM      8  O   UNL     1      -7.442   6.205 139.782  0.00  0.00    +0.000 OA
ATOM      9  C   UNL     1      -7.231   7.742 138.306  0.00  0.00    +0.000 C 
ATOM     10  C   UNL     1      -6.478   7.882 137.138  0.00  0.00    +0.000 C 
ATOM     11  S   UNL     1      -7.133   5.917 137.067  0.00  0.00    +0.000 S 
ATOM     12  S   UNL     1      -6.177   5.575 135.362  0.00  0.00    +0.000 S 
ATOM     13  C   UNL     1      -6.787   3.937 134.859  0.00  0.00    +0.000 C 
ATOM     14  C   UNL     1      -6.061   3.500 133.673  0.00  0.00    +0.000 C 
ATOM     15  N   UNL     1      -6.392   4.496 132.839  0.00  0.00    +0.000 N 
ATOM     16  C   UNL     1      -6.286   5.851 132.563  0.00  0.00    +0.000 C 
ATOM     17  C   UNL     1      -6.022   4.132 131.660  0.00  0.00    +0.000 C 
ATOM     18  O   UNL     1      -6.757   3.103 131.674  0.00  0.00    +0.000 OA
ATOM     19  C   UNL     1      -7.281   4.800 130.286  0.00  0.00    +0.000 C 
ATOM     20  N   UNL     1      -6.842   4.416 128.999  0.00  0.00    +0.000 N 
ATOM     21  C   UNL     1      -7.458   3.318 128.261  0.00  0.00    +0.000 C 
ATOM     22  O   UNL     1      -6.871   2.608 126.750  0.00  0.00    +0.000 OA
ATOM     23  C   UNL     1      -8.154   1.669 129.561  0.00  0.00    +0.000 C 
ATOM     24  N   UNL     1      -9.099   1.571 128.683  0.00  0.00    +0.000 N 
ATOM     25  C   UNL     1      -8.500   3.088 129.957  0.00  0.00    +0.000 C 
ATOM     26  O   UNL     1      -9.008   2.179 128.407  0.00  0.00    +0.000 OA
ATOM     27  H   UNL     1      -8.265   7.074 135.933  0.00  0.00    +0.000 HD
ATOM     28  H   UNL     1      -6.306   7.536 141.689  0.00  0.00    +0.000 HD
ATOM     29  H   UNL     1      -6.193   4.907 128.508  0.00  0.00    +0.000 HD
ATOM     30  H   UNL     1     -10.094   1.570 128.513  0.00  0.00    +0.000 HD
ENDROOT
BRANCH  14  31
ATOM     31  C   UNL     1      -6.390   1.996 133.341  0.00  0.00    +0.000 C 
ATOM     32  O   UNL     1      -7.486   1.537 133.147  0.00  0.00    +0.000 OA
ATOM     33  N   UNL     1      -5.352   1.086 133.260  0.00  0.00    +0.000 N 
ATOM     34  C   UNL     1      -4.299   1.004 134.237  0.00  0.00    +0.000 C 
ATOM     35  C   UNL     1      -3.129   0.539 133.430  0.00  0.00    +0.000 C 
ATOM     36  C   UNL     1      -3.735  -0.557 132.561  0.00  0.00    +0.000 C 
ATOM     37  C   UNL     1      -5.145  -0.073 132.309  0.00  0.00    +0.000 C 
BRANCH  37  38
ATOM     38  C   UNL     1      -5.789  -1.357 132.755  0.00  0.00    +0.000 C 
ATOM     39  O   UNL     1      -5.418  -2.501 131.934  0.00  0.00    +0.000 OA
ATOM     40  N   UNL     1      -6.101  -1.629 134.153  0.00  0.00    +0.000 N 
ATOM     41  H   UNL     1      -6.373  -0.849 134.708  0.00  0.00    +0.000 HD
BRANCH  40  42
ATOM     42  C   UNL     1      -6.313  -2.993 134.723  0.00  0.00    +0.000 C 
BRANCH  42  43
ATOM     43  C   UNL     1      -6.915  -2.877 136.146  0.00  0.00    +0.000 C 
ATOM     44  O   UNL     1      -6.421  -2.065 136.940  0.00  0.00    +0.000 OA
ATOM     45  N   UNL     1      -8.016  -3.705 136.490  0.00  0.00    +0.000 N 
ATOM     46  C   UNL     1      -8.549  -4.621 135.524  0.00  0.00    +0.000 C 
BRANCH  45  47
ATOM     47  C   UNL     1      -8.617  -3.626 137.839  0.00  0.00    +0.000 C 
BRANCH  47  48
ATOM     48  C   UNL     1      -9.756  -2.590 137.916  0.00  0.00    +0.000 C 
ATOM     49  N   UNL     1     -11.035  -2.911 137.463  0.00  0.00    +0.000 N 
ATOM     50  O   UNL     1      -9.548  -1.469 138.379  0.00  0.00    +0.000 OA
ATOM     51  H   UNL     1     -11.333  -3.747 137.082  0.00  0.00    +0.000 HD
ATOM     52  H   UNL     1     -11.824  -2.323 137.471  0.00  0.00    +0.000 HD
ENDBRANCH  47  48
ENDBRANCH  45  47
ENDBRANCH  42  43
BRANCH  42  53
ATOM     53  C   UNL     1      -5.008  -3.760 134.779  0.00  0.00    +0.000 C 
BRANCH  53  54
ATOM     54  C   UNL     1      -5.163  -5.150 134.237  0.00  0.00    +0.000 C 
ATOM     55  C   UNL     1      -4.084  -5.530 133.353  0.00  0.00    +0.000 C 
ATOM     56  C   UNL     1      -5.104  -6.133 135.324  0.00  0.00    +0.000 C 
ENDBRANCH  53  54
ENDBRANCH  42  53
ENDBRANCH  40  42
ENDBRANCH  37  38
ENDBRANCH  14  31
BRANCH   9  57
ATOM     57  N   UNL     1      -7.250   9.969 138.400  0.00  0.00    +0.000 NA
ATOM     58  H   UNL     1      -6.484  10.179 138.885  0.00  0.00    +0.000 HD
ATOM     59  H   UNL     1      -7.451  10.254 139.610  0.00  0.00    +0.000 HD
ENDBRANCH   9  57
BRANCH   1  60
ATOM     60  C   UNL     1      -6.844   2.857 130.118  0.00  0.00    +0.000 C 
ATOM     61  C   UNL     1      -5.588   1.232 128.521  0.00  0.00    +0.000 C 
BRANCH  60  63
ATOM     62  C   UNL     1      -3.644   2.842 128.566  0.00  0.00    +0.000 C 
ATOM     63  C   UNL     1      -5.405   2.000 128.858  0.00  0.00    +0.000 C 
ENDBRANCH  60  63
ENDBRANCH   1  60
BRANCH  19  64
ATOM     64  C   UNL     1      -9.142   4.669 129.957  0.00  0.00    +0.000 C 
BRANCH  64  65
ATOM     65  C   UNL     1      -9.588   6.074 129.371  0.00  0.00    +0.000 C 
ATOM     66  N   UNL     1     -10.064   7.085 130.223  0.00  0.00    +0.000 N 
ATOM     67  O   UNL     1      -9.608   6.261 128.175  0.00  0.00    +0.000 OA
ATOM     68  H   UNL     1      -9.905   7.006 131.205  0.00  0.00    +0.000 HD
ATOM     69  H   UNL     1     -10.212   8.031 130.014  0.00  0.00    +0.000 HD
ENDBRANCH  64  65
ENDBRANCH  19  64
BRANCH   5  70
ATOM     70  C   UNL     1      -5.463   9.928 139.840  0.00  0.00    +0.000 C 
BRANCH  70  71
ATOM     71  C   UNL     1      -4.493  10.798 138.965  0.00  0.00    +0.000 A 
ATOM     72  C   UNL     1      -3.708  10.276 137.952  0.00  0.00    +0.000 A 
ATOM     73  C   UNL     1      -2.844  11.080 137.220  0.00  0.00    +0.000 A 
ATOM     74  C   UNL     1      -2.785  12.431 137.503  0.00  0.00    +0.000 A 
ATOM     75  C   UNL     1      -3.544  12.954 138.527  0.00  0.00    +0.000 A 
ATOM     76  C   UNL     1      -4.396  12.146 139.242  0.00  0.00    +0.000 A 
BRANCH  74  77
ATOM     77  O   UNL     1      -1.995  13.309 136.835  0.00  0.00    +0.000 OA
ATOM     78  H   UNL     1      -2.282  14.229 136.816  0.00  0.00    +0.000 HD
ENDBRANCH  74  77
ENDBRANCH  70  71
ENDBRANCH   5  70
BRANCH  23  79
ATOM     79  C   UNL     1      -7.147   0.586 129.846  0.00  0.00    +0.000 C 
BRANCH  79  80
ATOM     80  C   UNL     1      -7.669  -1.163 129.922  0.00  0.00    +0.000 C 
BRANCH  80  81
ATOM     81  C   UNL     1      -7.258  -1.887 128.855  0.00  0.00    +0.000 C 
ATOM     82  N   UNL     1      -6.191  -2.604 129.000  0.00  0.00    +0.000 N 
ATOM     83  O   UNL     1      -7.936  -1.835 127.858  0.00  0.00    +0.000 OA
ATOM     84  H   UNL     1      -5.783  -2.742 129.828  0.00  0.00    +0.000 HD
ATOM     85  H   UNL     1      -5.859  -3.234 128.338  0.00  0.00    +0.000 HD
ENDBRANCH  80  81
ENDBRANCH  79  80
ENDBRANCH  23  79
TORSDOF 19
ENDMDL
MODEL 9
REMARK VINA RESULT:      -9.1      3.926     12.949
REMARK  Name = CHEMBL3814120
REMARK  25 active torsions:
REMARK  status: ('A' for Active; 'I' for Inactive)
REMARK    1  A    between atoms: C_1  and  C_2
REMARK    2  A    between atoms: C_2  and  C_3
REMARK    3  A    between atoms: C_3  and  C_4
REMARK    4  A    between atoms: C_3  and  C_5
REMARK    5  A    between atoms: C_9  and  C_10
REMARK    6  A    between atoms: C_10  and  C_11
REMARK    7  A    between atoms: C_14  and  O_15
REMARK    8  A    between atoms: C_21  and  N_22
REMARK    9  A    between atoms: C_27  and  C_28
REMARK   10  A    between atoms: C_34  and  C_35
REMARK   11  A    between atoms: N_37  and  C_38
REMARK   12  A    between atoms: C_38  and  C_39
REMARK   13  A    between atoms: C_38  and  C_43
REMARK   14  A    between atoms: C_39  and  C_40
REMARK   15  A    between atoms: C_40  and  C_41
REMARK   16  A    between atoms: C_40  and  C_42
REMARK   17  A    between atoms: N_45  and  C_46
REMARK   18  A    between atoms: N_45  and  C_47
REMARK   19  A    between atoms: C_47  and  C_48
REMARK   20  A    between atoms: N_51  and  C_52
REMARK   21  A    between atoms: C_55  and  C_56
REMARK   22  A    between atoms: C_56  and  C_57
REMARK   23  A    between atoms: C_63  and  C_64
REMARK   24  A    between atoms: C_64  and  C_65
REMARK   25  A    between atoms: C_65  and  C_66
REMARK                            x       y       z     vdW  Elec       q    Type
REMARK                         _______ _______ _______ _____ _____    ______ ____
ROOT
ATOM      1  C   UNL     1      -6.898   7.874 136.723  0.00  0.00    +0.000 C 
ATOM      2  N   UNL     1      -7.722   6.019 134.733  0.00  0.00    +0.000 N 
ATOM      3  C   UNL     1      -8.405   4.153 132.829  0.00  0.00    +0.000 C 
ATOM      4  O   UNL     1      -9.457   3.240 131.583  0.00  0.00    +0.000 OA
ATOM      5  C   UNL     1      -8.337   1.845 131.244  0.00  0.00    +0.000 C 
ATOM      6  N   UNL     1      -7.232   1.076 130.178  0.00  0.00    +0.000 N 
ATOM      7  C   UNL     1      -7.131   2.267 130.728  0.00  0.00    +0.000 C 
ATOM      8  O   UNL     1      -6.296   3.102 130.600  0.00  0.00    +0.000 OA
ATOM      9  C   UNL     1      -7.853   2.805 132.039  0.00  0.00    +0.000 C 
ATOM     10  C   UNL     1      -7.896   2.729 133.433  0.00  0.00    +0.000 C 
ATOM     11  S   UNL     1      -6.569   4.278 133.067  0.00  0.00    +0.000 S 
ATOM     12  S   UNL     1      -6.241   4.561 135.005  0.00  0.00    +0.000 S 
ATOM     13  C   UNL     1      -5.274   6.101 135.046  0.00  0.00    +0.000 C 
ATOM     14  C   UNL     1      -4.848   6.361 136.416  0.00  0.00    +0.000 C 
ATOM     15  N   UNL     1      -6.050   6.444 137.002  0.00  0.00    +0.000 N 
ATOM     16  C   UNL     1      -7.210   5.770 137.354  0.00  0.00    +0.000 C 
ATOM     17  C   UNL     1      -5.855   6.914 138.186  0.00  0.00    +0.000 C 
ATOM     18  O   UNL     1      -5.335   7.982 137.748  0.00  0.00    +0.000 OA
ATOM     19  C   UNL     1      -7.356   8.080 138.741  0.00  0.00    +0.000 C 
ATOM     20  N   UNL     1      -7.137   8.562 140.051  0.00  0.00    +0.000 N 
ATOM     21  C   UNL     1      -6.686   9.924 140.315  0.00  0.00    +0.000 C 
ATOM     22  O   UNL     1      -6.176  10.577 141.878  0.00  0.00    +0.000 OA
ATOM     23  C   UNL     1      -5.310  10.707 138.769  0.00  0.00    +0.000 C 
ATOM     24  N   UNL     1      -5.894  11.832 139.028  0.00  0.00    +0.000 N 
ATOM     25  C   UNL     1      -6.576  10.012 138.316  0.00  0.00    +0.000 C 
ATOM     26  O   UNL     1      -6.431  11.569 139.338  0.00  0.00    +0.000 OA
ATOM     27  H   UNL     1      -8.364   4.981 133.505  0.00  0.00    +0.000 HD
ATOM     28  H   UNL     1      -6.409   0.711 129.615  0.00  0.00    +0.000 HD
ATOM     29  H   UNL     1      -7.362   8.062 140.828  0.00  0.00    +0.000 HD
ATOM     30  H   UNL     1      -6.410  12.618 138.660  0.00  0.00    +0.000 HD
ENDROOT
BRANCH  14  31
ATOM     31  C   UNL     1      -3.818   7.551 136.463  0.00  0.00    +0.000 C 
ATOM     32  O   UNL     1      -3.942   8.617 135.918  0.00  0.00    +0.000 OA
ATOM     33  N   UNL     1      -2.647   7.396 137.182  0.00  0.00    +0.000 N 
ATOM     34  C   UNL     1      -1.819   6.223 137.094  0.00  0.00    +0.000 C 
ATOM     35  C   UNL     1      -1.215   6.135 138.460  0.00  0.00    +0.000 C 
ATOM     36  C   UNL     1      -0.824   7.580 138.746  0.00  0.00    +0.000 C 
ATOM     37  C   UNL     1      -1.898   8.384 138.047  0.00  0.00    +0.000 C 
BRANCH  37  38
ATOM     38  C   UNL     1      -0.923   9.247 137.293  0.00  0.00    +0.000 C 
ATOM     39  O   UNL     1       0.445   9.128 137.780  0.00  0.00    +0.000 OA
ATOM     40  N   UNL     1      -1.089   9.558 135.879  0.00  0.00    +0.000 N 
ATOM     41  H   UNL     1      -2.024   9.657 135.553  0.00  0.00    +0.000 HD
BRANCH  40  42
ATOM     42  C   UNL     1       0.012  10.008 134.977  0.00  0.00    +0.000 C 
BRANCH  42  43
ATOM     43  C   UNL     1      -0.190  11.499 134.607  0.00  0.00    +0.000 C 
ATOM     44  O   UNL     1      -1.120  11.806 133.850  0.00  0.00    +0.000 OA
ATOM     45  N   UNL     1       0.697  12.463 135.154  0.00  0.00    +0.000 N 
ATOM     46  C   UNL     1       1.751  12.047 136.031  0.00  0.00    +0.000 C 
BRANCH  45  47
ATOM     47  C   UNL     1       0.537  13.896 134.823  0.00  0.00    +0.000 C 
BRANCH  47  48
ATOM     48  C   UNL     1      -0.622  14.554 135.598  0.00  0.00    +0.000 C 
ATOM     49  N   UNL     1      -1.887  14.659 135.022  0.00  0.00    +0.000 N 
ATOM     50  O   UNL     1      -0.442  14.993 136.733  0.00  0.00    +0.000 OA
ATOM     51  H   UNL     1      -2.163  14.358 134.146  0.00  0.00    +0.000 HD
ATOM     52  H   UNL     1      -2.687  15.059 135.432  0.00  0.00    +0.000 HD
ENDBRANCH  47  48
ENDBRANCH  45  47
ENDBRANCH  42  43
BRANCH  42  53
ATOM     53  C   UNL     1       0.051   9.169 133.716  0.00  0.00    +0.000 C 
BRANCH  53  54
ATOM     54  C   UNL     1      -1.042   8.142 133.704  0.00  0.00    +0.000 C 
ATOM     55  C   UNL     1      -2.072   8.431 132.731  0.00  0.00    +0.000 C 
ATOM     56  C   UNL     1      -0.514   6.836 133.296  0.00  0.00    +0.000 C 
ENDBRANCH  53  54
ENDBRANCH  42  53
ENDBRANCH  40  42
ENDBRANCH  37  38
ENDBRANCH  14  31
BRANCH   9  57
ATOM     57  N   UNL     1      -9.717   1.583 132.048  0.00  0.00    +0.000 NA
ATOM     58  H   UNL     1      -9.470   0.801 132.488  0.00  0.00    +0.000 HD
ATOM     59  H   UNL     1      -9.482   0.604 131.293  0.00  0.00    +0.000 HD
ENDBRANCH   9  57
BRANCH   1  60
ATOM     60  C   UNL     1      -5.550   8.886 139.023  0.00  0.00    +0.000 C 
ATOM     61  C   UNL     1      -3.969   9.593 140.965  0.00  0.00    +0.000 C 
BRANCH  60  63
ATOM     62  C   UNL     1      -4.288   7.292 141.941  0.00  0.00    +0.000 C 
ATOM     63  C   UNL     1      -4.448   8.898 140.805  0.00  0.00    +0.000 C 
ENDBRANCH  60  63
ENDBRANCH   1  60
BRANCH  19  64
ATOM     64  C   UNL     1      -8.216   9.622 138.055  0.00  0.00    +0.000 C 
BRANCH  64  65
ATOM     65  C   UNL     1      -9.775   9.342 138.153  0.00  0.00    +0.000 C 
ATOM     66  N   UNL     1     -10.455   8.713 137.098  0.00  0.00    +0.000 N 
ATOM     67  O   UNL     1     -10.411   9.745 139.100  0.00  0.00    +0.000 OA
ATOM     68  H   UNL     1      -9.928   8.238 136.395  0.00  0.00    +0.000 HD
ATOM     69  H   UNL     1     -11.362   8.341 137.100  0.00  0.00    +0.000 HD
ENDBRANCH  64  65
ENDBRANCH  19  64
BRANCH   5  70
ATOM     70  C   UNL     1      -8.476  -0.322 131.738  0.00  0.00    +0.000 C 
BRANCH  70  71
ATOM     71  C   UNL     1      -7.489  -1.300 132.469  0.00  0.00    +0.000 A 
ATOM     72  C   UNL     1      -7.513  -2.672 132.297  0.00  0.00    +0.000 A 
ATOM     73  C   UNL     1      -6.636  -3.503 132.984  0.00  0.00    +0.000 A 
ATOM     74  C   UNL     1      -5.712  -2.936 133.842  0.00  0.00    +0.000 A 
ATOM     75  C   UNL     1      -5.699  -1.572 134.037  0.00  0.00    +0.000 A 
ATOM     76  C   UNL     1      -6.572  -0.765 133.349  0.00  0.00    +0.000 A 
BRANCH  74  77
ATOM     77  O   UNL     1      -4.796  -3.650 134.542  0.00  0.00    +0.000 OA
ATOM     78  H   UNL     1      -5.001  -3.838 135.466  0.00  0.00    +0.000 HD
ENDBRANCH  74  77
ENDBRANCH  70  71
ENDBRANCH   5  70
BRANCH  23  79
ATOM     79  C   UNL     1      -3.846  10.441 138.997  0.00  0.00    +0.000 C 
BRANCH  79  80
ATOM     80  C   UNL     1      -2.649  11.821 139.022  0.00  0.00    +0.000 C 
BRANCH  80  81
ATOM     81  C   UNL     1      -2.780  12.658 137.966  0.00  0.00    +0.000 C 
ATOM     82  N   UNL     1      -3.013  13.904 138.222  0.00  0.00    +0.000 N 
ATOM     83  O   UNL     1      -2.638  12.185 136.865  0.00  0.00    +0.000 OA
ATOM     84  H   UNL     1      -2.962  14.262 139.083  0.00  0.00    +0.000 HD
ATOM     85  H   UNL     1      -3.030  14.608 137.552  0.00  0.00    +0.000 HD
ENDBRANCH  80  81
ENDBRANCH  79  80
ENDBRANCH  23  79
TORSDOF 19
ENDMDL
