MODEL 1
REMARK VINA RESULT:      -8.4      0.000      0.000
REMARK  Name = CHEMBL4127791
REMARK  22 active torsions:
REMARK  status: ('A' for Active; 'I' for Inactive)
REMARK    1  A    between atoms: C_1  and  C_2
REMARK    2  A    between atoms: C_2  and  C_3
REMARK    3  A    between atoms: C_3  and  C_4
REMARK    4  A    between atoms: C_3  and  C_5
REMARK    5  A    between atoms: C_9  and  C_10
REMARK    6  A    between atoms: C_10  and  C_11
REMARK    7  A    between atoms: C_14  and  O_15
REMARK    8  A    between atoms: C_34  and  C_35
REMARK    9  A    between atoms: C_41  and  C_42
REMARK   10  A    between atoms: N_44  and  C_45
REMARK   11  A    between atoms: C_45  and  C_46
REMARK   12  A    between atoms: C_45  and  C_50
REMARK   13  A    between atoms: C_46  and  C_47
REMARK   14  A    between atoms: C_47  and  C_48
REMARK   15  A    between atoms: C_47  and  C_49
REMARK   16  A    between atoms: N_52  and  C_53
REMARK   17  A    between atoms: C_53  and  C_54
REMARK   18  A    between atoms: C_60  and  C_61
REMARK   19  A    between atoms: C_61  and  C_62
REMARK   20  A    between atoms: C_68  and  C_69
REMARK   21  A    between atoms: C_69  and  C_70
REMARK   22  A    between atoms: C_70  and  C_71
REMARK                            x       y       z     vdW  Elec       q    Type
REMARK                         _______ _______ _______ _____ _____    ______ ____
ROOT
ATOM      1  C   UNL     1      -3.373  -2.643 133.202  0.00  0.00    +0.000 C 
ATOM      2  N   UNL     1      -4.120  -1.593 131.290  0.00  0.00    +0.000 N 
ATOM      3  C   UNL     1      -4.950  -0.923 129.353  0.00  0.00    +0.000 C 
ATOM      4  O   UNL     1      -4.780  -1.562 128.182  0.00  0.00    +0.000 OA
ATOM      5  C   UNL     1      -6.133   0.118 127.636  0.00  0.00    +0.000 C 
ATOM      6  N   UNL     1      -6.723  -0.369 125.697  0.00  0.00    +0.000 N 
ATOM      7  C   UNL     1      -7.399  -1.723 125.226  0.00  0.00    +0.000 C 
ATOM      8  O   UNL     1      -7.607  -2.262 124.121  0.00  0.00    +0.000 OA
ATOM      9  C   UNL     1      -7.578  -2.510 126.460  0.00  0.00    +0.000 C 
ATOM     10  C   UNL     1      -7.504  -1.811 127.706  0.00  0.00    +0.000 C 
ATOM     11  S   UNL     1      -7.515  -2.419 129.252  0.00  0.00    +0.000 S 
ATOM     12  C   UNL     1      -7.260  -1.043 130.405  0.00  0.00    +0.000 C 
ATOM     13  C   UNL     1      -7.331  -1.745 131.679  0.00  0.00    +0.000 A 
ATOM     14  C   UNL     1      -7.488  -3.072 131.921  0.00  0.00    +0.000 A 
ATOM     15  C   UNL     1      -7.858  -3.650 133.143  0.00  0.00    +0.000 A 
ATOM     16  C   UNL     1      -7.766  -3.045 134.318  0.00  0.00    +0.000 A 
ATOM     17  C   UNL     1      -7.253  -1.877 134.163  0.00  0.00    +0.000 A 
ATOM     18  C   UNL     1      -7.378  -1.126 132.842  0.00  0.00    +0.000 A 
ATOM     19  C   UNL     1      -7.557   0.730 132.791  0.00  0.00    +0.000 C 
ATOM     20  S   UNL     1      -5.940   2.068 134.083  0.00  0.00    +0.000 S 
ATOM     21  C   UNL     1      -4.911   3.129 133.308  0.00  0.00    +0.000 C 
ATOM     22  C   UNL     1      -3.493   3.161 133.703  0.00  0.00    +0.000 C 
ATOM     23  N   UNL     1      -3.217   2.628 135.055  0.00  0.00    +0.000 N 
ATOM     24  C   UNL     1      -3.420   1.358 135.456  0.00  0.00    +0.000 C 
ATOM     25  O   UNL     1      -3.282   1.080 136.638  0.00  0.00    +0.000 OA
ATOM     26  C   UNL     1      -3.917   0.397 134.374  0.00  0.00    +0.000 C 
ATOM     27  N   UNL     1      -3.280  -0.593 133.907  0.00  0.00    +0.000 N 
ATOM     28  C   UNL     1      -3.104  -1.248 134.963  0.00  0.00    +0.000 C 
ATOM     29  O   UNL     1      -2.296  -1.548 134.036  0.00  0.00    +0.000 OA
ATOM     30  C   UNL     1      -3.280  -1.364 136.711  0.00  0.00    +0.000 C 
ATOM     31  N   UNL     1      -3.922  -2.620 136.661  0.00  0.00    +0.000 N 
ATOM     32  C   UNL     1      -3.789  -3.419 135.212  0.00  0.00    +0.000 C 
ATOM     33  O   UNL     1      -3.480  -4.443 136.139  0.00  0.00    +0.000 OA
ATOM     34  H   UNL     1      -3.674  -0.629 130.522  0.00  0.00    +0.000 HD
ATOM     35  H   UNL     1      -7.083   0.137 124.522  0.00  0.00    +0.000 HD
ATOM     36  H   UNL     1      -3.028   3.291 135.801  0.00  0.00    +0.000 HD
ATOM     37  H   UNL     1      -2.543  -0.816 133.153  0.00  0.00    +0.000 HD
ATOM     38  H   UNL     1      -4.811  -2.771 137.148  0.00  0.00    +0.000 HD
ENDROOT
BRANCH  22  39
ATOM     39  C   UNL     1      -3.273   4.646 133.596  0.00  0.00    +0.000 C 
ATOM     40  O   UNL     1      -3.288   5.177 134.701  0.00  0.00    +0.000 OA
ATOM     41  N   UNL     1      -3.012   5.223 132.326  0.00  0.00    +0.000 N 
ATOM     42  C   UNL     1      -3.722   5.030 131.072  0.00  0.00    +0.000 C 
ATOM     43  C   UNL     1      -2.632   5.121 130.041  0.00  0.00    +0.000 C 
ATOM     44  C   UNL     1      -1.839   6.310 130.515  0.00  0.00    +0.000 C 
ATOM     45  C   UNL     1      -1.994   6.292 132.025  0.00  0.00    +0.000 C 
BRANCH  45  46
ATOM     46  C   UNL     1      -2.570   7.740 132.137  0.00  0.00    +0.000 C 
ATOM     47  O   UNL     1      -3.752   7.903 131.781  0.00  0.00    +0.000 OA
ATOM     48  N   UNL     1      -1.884   8.625 133.054  0.00  0.00    +0.000 N 
ATOM     49  H   UNL     1      -0.900   8.518 133.295  0.00  0.00    +0.000 HD
BRANCH  48  50
ATOM     50  C   UNL     1      -2.568   9.811 133.695  0.00  0.00    +0.000 C 
BRANCH  50  51
ATOM     51  C   UNL     1      -1.764  11.117 133.415  0.00  0.00    +0.000 C 
ATOM     52  O   UNL     1      -2.289  12.208 133.650  0.00  0.00    +0.000 OA
ATOM     53  N   UNL     1      -0.476  11.015 132.914  0.00  0.00    +0.000 N 
ATOM     54  H   UNL     1      -0.054  10.124 132.723  0.00  0.00    +0.000 HD
BRANCH  53  55
ATOM     55  C   UNL     1       0.343  12.199 132.634  0.00  0.00    +0.000 C 
BRANCH  55  56
ATOM     56  C   UNL     1       0.046  12.862 131.270  0.00  0.00    +0.000 C 
ATOM     57  N   UNL     1      -1.183  13.473 131.110  0.00  0.00    +0.000 N 
ATOM     58  O   UNL     1       0.873  12.843 130.362  0.00  0.00    +0.000 OA
ATOM     59  H   UNL     1      -1.907  13.530 131.804  0.00  0.00    +0.000 HD
ATOM     60  H   UNL     1      -1.421  13.922 130.230  0.00  0.00    +0.000 HD
ENDBRANCH  55  56
ENDBRANCH  53  55
ENDBRANCH  50  51
BRANCH  50  61
ATOM     61  C   UNL     1      -2.765   9.667 135.213  0.00  0.00    +0.000 C 
BRANCH  61  62
ATOM     62  C   UNL     1      -1.965   8.527 135.812  0.00  0.00    +0.000 C 
ATOM     63  C   UNL     1      -0.786   9.018 136.547  0.00  0.00    +0.000 C 
ATOM     64  C   UNL     1      -2.594   7.899 136.987  0.00  0.00    +0.000 C 
ENDBRANCH  61  62
ENDBRANCH  50  61
ENDBRANCH  48  50
ENDBRANCH  45  46
ENDBRANCH  22  39
BRANCH   1  65
ATOM     65  C   UNL     1      -1.841  -3.009 134.967  0.00  0.00    +0.000 C 
ATOM     66  C   UNL     1      -0.099  -3.826 135.888  0.00  0.00    +0.000 C 
BRANCH  65  68
ATOM     67  C   UNL     1       0.883  -3.608 135.188  0.00  0.00    +0.000 C 
ATOM     68  C   UNL     1      -0.440  -3.341 134.504  0.00  0.00    +0.000 C 
ENDBRANCH  65  68
ENDBRANCH   1  65
BRANCH  26  69
ATOM     69  C   UNL     1      -5.091  -0.445 134.763  0.00  0.00    +0.000 C 
BRANCH  69  70
ATOM     70  C   UNL     1      -5.574   0.115 135.928  0.00  0.00    +0.000 C 
ATOM     71  N   UNL     1      -6.288  -1.050 137.144  0.00  0.00    +0.000 N 
ATOM     72  O   UNL     1      -5.800   1.478 135.830  0.00  0.00    +0.000 OA
ATOM     73  H   UNL     1      -6.859  -1.711 136.694  0.00  0.00    +0.000 HD
ATOM     74  H   UNL     1      -7.307  -0.575 137.553  0.00  0.00    +0.000 HD
ENDBRANCH  69  70
ENDBRANCH  26  69
BRANCH   5  75
ATOM     75  C   UNL     1      -8.151   0.520 127.245  0.00  0.00    +0.000 C 
BRANCH  75  76
ATOM     76  C   UNL     1      -8.127   1.792 127.896  0.00  0.00    +0.000 A 
ATOM     77  C   UNL     1      -7.598   2.791 127.101  0.00  0.00    +0.000 A 
ATOM     78  C   UNL     1      -7.099   3.918 127.657  0.00  0.00    +0.000 A 
ATOM     79  C   UNL     1      -7.442   4.194 128.944  0.00  0.00    +0.000 A 
ATOM     80  C   UNL     1      -8.131   3.244 129.697  0.00  0.00    +0.000 A 
ATOM     81  C   UNL     1      -8.379   1.974 129.215  0.00  0.00    +0.000 A 
BRANCH  79  82
ATOM     82  O   UNL     1      -6.965   5.312 129.559  0.00  0.00    +0.000 OA
ATOM     83  H   UNL     1      -6.007   5.475 129.554  0.00  0.00    +0.000 HD
ENDBRANCH  79  82
ENDBRANCH  75  76
ENDBRANCH   5  75
BRANCH  30  84
ATOM     84  C   UNL     1      -2.082  -1.042 137.832  0.00  0.00    +0.000 C 
BRANCH  84  85
ATOM     85  C   UNL     1      -2.505  -1.591 139.145  0.00  0.00    +0.000 C 
BRANCH  85  86
ATOM     86  C   UNL     1      -3.756  -0.838 139.587  0.00  0.00    +0.000 C 
ATOM     87  N   UNL     1      -3.744   0.547 139.762  0.00  0.00    +0.000 N 
ATOM     88  O   UNL     1      -4.789  -1.475 139.783  0.00  0.00    +0.000 OA
ATOM     89  H   UNL     1      -3.037   1.249 139.563  0.00  0.00    +0.000 HD
ATOM     90  H   UNL     1      -4.549   1.048 140.092  0.00  0.00    +0.000 HD
ENDBRANCH  85  86
ENDBRANCH  84  85
ENDBRANCH  30  84
TORSDOF 18
ENDMDL
MODEL 2
REMARK VINA RESULT:      -8.1      4.172      9.262
REMARK  Name = CHEMBL4127791
REMARK  22 active torsions:
REMARK  status: ('A' for Active; 'I' for Inactive)
REMARK    1  A    between atoms: C_1  and  C_2
REMARK    2  A    between atoms: C_2  and  C_3
REMARK    3  A    between atoms: C_3  and  C_4
REMARK    4  A    between atoms: C_3  and  C_5
REMARK    5  A    between atoms: C_9  and  C_10
REMARK    6  A    between atoms: C_10  and  C_11
REMARK    7  A    between atoms: C_14  and  O_15
REMARK    8  A    between atoms: C_34  and  C_35
REMARK    9  A    between atoms: C_41  and  C_42
REMARK   10  A    between atoms: N_44  and  C_45
REMARK   11  A    between atoms: C_45  and  C_46
REMARK   12  A    between atoms: C_45  and  C_50
REMARK   13  A    between atoms: C_46  and  C_47
REMARK   14  A    between atoms: C_47  and  C_48
REMARK   15  A    between atoms: C_47  and  C_49
REMARK   16  A    between atoms: N_52  and  C_53
REMARK   17  A    between atoms: C_53  and  C_54
REMARK   18  A    between atoms: C_60  and  C_61
REMARK   19  A    between atoms: C_61  and  C_62
REMARK   20  A    between atoms: C_68  and  C_69
REMARK   21  A    between atoms: C_69  and  C_70
REMARK   22  A    between atoms: C_70  and  C_71
REMARK                            x       y       z     vdW  Elec       q    Type
REMARK                         _______ _______ _______ _____ _____    ______ ____
ROOT
ATOM      1  C   UNL     1      -7.302  -3.292 133.147  0.00  0.00    +0.000 C 
ATOM      2  N   UNL     1      -8.187  -2.948 135.247  0.00  0.00    +0.000 N 
ATOM      3  C   UNL     1      -9.154  -2.968 137.236  0.00  0.00    +0.000 C 
ATOM      4  O   UNL     1     -10.369  -3.485 137.495  0.00  0.00    +0.000 OA
ATOM      5  C   UNL     1      -9.660  -2.857 139.508  0.00  0.00    +0.000 C 
ATOM      6  N   UNL     1     -11.068  -3.711 140.786  0.00  0.00    +0.000 N 
ATOM      7  C   UNL     1     -11.473  -5.242 140.859  0.00  0.00    +0.000 C 
ATOM      8  O   UNL     1     -12.412  -5.878 141.377  0.00  0.00    +0.000 OA
ATOM      9  C   UNL     1     -10.591  -5.917 139.888  0.00  0.00    +0.000 C 
ATOM     10  C   UNL     1      -9.425  -5.212 139.453  0.00  0.00    +0.000 C 
ATOM     11  S   UNL     1      -8.328  -5.625 138.277  0.00  0.00    +0.000 S 
ATOM     12  C   UNL     1      -7.145  -4.261 138.100  0.00  0.00    +0.000 C 
ATOM     13  C   UNL     1      -6.264  -4.804 137.075  0.00  0.00    +0.000 A 
ATOM     14  C   UNL     1      -6.348  -5.982 136.405  0.00  0.00    +0.000 A 
ATOM     15  C   UNL     1      -5.321  -6.587 135.668  0.00  0.00    +0.000 A 
ATOM     16  C   UNL     1      -4.247  -5.956 135.218  0.00  0.00    +0.000 A 
ATOM     17  C   UNL     1      -4.319  -4.710 135.525  0.00  0.00    +0.000 A 
ATOM     18  C   UNL     1      -5.124  -4.237 136.730  0.00  0.00    +0.000 A 
ATOM     19  C   UNL     1      -4.568  -2.788 137.765  0.00  0.00    +0.000 C 
ATOM     20  S   UNL     1      -3.982  -0.703 136.588  0.00  0.00    +0.000 S 
ATOM     21  C   UNL     1      -4.852   0.694 136.862  0.00  0.00    +0.000 C 
ATOM     22  C   UNL     1      -5.250   1.521 135.711  0.00  0.00    +0.000 C 
ATOM     23  N   UNL     1      -4.437   1.314 134.493  0.00  0.00    +0.000 N 
ATOM     24  C   UNL     1      -4.352   0.169 133.789  0.00  0.00    +0.000 C 
ATOM     25  O   UNL     1      -3.537   0.089 132.882  0.00  0.00    +0.000 OA
ATOM     26  C   UNL     1      -5.239  -0.975 134.283  0.00  0.00    +0.000 C 
ATOM     27  N   UNL     1      -6.216  -1.484 133.658  0.00  0.00    +0.000 N 
ATOM     28  C   UNL     1      -5.626  -1.866 132.619  0.00  0.00    +0.000 C 
ATOM     29  O   UNL     1      -6.878  -1.735 132.476  0.00  0.00    +0.000 OA
ATOM     30  C   UNL     1      -4.145  -1.946 131.670  0.00  0.00    +0.000 C 
ATOM     31  N   UNL     1      -4.199  -3.349 131.523  0.00  0.00    +0.000 N 
ATOM     32  C   UNL     1      -5.664  -4.037 131.890  0.00  0.00    +0.000 C 
ATOM     33  O   UNL     1      -5.347  -4.663 130.661  0.00  0.00    +0.000 OA
ATOM     34  H   UNL     1      -8.779  -1.949 135.857  0.00  0.00    +0.000 HD
ATOM     35  H   UNL     1     -11.701  -3.561 141.945  0.00  0.00    +0.000 HD
ATOM     36  H   UNL     1      -3.746   2.020 134.254  0.00  0.00    +0.000 HD
ATOM     37  H   UNL     1      -7.269  -1.317 133.499  0.00  0.00    +0.000 HD
ATOM     38  H   UNL     1      -3.387  -3.929 131.758  0.00  0.00    +0.000 HD
ENDROOT
BRANCH  22  39
ATOM     39  C   UNL     1      -5.045   2.874 136.337  0.00  0.00    +0.000 C 
ATOM     40  O   UNL     1      -4.644   2.772 137.491  0.00  0.00    +0.000 OA
ATOM     41  N   UNL     1      -5.247   4.042 135.557  0.00  0.00    +0.000 N 
ATOM     42  C   UNL     1      -6.369   4.383 134.696  0.00  0.00    +0.000 C 
ATOM     43  C   UNL     1      -5.725   5.160 133.582  0.00  0.00    +0.000 C 
ATOM     44  C   UNL     1      -4.784   6.069 134.326  0.00  0.00    +0.000 C 
ATOM     45  C   UNL     1      -4.381   5.275 135.555  0.00  0.00    +0.000 C 
BRANCH  45  46
ATOM     46  C   UNL     1      -4.839   6.351 136.590  0.00  0.00    +0.000 C 
ATOM     47  O   UNL     1      -4.901   7.528 136.187  0.00  0.00    +0.000 OA
ATOM     48  N   UNL     1      -5.585   5.858 137.728  0.00  0.00    +0.000 N 
ATOM     49  H   UNL     1      -5.485   4.910 138.087  0.00  0.00    +0.000 HD
BRANCH  48  50
ATOM     50  C   UNL     1      -6.544   6.732 138.504  0.00  0.00    +0.000 C 
BRANCH  50  51
ATOM     51  C   UNL     1      -6.730   6.181 139.951  0.00  0.00    +0.000 C 
ATOM     52  O   UNL     1      -6.758   6.972 140.896  0.00  0.00    +0.000 OA
ATOM     53  N   UNL     1      -6.866   4.814 140.134  0.00  0.00    +0.000 N 
ATOM     54  H   UNL     1      -6.840   4.174 139.359  0.00  0.00    +0.000 HD
BRANCH  53  55
ATOM     55  C   UNL     1      -7.052   4.224 141.463  0.00  0.00    +0.000 C 
BRANCH  55  56
ATOM     56  C   UNL     1      -6.113   3.033 141.760  0.00  0.00    +0.000 C 
ATOM     57  N   UNL     1      -5.574   2.358 140.682  0.00  0.00    +0.000 N 
ATOM     58  O   UNL     1      -5.856   2.700 142.915  0.00  0.00    +0.000 OA
ATOM     59  H   UNL     1      -5.736   2.571 139.714  0.00  0.00    +0.000 HD
ATOM     60  H   UNL     1      -4.951   1.569 140.831  0.00  0.00    +0.000 HD
ENDBRANCH  55  56
ENDBRANCH  53  55
ENDBRANCH  50  51
BRANCH  50  61
ATOM     61  C   UNL     1      -7.927   6.871 137.846  0.00  0.00    +0.000 C 
BRANCH  61  62
ATOM     62  C   UNL     1      -8.634   8.162 138.208  0.00  0.00    +0.000 C 
ATOM     63  C   UNL     1      -7.829   9.342 137.846  0.00  0.00    +0.000 C 
ATOM     64  C   UNL     1      -9.762   8.503 137.324  0.00  0.00    +0.000 C 
ENDBRANCH  61  62
ENDBRANCH  50  61
ENDBRANCH  48  50
ENDBRANCH  45  46
ENDBRANCH  22  39
BRANCH   1  65
ATOM     65  C   UNL     1      -6.751  -2.646 130.939  0.00  0.00    +0.000 C 
ATOM     66  C   UNL     1      -7.003  -2.556 128.822  0.00  0.00    +0.000 C 
BRANCH  65  68
ATOM     67  C   UNL     1      -8.380  -3.370 128.783  0.00  0.00    +0.000 C 
ATOM     68  C   UNL     1      -7.938  -2.592 130.002  0.00  0.00    +0.000 C 
ENDBRANCH  65  68
ENDBRANCH   1  65
BRANCH  26  69
ATOM     69  C   UNL     1      -4.550  -2.294 134.432  0.00  0.00    +0.000 C 
BRANCH  69  70
ATOM     70  C   UNL     1      -3.200  -2.007 134.409  0.00  0.00    +0.000 C 
ATOM     71  N   UNL     1      -2.128  -3.253 133.606  0.00  0.00    +0.000 N 
ATOM     72  O   UNL     1      -2.829  -1.036 135.324  0.00  0.00    +0.000 OA
ATOM     73  H   UNL     1      -2.388  -4.159 133.880  0.00  0.00    +0.000 HD
ATOM     74  H   UNL     1      -1.167  -3.412 134.300  0.00  0.00    +0.000 HD
ENDBRANCH  69  70
ENDBRANCH  26  69
BRANCH   5  75
ATOM     75  C   UNL     1      -8.833  -3.649 141.262  0.00  0.00    +0.000 C 
BRANCH  75  76
ATOM     76  C   UNL     1      -7.966  -2.533 141.475  0.00  0.00    +0.000 A 
ATOM     77  C   UNL     1      -6.648  -2.811 141.168  0.00  0.00    +0.000 A 
ATOM     78  C   UNL     1      -5.649  -2.068 141.695  0.00  0.00    +0.000 A 
ATOM     79  C   UNL     1      -5.973  -0.860 142.230  0.00  0.00    +0.000 A 
ATOM     80  C   UNL     1      -7.314  -0.508 142.384  0.00  0.00    +0.000 A 
ATOM     81  C   UNL     1      -8.335  -1.397 142.116  0.00  0.00    +0.000 A 
BRANCH  79  82
ATOM     82  O   UNL     1      -5.010  -0.070 142.781  0.00  0.00    +0.000 OA
ATOM     83  H   UNL     1      -4.358  -0.475 143.378  0.00  0.00    +0.000 HD
ENDBRANCH  79  82
ENDBRANCH  75  76
ENDBRANCH   5  75
BRANCH  30  84
ATOM     84  C   UNL     1      -3.760  -0.949 130.383  0.00  0.00    +0.000 C 
BRANCH  84  85
ATOM     85  C   UNL     1      -4.914  -0.053 130.119  0.00  0.00    +0.000 C 
BRANCH  85  86
ATOM     86  C   UNL     1      -4.369   1.341 129.826  0.00  0.00    +0.000 C 
ATOM     87  N   UNL     1      -4.127   2.255 130.853  0.00  0.00    +0.000 N 
ATOM     88  O   UNL     1      -4.136   1.649 128.659  0.00  0.00    +0.000 OA
ATOM     89  H   UNL     1      -4.161   2.163 131.864  0.00  0.00    +0.000 HD
ATOM     90  H   UNL     1      -3.808   3.189 130.669  0.00  0.00    +0.000 HD
ENDBRANCH  85  86
ENDBRANCH  84  85
ENDBRANCH  30  84
TORSDOF 18
ENDMDL
MODEL 3
REMARK VINA RESULT:      -8.0      1.769      2.378
REMARK  Name = CHEMBL4127791
REMARK  22 active torsions:
REMARK  status: ('A' for Active; 'I' for Inactive)
REMARK    1  A    between atoms: C_1  and  C_2
REMARK    2  A    between atoms: C_2  and  C_3
REMARK    3  A    between atoms: C_3  and  C_4
REMARK    4  A    between atoms: C_3  and  C_5
REMARK    5  A    between atoms: C_9  and  C_10
REMARK    6  A    between atoms: C_10  and  C_11
REMARK    7  A    between atoms: C_14  and  O_15
REMARK    8  A    between atoms: C_34  and  C_35
REMARK    9  A    between atoms: C_41  and  C_42
REMARK   10  A    between atoms: N_44  and  C_45
REMARK   11  A    between atoms: C_45  and  C_46
REMARK   12  A    between atoms: C_45  and  C_50
REMARK   13  A    between atoms: C_46  and  C_47
REMARK   14  A    between atoms: C_47  and  C_48
REMARK   15  A    between atoms: C_47  and  C_49
REMARK   16  A    between atoms: N_52  and  C_53
REMARK   17  A    between atoms: C_53  and  C_54
REMARK   18  A    between atoms: C_60  and  C_61
REMARK   19  A    between atoms: C_61  and  C_62
REMARK   20  A    between atoms: C_68  and  C_69
REMARK   21  A    between atoms: C_69  and  C_70
REMARK   22  A    between atoms: C_70  and  C_71
REMARK                            x       y       z     vdW  Elec       q    Type
REMARK                         _______ _______ _______ _____ _____    ______ ____
ROOT
ATOM      1  C   UNL     1      -3.487  -1.982 132.478  0.00  0.00    +0.000 C 
ATOM      2  N   UNL     1      -4.284  -1.150 130.481  0.00  0.00    +0.000 N 
ATOM      3  C   UNL     1      -5.142  -0.702 128.493  0.00  0.00    +0.000 C 
ATOM      4  O   UNL     1      -4.931  -1.431 127.382  0.00  0.00    +0.000 OA
ATOM      5  C   UNL     1      -6.376   0.113 126.691  0.00  0.00    +0.000 C 
ATOM      6  N   UNL     1      -6.927  -0.576 124.803  0.00  0.00    +0.000 N 
ATOM      7  C   UNL     1      -7.522  -2.003 124.453  0.00  0.00    +0.000 C 
ATOM      8  O   UNL     1      -7.693  -2.649 123.401  0.00  0.00    +0.000 OA
ATOM      9  C   UNL     1      -7.661  -2.688 125.752  0.00  0.00    +0.000 C 
ATOM     10  C   UNL     1      -7.633  -1.878 126.932  0.00  0.00    +0.000 C 
ATOM     11  S   UNL     1      -7.617  -2.348 128.525  0.00  0.00    +0.000 S 
ATOM     12  C   UNL     1      -7.447  -0.862 129.552  0.00  0.00    +0.000 C 
ATOM     13  C   UNL     1      -7.483  -1.453 130.883  0.00  0.00    +0.000 A 
ATOM     14  C   UNL     1      -7.564  -2.760 131.241  0.00  0.00    +0.000 A 
ATOM     15  C   UNL     1      -7.906  -3.248 132.509  0.00  0.00    +0.000 A 
ATOM     16  C   UNL     1      -7.855  -2.538 133.627  0.00  0.00    +0.000 A 
ATOM     17  C   UNL     1      -7.409  -1.361 133.369  0.00  0.00    +0.000 A 
ATOM     18  C   UNL     1      -7.571  -0.737 131.987  0.00  0.00    +0.000 A 
ATOM     19  C   UNL     1      -7.857   1.093 131.773  0.00  0.00    +0.000 C 
ATOM     20  S   UNL     1      -6.326   2.632 132.941  0.00  0.00    +0.000 S 
ATOM     21  C   UNL     1      -5.356   3.677 132.074  0.00  0.00    +0.000 C 
ATOM     22  C   UNL     1      -3.944   3.827 132.465  0.00  0.00    +0.000 C 
ATOM     23  N   UNL     1      -3.644   3.431 133.858  0.00  0.00    +0.000 N 
ATOM     24  C   UNL     1      -3.776   2.192 134.370  0.00  0.00    +0.000 C 
ATOM     25  O   UNL     1      -3.628   2.028 135.572  0.00  0.00    +0.000 OA
ATOM     26  C   UNL     1      -4.211   1.113 133.377  0.00  0.00    +0.000 C 
ATOM     27  N   UNL     1      -3.516   0.124 132.999  0.00  0.00    +0.000 N 
ATOM     28  C   UNL     1      -3.308  -0.424 134.108  0.00  0.00    +0.000 C 
ATOM     29  O   UNL     1      -2.479  -0.757 133.211  0.00  0.00    +0.000 OA
ATOM     30  C   UNL     1      -3.485  -0.396 135.860  0.00  0.00    +0.000 C 
ATOM     31  N   UNL     1      -4.053  -1.687 135.922  0.00  0.00    +0.000 N 
ATOM     32  C   UNL     1      -3.867  -2.601 134.549  0.00  0.00    +0.000 C 
ATOM     33  O   UNL     1      -3.504  -3.519 135.562  0.00  0.00    +0.000 OA
ATOM     34  H   UNL     1      -3.891  -0.233 129.630  0.00  0.00    +0.000 HD
ATOM     35  H   UNL     1      -7.310  -0.197 123.588  0.00  0.00    +0.000 HD
ATOM     36  H   UNL     1      -3.498   4.168 134.543  0.00  0.00    +0.000 HD
ATOM     37  H   UNL     1      -2.763  -0.122 132.268  0.00  0.00    +0.000 HD
ATOM     38  H   UNL     1      -4.934  -1.845 136.421  0.00  0.00    +0.000 HD
ENDROOT
BRANCH  22  39
ATOM     39  C   UNL     1      -3.810   5.307 132.227  0.00  0.00    +0.000 C 
ATOM     40  O   UNL     1      -4.695   5.718 131.486  0.00  0.00    +0.000 OA
ATOM     41  N   UNL     1      -2.793   6.032 132.899  0.00  0.00    +0.000 N 
ATOM     42  C   UNL     1      -1.379   5.717 133.029  0.00  0.00    +0.000 C 
ATOM     43  C   UNL     1      -1.034   6.234 134.397  0.00  0.00    +0.000 C 
ATOM     44  C   UNL     1      -1.717   7.575 134.416  0.00  0.00    +0.000 C 
ATOM     45  C   UNL     1      -2.936   7.393 133.531  0.00  0.00    +0.000 C 
BRANCH  45  46
ATOM     46  C   UNL     1      -2.594   8.564 132.555  0.00  0.00    +0.000 C 
ATOM     47  O   UNL     1      -3.275   8.647 131.516  0.00  0.00    +0.000 OA
ATOM     48  N   UNL     1      -1.886   9.685 133.136  0.00  0.00    +0.000 N 
ATOM     49  H   UNL     1      -1.285   9.596 133.953  0.00  0.00    +0.000 HD
BRANCH  48  50
ATOM     50  C   UNL     1      -1.950  11.074 132.543  0.00  0.00    +0.000 C 
BRANCH  50  51
ATOM     51  C   UNL     1      -0.513  11.654 132.365  0.00  0.00    +0.000 C 
ATOM     52  O   UNL     1      -0.305  12.476 131.469  0.00  0.00    +0.000 OA
ATOM     53  N   UNL     1       0.489  11.234 133.224  0.00  0.00    +0.000 N 
ATOM     54  H   UNL     1       0.313  10.563 133.951  0.00  0.00    +0.000 HD
BRANCH  53  55
ATOM     55  C   UNL     1       1.862  11.741 133.122  0.00  0.00    +0.000 C 
BRANCH  55  56
ATOM     56  C   UNL     1       2.255  12.722 134.248  0.00  0.00    +0.000 C 
ATOM     57  N   UNL     1       2.610  14.007 133.884  0.00  0.00    +0.000 N 
ATOM     58  O   UNL     1       2.252  12.370 135.426  0.00  0.00    +0.000 OA
ATOM     59  H   UNL     1       2.636  14.367 132.946  0.00  0.00    +0.000 HD
ATOM     60  H   UNL     1       2.876  14.685 134.592  0.00  0.00    +0.000 HD
ENDBRANCH  55  56
ENDBRANCH  53  55
ENDBRANCH  50  51
BRANCH  50  61
ATOM     61  C   UNL     1      -2.783  12.064 133.374  0.00  0.00    +0.000 C 
BRANCH  61  62
ATOM     62  C   UNL     1      -2.073  13.380 133.623  0.00  0.00    +0.000 C 
ATOM     63  C   UNL     1      -2.931  14.532 133.290  0.00  0.00    +0.000 C 
ATOM     64  C   UNL     1      -1.935  13.733 135.047  0.00  0.00    +0.000 C 
ENDBRANCH  61  62
ENDBRANCH  50  61
ENDBRANCH  48  50
ENDBRANCH  45  46
ENDBRANCH  22  39
BRANCH   1  65
ATOM     65  C   UNL     1      -1.945  -2.101 134.268  0.00  0.00    +0.000 C 
ATOM     66  C   UNL     1      -0.129  -2.673 135.232  0.00  0.00    +0.000 C 
BRANCH  65  68
ATOM     67  C   UNL     1       0.824  -1.704 134.256  0.00  0.00    +0.000 C 
ATOM     68  C   UNL     1      -0.508  -2.279 133.829  0.00  0.00    +0.000 C 
ENDBRANCH  65  68
ENDBRANCH   1  65
BRANCH  26  69
ATOM     69  C   UNL     1      -5.336   0.241 133.840  0.00  0.00    +0.000 C 
BRANCH  69  70
ATOM     70  C   UNL     1      -5.893   0.902 134.916  0.00  0.00    +0.000 C 
ATOM     71  N   UNL     1      -5.932  -0.025 136.494  0.00  0.00    +0.000 N 
ATOM     72  O   UNL     1      -6.675   1.984 134.552  0.00  0.00    +0.000 OA
ATOM     73  H   UNL     1      -6.217  -0.952 136.341  0.00  0.00    +0.000 HD
ATOM     74  H   UNL     1      -7.011   0.135 136.986  0.00  0.00    +0.000 HD
ENDBRANCH  69  70
ENDBRANCH  26  69
BRANCH   5  75
ATOM     75  C   UNL     1      -8.412   0.361 126.267  0.00  0.00    +0.000 C 
BRANCH  75  76
ATOM     76  C   UNL     1      -8.334   1.788 126.241  0.00  0.00    +0.000 A 
ATOM     77  C   UNL     1      -8.664   2.321 125.010  0.00  0.00    +0.000 A 
ATOM     78  C   UNL     1      -8.245   3.559 124.663  0.00  0.00    +0.000 A 
ATOM     79  C   UNL     1      -7.810   4.381 125.656  0.00  0.00    +0.000 A 
ATOM     80  C   UNL     1      -7.639   3.879 126.946  0.00  0.00    +0.000 A 
ATOM     81  C   UNL     1      -7.786   2.536 127.229  0.00  0.00    +0.000 A 
BRANCH  79  82
ATOM     82  O   UNL     1      -7.370   5.637 125.367  0.00  0.00    +0.000 OA
ATOM     83  H   UNL     1      -7.098   6.216 126.099  0.00  0.00    +0.000 HD
ENDBRANCH  79  82
ENDBRANCH  75  76
ENDBRANCH   5  75
BRANCH  30  84
ATOM     84  C   UNL     1      -2.312   0.093 136.948  0.00  0.00    +0.000 C 
BRANCH  84  85
ATOM     85  C   UNL     1      -2.911   0.116 138.307  0.00  0.00    +0.000 C 
BRANCH  85  86
ATOM     86  C   UNL     1      -2.484   1.415 138.985  0.00  0.00    +0.000 C 
ATOM     87  N   UNL     1      -2.265   2.579 138.247  0.00  0.00    +0.000 N 
ATOM     88  O   UNL     1      -2.341   1.422 140.205  0.00  0.00    +0.000 OA
ATOM     89  H   UNL     1      -2.419   2.800 137.267  0.00  0.00    +0.000 HD
ATOM     90  H   UNL     1      -1.944   3.427 138.676  0.00  0.00    +0.000 HD
ENDBRANCH  85  86
ENDBRANCH  84  85
ENDBRANCH  30  84
TORSDOF 18
ENDMDL
MODEL 4
REMARK VINA RESULT:      -8.0      4.472      9.005
REMARK  Name = CHEMBL4127791
REMARK  22 active torsions:
REMARK  status: ('A' for Active; 'I' for Inactive)
REMARK    1  A    between atoms: C_1  and  C_2
REMARK    2  A    between atoms: C_2  and  C_3
REMARK    3  A    between atoms: C_3  and  C_4
REMARK    4  A    between atoms: C_3  and  C_5
REMARK    5  A    between atoms: C_9  and  C_10
REMARK    6  A    between atoms: C_10  and  C_11
REMARK    7  A    between atoms: C_14  and  O_15
REMARK    8  A    between atoms: C_34  and  C_35
REMARK    9  A    between atoms: C_41  and  C_42
REMARK   10  A    between atoms: N_44  and  C_45
REMARK   11  A    between atoms: C_45  and  C_46
REMARK   12  A    between atoms: C_45  and  C_50
REMARK   13  A    between atoms: C_46  and  C_47
REMARK   14  A    between atoms: C_47  and  C_48
REMARK   15  A    between atoms: C_47  and  C_49
REMARK   16  A    between atoms: N_52  and  C_53
REMARK   17  A    between atoms: C_53  and  C_54
REMARK   18  A    between atoms: C_60  and  C_61
REMARK   19  A    between atoms: C_61  and  C_62
REMARK   20  A    between atoms: C_68  and  C_69
REMARK   21  A    between atoms: C_69  and  C_70
REMARK   22  A    between atoms: C_70  and  C_71
REMARK                            x       y       z     vdW  Elec       q    Type
REMARK                         _______ _______ _______ _____ _____    ______ ____
ROOT
ATOM      1  C   UNL     1      -7.396  -3.700 132.237  0.00  0.00    +0.000 C 
ATOM      2  N   UNL     1      -8.020  -3.385 134.433  0.00  0.00    +0.000 N 
ATOM      3  C   UNL     1      -8.647  -3.452 136.553  0.00  0.00    +0.000 C 
ATOM      4  O   UNL     1      -9.640  -4.219 137.037  0.00  0.00    +0.000 OA
ATOM      5  C   UNL     1      -8.824  -3.255 138.869  0.00  0.00    +0.000 C 
ATOM      6  N   UNL     1      -9.767  -4.300 140.406  0.00  0.00    +0.000 N 
ATOM      7  C   UNL     1      -9.757  -5.870 140.627  0.00  0.00    +0.000 C 
ATOM      8  O   UNL     1     -10.419  -6.662 141.327  0.00  0.00    +0.000 OA
ATOM      9  C   UNL     1      -8.887  -6.400 139.561  0.00  0.00    +0.000 C 
ATOM     10  C   UNL     1      -8.014  -5.479 138.901  0.00  0.00    +0.000 C 
ATOM     11  S   UNL     1      -7.033  -5.724 137.584  0.00  0.00    +0.000 S 
ATOM     12  C   UNL     1      -6.272  -4.139 137.140  0.00  0.00    +0.000 C 
ATOM     13  C   UNL     1      -5.444  -4.547 136.013  0.00  0.00    +0.000 A 
ATOM     14  C   UNL     1      -5.326  -5.767 135.430  0.00  0.00    +0.000 A 
ATOM     15  C   UNL     1      -4.300  -6.174 134.567  0.00  0.00    +0.000 A 
ATOM     16  C   UNL     1      -3.498  -5.347 133.911  0.00  0.00    +0.000 A 
ATOM     17  C   UNL     1      -3.835  -4.133 134.160  0.00  0.00    +0.000 A 
ATOM     18  C   UNL     1      -4.547  -3.757 135.454  0.00  0.00    +0.000 A 
ATOM     19  C   UNL     1      -4.227  -2.127 136.304  0.00  0.00    +0.000 C 
ATOM     20  S   UNL     1      -4.366  -0.081 134.936  0.00  0.00    +0.000 S 
ATOM     21  C   UNL     1      -5.511   1.085 135.275  0.00  0.00    +0.000 C 
ATOM     22  C   UNL     1      -6.269   1.682 134.163  0.00  0.00    +0.000 C 
ATOM     23  N   UNL     1      -5.619   1.564 132.840  0.00  0.00    +0.000 N 
ATOM     24  C   UNL     1      -5.353   0.412 132.194  0.00  0.00    +0.000 C 
ATOM     25  O   UNL     1      -4.687   0.447 131.170  0.00  0.00    +0.000 OA
ATOM     26  C   UNL     1      -5.841  -0.860 132.889  0.00  0.00    +0.000 C 
ATOM     27  N   UNL     1      -6.738  -1.645 132.463  0.00  0.00    +0.000 N 
ATOM     28  C   UNL     1      -6.231  -1.969 131.363  0.00  0.00    +0.000 C 
ATOM     29  O   UNL     1      -7.482  -2.156 131.422  0.00  0.00    +0.000 OA
ATOM     30  C   UNL     1      -4.935  -1.778 130.187  0.00  0.00    +0.000 C 
ATOM     31  N   UNL     1      -4.654  -3.160 130.126  0.00  0.00    +0.000 N 
ATOM     32  C   UNL     1      -5.827  -4.143 130.767  0.00  0.00    +0.000 C 
ATOM     33  O   UNL     1      -5.548  -4.786 129.538  0.00  0.00    +0.000 OA
ATOM     34  H   UNL     1      -8.748  -2.506 135.078  0.00  0.00    +0.000 HD
ATOM     35  H   UNL     1     -10.239  -4.200 141.644  0.00  0.00    +0.000 HD
ATOM     36  H   UNL     1      -5.171   2.390 132.452  0.00  0.00    +0.000 HD
ATOM     37  H   UNL     1      -7.811  -1.751 132.472  0.00  0.00    +0.000 HD
ATOM     38  H   UNL     1      -3.696  -3.504 130.254  0.00  0.00    +0.000 HD
ENDROOT
BRANCH  22  39
ATOM     39  C   UNL     1      -6.322   3.097 134.673  0.00  0.00    +0.000 C 
ATOM     40  O   UNL     1      -5.375   3.336 135.414  0.00  0.00    +0.000 OA
ATOM     41  N   UNL     1      -7.345   3.966 134.215  0.00  0.00    +0.000 N 
ATOM     42  C   UNL     1      -8.777   3.726 134.129  0.00  0.00    +0.000 C 
ATOM     43  C   UNL     1      -9.183   4.496 132.904  0.00  0.00    +0.000 C 
ATOM     44  C   UNL     1      -8.443   5.795 133.080  0.00  0.00    +0.000 C 
ATOM     45  C   UNL     1      -7.181   5.414 133.832  0.00  0.00    +0.000 C 
BRANCH  45  46
ATOM     46  C   UNL     1      -7.410   6.397 135.024  0.00  0.00    +0.000 C 
ATOM     47  O   UNL     1      -8.566   6.834 135.178  0.00  0.00    +0.000 OA
ATOM     48  N   UNL     1      -6.432   6.339 136.089  0.00  0.00    +0.000 N 
ATOM     49  H   UNL     1      -5.471   6.034 135.942  0.00  0.00    +0.000 HD
BRANCH  48  50
ATOM     50  C   UNL     1      -6.750   6.772 137.502  0.00  0.00    +0.000 C 
BRANCH  50  51
ATOM     51  C   UNL     1      -6.187   5.739 138.526  0.00  0.00    +0.000 C 
ATOM     52  O   UNL     1      -6.371   5.926 139.730  0.00  0.00    +0.000 OA
ATOM     53  N   UNL     1      -5.498   4.634 138.051  0.00  0.00    +0.000 N 
ATOM     54  H   UNL     1      -5.350   4.488 137.068  0.00  0.00    +0.000 HD
BRANCH  53  55
ATOM     55  C   UNL     1      -4.946   3.618 138.953  0.00  0.00    +0.000 C 
BRANCH  55  56
ATOM     56  C   UNL     1      -3.507   3.180 138.602  0.00  0.00    +0.000 C 
ATOM     57  N   UNL     1      -3.054   3.435 137.322  0.00  0.00    +0.000 N 
ATOM     58  O   UNL     1      -2.792   2.624 139.433  0.00  0.00    +0.000 OA
ATOM     59  H   UNL     1      -3.577   3.884 136.591  0.00  0.00    +0.000 HD
ATOM     60  H   UNL     1      -2.114   3.165 137.047  0.00  0.00    +0.000 HD
ENDBRANCH  55  56
ENDBRANCH  53  55
ENDBRANCH  50  51
BRANCH  50  61
ATOM     61  C   UNL     1      -8.253   6.962 137.768  0.00  0.00    +0.000 C 
BRANCH  61  62
ATOM     62  C   UNL     1      -8.585   8.307 138.383  0.00  0.00    +0.000 C 
ATOM     63  C   UNL     1      -7.758   9.385 137.811  0.00  0.00    +0.000 C 
ATOM     64  C   UNL     1      -9.866   8.878 137.933  0.00  0.00    +0.000 C 
ENDBRANCH  61  62
ENDBRANCH  50  61
ENDBRANCH  48  50
ENDBRANCH  45  46
ENDBRANCH  22  39
BRANCH   1  65
ATOM     65  C   UNL     1      -7.358  -3.149 129.936  0.00  0.00    +0.000 C 
ATOM     66  C   UNL     1      -7.955  -3.299 127.893  0.00  0.00    +0.000 C 
BRANCH  65  68
ATOM     67  C   UNL     1      -9.044  -4.009 127.876  0.00  0.00    +0.000 C 
ATOM     68  C   UNL     1      -8.661  -3.426 129.218  0.00  0.00    +0.000 C 
ENDBRANCH  65  68
ENDBRANCH   1  65
BRANCH  26  69
ATOM     69  C   UNL     1      -4.827  -1.955 132.992  0.00  0.00    +0.000 C 
BRANCH  69  70
ATOM     70  C   UNL     1      -3.613  -1.359 132.716  0.00  0.00    +0.000 C 
ATOM     71  N   UNL     1      -2.638  -2.111 131.363  0.00  0.00    +0.000 N 
ATOM     72  O   UNL     1      -3.153  -0.549 133.740  0.00  0.00    +0.000 OA
ATOM     73  H   UNL     1      -2.649  -3.091 131.434  0.00  0.00    +0.000 HD
ATOM     74  H   UNL     1      -1.501  -2.185 131.728  0.00  0.00    +0.000 HD
ENDBRANCH  69  70
ENDBRANCH  26  69
BRANCH   5  75
ATOM     75  C   UNL     1      -7.574  -3.659 140.500  0.00  0.00    +0.000 C 
BRANCH  75  76
ATOM     76  C   UNL     1      -6.965  -2.366 140.481  0.00  0.00    +0.000 A 
ATOM     77  C   UNL     1      -5.674  -2.388 139.991  0.00  0.00    +0.000 A 
ATOM     78  C   UNL     1      -4.810  -1.393 140.289  0.00  0.00    +0.000 A 
ATOM     79  C   UNL     1      -5.325  -0.229 140.770  0.00  0.00    +0.000 A 
ATOM     80  C   UNL     1      -6.677  -0.157 141.107  0.00  0.00    +0.000 A 
ATOM     81  C   UNL     1      -7.494  -1.270 141.078  0.00  0.00    +0.000 A 
BRANCH  79  82
ATOM     82  O   UNL     1      -4.503   0.807 141.093  0.00  0.00    +0.000 OA
ATOM     83  H   UNL     1      -4.878   1.702 141.144  0.00  0.00    +0.000 HD
ENDBRANCH  79  82
ENDBRANCH  75  76
ENDBRANCH   5  75
BRANCH  30  84
ATOM     84  C   UNL     1      -5.007  -0.843 128.802  0.00  0.00    +0.000 C 
BRANCH  84  85
ATOM     85  C   UNL     1      -6.374  -0.274 128.689  0.00  0.00    +0.000 C 
BRANCH  85  86
ATOM     86  C   UNL     1      -6.242   1.186 128.265  0.00  0.00    +0.000 C 
ATOM     87  N   UNL     1      -5.043   1.881 128.429  0.00  0.00    +0.000 N 
ATOM     88  O   UNL     1      -7.216   1.745 127.766  0.00  0.00    +0.000 OA
ATOM     89  H   UNL     1      -4.119   1.579 128.724  0.00  0.00    +0.000 HD
ATOM     90  H   UNL     1      -4.956   2.853 128.193  0.00  0.00    +0.000 HD
ENDBRANCH  85  86
ENDBRANCH  84  85
ENDBRANCH  30  84
TORSDOF 18
ENDMDL
MODEL 5
REMARK VINA RESULT:      -7.8      2.792      8.297
REMARK  Name = CHEMBL4127791
REMARK  22 active torsions:
REMARK  status: ('A' for Active; 'I' for Inactive)
REMARK    1  A    between atoms: C_1  and  C_2
REMARK    2  A    between atoms: C_2  and  C_3
REMARK    3  A    between atoms: C_3  and  C_4
REMARK    4  A    between atoms: C_3  and  C_5
REMARK    5  A    between atoms: C_9  and  C_10
REMARK    6  A    between atoms: C_10  and  C_11
REMARK    7  A    between atoms: C_14  and  O_15
REMARK    8  A    between atoms: C_34  and  C_35
REMARK    9  A    between atoms: C_41  and  C_42
REMARK   10  A    between atoms: N_44  and  C_45
REMARK   11  A    between atoms: C_45  and  C_46
REMARK   12  A    between atoms: C_45  and  C_50
REMARK   13  A    between atoms: C_46  and  C_47
REMARK   14  A    between atoms: C_47  and  C_48
REMARK   15  A    between atoms: C_47  and  C_49
REMARK   16  A    between atoms: N_52  and  C_53
REMARK   17  A    between atoms: C_53  and  C_54
REMARK   18  A    between atoms: C_60  and  C_61
REMARK   19  A    between atoms: C_61  and  C_62
REMARK   20  A    between atoms: C_68  and  C_69
REMARK   21  A    between atoms: C_69  and  C_70
REMARK   22  A    between atoms: C_70  and  C_71
REMARK                            x       y       z     vdW  Elec       q    Type
REMARK                         _______ _______ _______ _____ _____    ______ ____
ROOT
ATOM      1  C   UNL     1      -7.221  -3.157 132.258  0.00  0.00    +0.000 C 
ATOM      2  N   UNL     1      -7.256  -2.440 134.449  0.00  0.00    +0.000 N 
ATOM      3  C   UNL     1      -7.382  -2.100 136.630  0.00  0.00    +0.000 C 
ATOM      4  O   UNL     1      -8.361  -2.566 137.426  0.00  0.00    +0.000 OA
ATOM      5  C   UNL     1      -6.983  -1.579 138.867  0.00  0.00    +0.000 C 
ATOM      6  N   UNL     1      -7.725  -2.192 140.716  0.00  0.00    +0.000 N 
ATOM      7  C   UNL     1      -7.956  -3.685 141.195  0.00  0.00    +0.000 C 
ATOM      8  O   UNL     1      -8.574  -4.219 142.136  0.00  0.00    +0.000 OA
ATOM      9  C   UNL     1      -7.467  -4.523 140.083  0.00  0.00    +0.000 C 
ATOM     10  C   UNL     1      -6.613  -3.904 139.116  0.00  0.00    +0.000 C 
ATOM     11  S   UNL     1      -6.023  -4.521 137.692  0.00  0.00    +0.000 S 
ATOM     12  C   UNL     1      -5.104  -3.208 136.842  0.00  0.00    +0.000 C 
ATOM     13  C   UNL     1      -4.646  -3.925 135.660  0.00  0.00    +0.000 A 
ATOM     14  C   UNL     1      -4.894  -5.206 135.282  0.00  0.00    +0.000 A 
ATOM     15  C   UNL     1      -4.186  -5.932 134.314  0.00  0.00    +0.000 A 
ATOM     16  C   UNL     1      -3.417  -5.389 133.381  0.00  0.00    +0.000 A 
ATOM     17  C   UNL     1      -3.458  -4.109 133.481  0.00  0.00    +0.000 A 
ATOM     18  C   UNL     1      -3.772  -3.427 134.808  0.00  0.00    +0.000 A 
ATOM     19  C   UNL     1      -2.970  -1.812 135.286  0.00  0.00    +0.000 C 
ATOM     20  S   UNL     1      -3.038   0.026 133.645  0.00  0.00    +0.000 S 
ATOM     21  C   UNL     1      -3.837   1.447 134.001  0.00  0.00    +0.000 C 
ATOM     22  C   UNL     1      -4.706   2.049 132.977  0.00  0.00    +0.000 C 
ATOM     23  N   UNL     1      -4.411   1.627 131.591  0.00  0.00    +0.000 N 
ATOM     24  C   UNL     1      -4.518   0.373 131.111  0.00  0.00    +0.000 C 
ATOM     25  O   UNL     1      -4.110   0.132 129.984  0.00  0.00    +0.000 OA
ATOM     26  C   UNL     1      -5.060  -0.665 132.095  0.00  0.00    +0.000 C 
ATOM     27  N   UNL     1      -6.161  -1.282 131.996  0.00  0.00    +0.000 N 
ATOM     28  C   UNL     1      -5.988  -1.845 130.888  0.00  0.00    +0.000 C 
ATOM     29  O   UNL     1      -7.204  -1.747 131.226  0.00  0.00    +0.000 OA
ATOM     30  C   UNL     1      -4.984  -2.091 129.464  0.00  0.00    +0.000 C 
ATOM     31  N   UNL     1      -4.985  -3.498 129.584  0.00  0.00    +0.000 N 
ATOM     32  C   UNL     1      -6.141  -4.113 130.604  0.00  0.00    +0.000 C 
ATOM     33  O   UNL     1      -6.275  -4.951 129.471  0.00  0.00    +0.000 OA
ATOM     34  H   UNL     1      -7.640  -1.349 135.066  0.00  0.00    +0.000 HD
ATOM     35  H   UNL     1      -7.874  -1.836 141.987  0.00  0.00    +0.000 HD
ATOM     36  H   UNL     1      -3.919   2.280 130.987  0.00  0.00    +0.000 HD
ATOM     37  H   UNL     1      -7.204  -1.151 132.236  0.00  0.00    +0.000 HD
ATOM     38  H   UNL     1      -4.104  -4.022 129.576  0.00  0.00    +0.000 HD
ENDROOT
BRANCH  22  39
ATOM     39  C   UNL     1      -4.378   3.495 133.239  0.00  0.00    +0.000 C 
ATOM     40  O   UNL     1      -4.096   4.080 132.199  0.00  0.00    +0.000 OA
ATOM     41  N   UNL     1      -4.497   4.010 134.555  0.00  0.00    +0.000 N 
ATOM     42  C   UNL     1      -3.992   3.456 135.802  0.00  0.00    +0.000 C 
ATOM     43  C   UNL     1      -5.041   3.849 136.804  0.00  0.00    +0.000 C 
ATOM     44  C   UNL     1      -5.314   5.284 136.439  0.00  0.00    +0.000 C 
ATOM     45  C   UNL     1      -5.075   5.347 134.941  0.00  0.00    +0.000 C 
BRANCH  45  46
ATOM     46  C   UNL     1      -4.006   6.484 135.005  0.00  0.00    +0.000 C 
ATOM     47  O   UNL     1      -3.330   6.562 136.048  0.00  0.00    +0.000 OA
ATOM     48  N   UNL     1      -3.570   7.015 133.731  0.00  0.00    +0.000 N 
ATOM     49  H   UNL     1      -4.153   6.999 132.896  0.00  0.00    +0.000 HD
BRANCH  48  50
ATOM     50  C   UNL     1      -2.223   7.680 133.552  0.00  0.00    +0.000 C 
BRANCH  50  51
ATOM     51  C   UNL     1      -2.330   9.208 133.841  0.00  0.00    +0.000 C 
ATOM     52  O   UNL     1      -2.530   9.587 134.997  0.00  0.00    +0.000 OA
ATOM     53  N   UNL     1      -2.191  10.100 132.790  0.00  0.00    +0.000 N 
ATOM     54  H   UNL     1      -2.029   9.784 131.850  0.00  0.00    +0.000 HD
BRANCH  53  55
ATOM     55  C   UNL     1      -2.271  11.551 132.987  0.00  0.00    +0.000 C 
BRANCH  55  56
ATOM     56  C   UNL     1      -1.156  12.345 132.273  0.00  0.00    +0.000 C 
ATOM     57  N   UNL     1      -1.540  13.363 131.420  0.00  0.00    +0.000 N 
ATOM     58  O   UNL     1       0.030  12.080 132.457  0.00  0.00    +0.000 OA
ATOM     59  H   UNL     1      -2.485  13.638 131.220  0.00  0.00    +0.000 HD
ATOM     60  H   UNL     1      -0.839  13.911 130.929  0.00  0.00    +0.000 HD
ENDBRANCH  55  56
ENDBRANCH  53  55
ENDBRANCH  50  51
BRANCH  50  61
ATOM     61  C   UNL     1      -1.617   7.482 132.152  0.00  0.00    +0.000 C 
BRANCH  61  62
ATOM     62  C   UNL     1      -2.567   6.811 131.180  0.00  0.00    +0.000 C 
ATOM     63  C   UNL     1      -3.429   7.792 130.497  0.00  0.00    +0.000 C 
ATOM     64  C   UNL     1      -1.926   6.325 129.946  0.00  0.00    +0.000 C 
ENDBRANCH  61  62
ENDBRANCH  50  61
ENDBRANCH  48  50
ENDBRANCH  45  46
ENDBRANCH  22  39
BRANCH   1  65
ATOM     65  C   UNL     1      -7.610  -2.922 129.937  0.00  0.00    +0.000 C 
ATOM     66  C   UNL     1      -8.496  -3.409 128.057  0.00  0.00    +0.000 C 
BRANCH  65  68
ATOM     67  C   UNL     1      -9.497  -4.119 128.254  0.00  0.00    +0.000 C 
ATOM     68  C   UNL     1      -8.965  -3.426 129.488  0.00  0.00    +0.000 C 
ENDBRANCH  65  68
ENDBRANCH   1  65
BRANCH  26  69
ATOM     69  C   UNL     1      -4.270  -1.932 132.180  0.00  0.00    +0.000 C 
BRANCH  69  70
ATOM     70  C   UNL     1      -3.007  -1.608 131.728  0.00  0.00    +0.000 C 
ATOM     71  N   UNL     1      -2.577  -2.201 130.051  0.00  0.00    +0.000 N 
ATOM     72  O   UNL     1      -2.139  -1.236 132.741  0.00  0.00    +0.000 OA
ATOM     73  H   UNL     1      -2.872  -3.130 129.929  0.00  0.00    +0.000 HD
ATOM     74  H   UNL     1      -1.469  -2.650 130.094  0.00  0.00    +0.000 HD
ENDBRANCH  69  70
ENDBRANCH  26  69
BRANCH   5  75
ATOM     75  C   UNL     1      -5.490  -2.037 140.262  0.00  0.00    +0.000 C 
BRANCH  75  76
ATOM     76  C   UNL     1      -4.532  -1.152 139.676  0.00  0.00    +0.000 A 
ATOM     77  C   UNL     1      -3.393  -1.803 139.245  0.00  0.00    +0.000 A 
ATOM     78  C   UNL     1      -2.237  -1.124 139.074  0.00  0.00    +0.000 A 
ATOM     79  C   UNL     1      -2.305   0.232 138.995  0.00  0.00    +0.000 A 
ATOM     80  C   UNL     1      -3.509   0.883 139.267  0.00  0.00    +0.000 A 
ATOM     81  C   UNL     1      -4.616   0.200 139.731  0.00  0.00    +0.000 A 
BRANCH  79  82
ATOM     82  O   UNL     1      -1.173   0.971 138.830  0.00  0.00    +0.000 OA
ATOM     83  H   UNL     1      -1.254   1.934 138.732  0.00  0.00    +0.000 HD
ENDBRANCH  79  82
ENDBRANCH  75  76
ENDBRANCH   5  75
BRANCH  30  84
ATOM     84  C   UNL     1      -5.197  -1.344 127.982  0.00  0.00    +0.000 C 
BRANCH  84  85
ATOM     85  C   UNL     1      -5.357  -2.394 126.944  0.00  0.00    +0.000 C 
BRANCH  85  86
ATOM     86  C   UNL     1      -5.597  -1.699 125.607  0.00  0.00    +0.000 C 
ATOM     87  N   UNL     1      -5.908  -0.340 125.543  0.00  0.00    +0.000 N 
ATOM     88  O   UNL     1      -5.504  -2.360 124.575  0.00  0.00    +0.000 OA
ATOM     89  H   UNL     1      -5.935   0.384 126.256  0.00  0.00    +0.000 HD
ATOM     90  H   UNL     1      -6.108   0.119 124.673  0.00  0.00    +0.000 HD
ENDBRANCH  85  86
ENDBRANCH  84  85
ENDBRANCH  30  84
TORSDOF 18
ENDMDL
MODEL 6
REMARK VINA RESULT:      -7.8      2.861      8.329
REMARK  Name = CHEMBL4127791
REMARK  22 active torsions:
REMARK  status: ('A' for Active; 'I' for Inactive)
REMARK    1  A    between atoms: C_1  and  C_2
REMARK    2  A    between atoms: C_2  and  C_3
REMARK    3  A    between atoms: C_3  and  C_4
REMARK    4  A    between atoms: C_3  and  C_5
REMARK    5  A    between atoms: C_9  and  C_10
REMARK    6  A    between atoms: C_10  and  C_11
REMARK    7  A    between atoms: C_14  and  O_15
REMARK    8  A    between atoms: C_34  and  C_35
REMARK    9  A    between atoms: C_41  and  C_42
REMARK   10  A    between atoms: N_44  and  C_45
REMARK   11  A    between atoms: C_45  and  C_46
REMARK   12  A    between atoms: C_45  and  C_50
REMARK   13  A    between atoms: C_46  and  C_47
REMARK   14  A    between atoms: C_47  and  C_48
REMARK   15  A    between atoms: C_47  and  C_49
REMARK   16  A    between atoms: N_52  and  C_53
REMARK   17  A    between atoms: C_53  and  C_54
REMARK   18  A    between atoms: C_60  and  C_61
REMARK   19  A    between atoms: C_61  and  C_62
REMARK   20  A    between atoms: C_68  and  C_69
REMARK   21  A    between atoms: C_69  and  C_70
REMARK   22  A    between atoms: C_70  and  C_71
REMARK                            x       y       z     vdW  Elec       q    Type
REMARK                         _______ _______ _______ _____ _____    ______ ____
ROOT
ATOM      1  C   UNL     1      -7.169  -3.019 132.349  0.00  0.00    +0.000 C 
ATOM      2  N   UNL     1      -7.133  -2.277 134.531  0.00  0.00    +0.000 N 
ATOM      3  C   UNL     1      -7.213  -1.906 136.710  0.00  0.00    +0.000 C 
ATOM      4  O   UNL     1      -8.212  -2.297 137.521  0.00  0.00    +0.000 OA
ATOM      5  C   UNL     1      -6.757  -1.389 138.936  0.00  0.00    +0.000 C 
ATOM      6  N   UNL     1      -7.518  -1.930 140.800  0.00  0.00    +0.000 N 
ATOM      7  C   UNL     1      -7.841  -3.400 141.298  0.00  0.00    +0.000 C 
ATOM      8  O   UNL     1      -8.484  -3.882 142.252  0.00  0.00    +0.000 OA
ATOM      9  C   UNL     1      -7.421  -4.280 140.191  0.00  0.00    +0.000 C 
ATOM     10  C   UNL     1      -6.538  -3.730 139.209  0.00  0.00    +0.000 C 
ATOM     11  S   UNL     1      -6.006  -4.400 137.786  0.00  0.00    +0.000 S 
ATOM     12  C   UNL     1      -5.011  -3.160 136.912  0.00  0.00    +0.000 C 
ATOM     13  C   UNL     1      -4.615  -3.919 135.734  0.00  0.00    +0.000 A 
ATOM     14  C   UNL     1      -4.950  -5.184 135.373  0.00  0.00    +0.000 A 
ATOM     15  C   UNL     1      -4.302  -5.966 134.407  0.00  0.00    +0.000 A 
ATOM     16  C   UNL     1      -3.510  -5.485 133.460  0.00  0.00    +0.000 A 
ATOM     17  C   UNL     1      -3.464  -4.204 133.545  0.00  0.00    +0.000 A 
ATOM     18  C   UNL     1      -3.718  -3.489 134.867  0.00  0.00    +0.000 A 
ATOM     19  C   UNL     1      -2.806  -1.926 135.319  0.00  0.00    +0.000 C 
ATOM     20  S   UNL     1      -2.769  -0.105 133.658  0.00  0.00    +0.000 S 
ATOM     21  C   UNL     1      -3.470   1.369 134.005  0.00  0.00    +0.000 C 
ATOM     22  C   UNL     1      -4.308   2.017 132.982  0.00  0.00    +0.000 C 
ATOM     23  N   UNL     1      -4.056   1.561 131.598  0.00  0.00    +0.000 N 
ATOM     24  C   UNL     1      -4.251   0.312 131.134  0.00  0.00    +0.000 C 
ATOM     25  O   UNL     1      -3.871   0.032 130.006  0.00  0.00    +0.000 OA
ATOM     26  C   UNL     1      -4.849  -0.677 132.136  0.00  0.00    +0.000 C 
ATOM     27  N   UNL     1      -5.990  -1.221 132.055  0.00  0.00    +0.000 N 
ATOM     28  C   UNL     1      -5.867  -1.807 130.952  0.00  0.00    +0.000 C 
ATOM     29  O   UNL     1      -7.070  -1.624 131.301  0.00  0.00    +0.000 OA
ATOM     30  C   UNL     1      -4.896  -2.134 129.520  0.00  0.00    +0.000 C 
ATOM     31  N   UNL     1      -4.989  -3.536 129.657  0.00  0.00    +0.000 N 
ATOM     32  C   UNL     1      -6.172  -4.062 130.696  0.00  0.00    +0.000 C 
ATOM     33  O   UNL     1      -6.373  -4.901 129.574  0.00  0.00    +0.000 OA
ATOM     34  H   UNL     1      -7.438  -1.156 135.140  0.00  0.00    +0.000 HD
ATOM     35  H   UNL     1      -7.629  -1.551 142.068  0.00  0.00    +0.000 HD
ATOM     36  H   UNL     1      -3.528   2.173 130.982  0.00  0.00    +0.000 HD
ATOM     37  H   UNL     1      -7.019  -1.018 132.303  0.00  0.00    +0.000 HD
ATOM     38  H   UNL     1      -4.145  -4.118 129.646  0.00  0.00    +0.000 HD
ENDROOT
BRANCH  22  39
ATOM     39  C   UNL     1      -3.882   3.440 133.224  0.00  0.00    +0.000 C 
ATOM     40  O   UNL     1      -3.833   3.690 134.423  0.00  0.00    +0.000 OA
ATOM     41  N   UNL     1      -3.532   4.261 132.121  0.00  0.00    +0.000 N 
ATOM     42  C   UNL     1      -4.251   4.472 130.875  0.00  0.00    +0.000 C 
ATOM     43  C   UNL     1      -3.150   4.655 129.868  0.00  0.00    +0.000 C 
ATOM     44  C   UNL     1      -2.203   5.576 130.590  0.00  0.00    +0.000 C 
ATOM     45  C   UNL     1      -2.372   5.221 132.056  0.00  0.00    +0.000 C 
BRANCH  45  46
ATOM     46  C   UNL     1      -2.741   6.665 132.522  0.00  0.00    +0.000 C 
ATOM     47  O   UNL     1      -3.738   6.780 133.260  0.00  0.00    +0.000 OA
ATOM     48  N   UNL     1      -1.673   7.640 132.469  0.00  0.00    +0.000 N 
ATOM     49  H   UNL     1      -0.890   7.569 131.821  0.00  0.00    +0.000 HD
BRANCH  48  50
ATOM     50  C   UNL     1      -1.660   8.873 133.345  0.00  0.00    +0.000 C 
BRANCH  50  51
ATOM     51  C   UNL     1      -2.100   8.511 134.796  0.00  0.00    +0.000 C 
ATOM     52  O   UNL     1      -2.922   9.228 135.370  0.00  0.00    +0.000 OA
ATOM     53  N   UNL     1      -1.557   7.387 135.399  0.00  0.00    +0.000 N 
ATOM     54  H   UNL     1      -0.887   6.808 134.926  0.00  0.00    +0.000 HD
BRANCH  53  55
ATOM     55  C   UNL     1      -1.929   6.980 136.759  0.00  0.00    +0.000 C 
BRANCH  55  56
ATOM     56  C   UNL     1      -3.176   6.071 136.824  0.00  0.00    +0.000 C 
ATOM     57  N   UNL     1      -2.974   4.720 137.027  0.00  0.00    +0.000 N 
ATOM     58  O   UNL     1      -4.307   6.535 136.697  0.00  0.00    +0.000 OA
ATOM     59  H   UNL     1      -2.083   4.268 137.140  0.00  0.00    +0.000 HD
ATOM     60  H   UNL     1      -3.765   4.084 137.077  0.00  0.00    +0.000 HD
ENDBRANCH  55  56
ENDBRANCH  53  55
ENDBRANCH  50  51
BRANCH  50  61
ATOM     61  C   UNL     1      -2.554  10.011 132.826  0.00  0.00    +0.000 C 
BRANCH  61  62
ATOM     62  C   UNL     1      -1.802  11.310 132.611  0.00  0.00    +0.000 C 
ATOM     63  C   UNL     1      -2.337  12.394 133.454  0.00  0.00    +0.000 C 
ATOM     64  C   UNL     1      -0.457  11.336 133.210  0.00  0.00    +0.000 C 
ENDBRANCH  61  62
ENDBRANCH  50  61
ENDBRANCH  48  50
ENDBRANCH  45  46
ENDBRANCH  22  39
BRANCH   1  65
ATOM     65  C   UNL     1      -7.566  -2.784 130.029  0.00  0.00    +0.000 C 
ATOM     66  C   UNL     1      -8.458  -3.271 128.152  0.00  0.00    +0.000 C 
BRANCH  65  68
ATOM     67  C   UNL     1      -9.445  -4.045 128.383  0.00  0.00    +0.000 C 
ATOM     68  C   UNL     1      -8.922  -3.290 129.585  0.00  0.00    +0.000 C 
ENDBRANCH  65  68
ENDBRANCH   1  65
BRANCH  26  69
ATOM     69  C   UNL     1      -4.144  -1.993 132.228  0.00  0.00    +0.000 C 
BRANCH  69  70
ATOM     70  C   UNL     1      -2.866  -1.757 131.765  0.00  0.00    +0.000 C 
ATOM     71  N   UNL     1      -2.491  -2.381 130.086  0.00  0.00    +0.000 N 
ATOM     72  O   UNL     1      -1.966  -1.444 132.770  0.00  0.00    +0.000 OA
ATOM     73  H   UNL     1      -2.850  -3.288 129.968  0.00  0.00    +0.000 HD
ATOM     74  H   UNL     1      -1.416  -2.905 130.121  0.00  0.00    +0.000 HD
ENDBRANCH  69  70
ENDBRANCH  26  69
BRANCH   5  75
ATOM     75  C   UNL     1      -5.282  -1.928 140.322  0.00  0.00    +0.000 C 
BRANCH  75  76
ATOM     76  C   UNL     1      -4.342  -0.960 139.849  0.00  0.00    +0.000 A 
ATOM     77  C   UNL     1      -4.774   0.340 140.031  0.00  0.00    +0.000 A 
ATOM     78  C   UNL     1      -4.259   1.344 139.288  0.00  0.00    +0.000 A 
ATOM     79  C   UNL     1      -3.092   1.110 138.628  0.00  0.00    +0.000 A 
ATOM     80  C   UNL     1      -2.565  -0.181 138.589  0.00  0.00    +0.000 A 
ATOM     81  C   UNL     1      -3.252  -1.263 139.103  0.00  0.00    +0.000 A 
BRANCH  79  82
ATOM     82  O   UNL     1      -2.529   2.082 137.859  0.00  0.00    +0.000 OA
ATOM     83  H   UNL     1      -2.169   1.839 136.989  0.00  0.00    +0.000 HD
ENDBRANCH  79  82
ENDBRANCH  75  76
ENDBRANCH   5  75
BRANCH  30  84
ATOM     84  C   UNL     1      -5.075  -1.391 128.032  0.00  0.00    +0.000 C 
BRANCH  84  85
ATOM     85  C   UNL     1      -5.290  -2.440 127.004  0.00  0.00    +0.000 C 
BRANCH  85  86
ATOM     86  C   UNL     1      -5.782  -1.758 125.732  0.00  0.00    +0.000 C 
ATOM     87  N   UNL     1      -6.752  -2.351 124.920  0.00  0.00    +0.000 N 
ATOM     88  O   UNL     1      -5.313  -0.663 125.432  0.00  0.00    +0.000 OA
ATOM     89  H   UNL     1      -7.319  -3.185 125.042  0.00  0.00    +0.000 HD
ATOM     90  H   UNL     1      -7.053  -1.931 124.060  0.00  0.00    +0.000 HD
ENDBRANCH  85  86
ENDBRANCH  84  85
ENDBRANCH  30  84
TORSDOF 18
ENDMDL
MODEL 7
REMARK VINA RESULT:      -7.8      3.913      8.820
REMARK  Name = CHEMBL4127791
REMARK  22 active torsions:
REMARK  status: ('A' for Active; 'I' for Inactive)
REMARK    1  A    between atoms: C_1  and  C_2
REMARK    2  A    between atoms: C_2  and  C_3
REMARK    3  A    between atoms: C_3  and  C_4
REMARK    4  A    between atoms: C_3  and  C_5
REMARK    5  A    between atoms: C_9  and  C_10
REMARK    6  A    between atoms: C_10  and  C_11
REMARK    7  A    between atoms: C_14  and  O_15
REMARK    8  A    between atoms: C_34  and  C_35
REMARK    9  A    between atoms: C_41  and  C_42
REMARK   10  A    between atoms: N_44  and  C_45
REMARK   11  A    between atoms: C_45  and  C_46
REMARK   12  A    between atoms: C_45  and  C_50
REMARK   13  A    between atoms: C_46  and  C_47
REMARK   14  A    between atoms: C_47  and  C_48
REMARK   15  A    between atoms: C_47  and  C_49
REMARK   16  A    between atoms: N_52  and  C_53
REMARK   17  A    between atoms: C_53  and  C_54
REMARK   18  A    between atoms: C_60  and  C_61
REMARK   19  A    between atoms: C_61  and  C_62
REMARK   20  A    between atoms: C_68  and  C_69
REMARK   21  A    between atoms: C_69  and  C_70
REMARK   22  A    between atoms: C_70  and  C_71
REMARK                            x       y       z     vdW  Elec       q    Type
REMARK                         _______ _______ _______ _____ _____    ______ ____
ROOT
ATOM      1  C   UNL     1      -7.502  -3.443 132.254  0.00  0.00    +0.000 C 
ATOM      2  N   UNL     1      -8.074  -3.190 134.473  0.00  0.00    +0.000 N 
ATOM      3  C   UNL     1      -8.649  -3.317 136.604  0.00  0.00    +0.000 C 
ATOM      4  O   UNL     1      -9.630  -4.099 137.091  0.00  0.00    +0.000 OA
ATOM      5  C   UNL     1      -8.770  -3.186 138.928  0.00  0.00    +0.000 C 
ATOM      6  N   UNL     1      -9.675  -4.275 140.458  0.00  0.00    +0.000 N 
ATOM      7  C   UNL     1      -9.659  -5.850 140.634  0.00  0.00    +0.000 C 
ATOM      8  O   UNL     1     -10.303  -6.662 141.327  0.00  0.00    +0.000 OA
ATOM      9  C   UNL     1      -8.814  -6.349 139.533  0.00  0.00    +0.000 C 
ATOM     10  C   UNL     1      -7.958  -5.409 138.879  0.00  0.00    +0.000 C 
ATOM     11  S   UNL     1      -7.009  -5.615 137.531  0.00  0.00    +0.000 S 
ATOM     12  C   UNL     1      -6.259  -4.017 137.114  0.00  0.00    +0.000 C 
ATOM     13  C   UNL     1      -5.459  -4.392 135.957  0.00  0.00    +0.000 A 
ATOM     14  C   UNL     1      -5.354  -5.596 135.337  0.00  0.00    +0.000 A 
ATOM     15  C   UNL     1      -4.349  -5.976 134.439  0.00  0.00    +0.000 A 
ATOM     16  C   UNL     1      -3.564  -5.130 133.787  0.00  0.00    +0.000 A 
ATOM     17  C   UNL     1      -3.895  -3.924 134.078  0.00  0.00    +0.000 A 
ATOM     18  C   UNL     1      -4.576  -3.586 135.399  0.00  0.00    +0.000 A 
ATOM     19  C   UNL     1      -4.238  -1.980 136.286  0.00  0.00    +0.000 C 
ATOM     20  S   UNL     1      -4.411   0.103 134.980  0.00  0.00    +0.000 S 
ATOM     21  C   UNL     1      -5.547   1.258 135.379  0.00  0.00    +0.000 C 
ATOM     22  C   UNL     1      -6.333   1.885 134.303  0.00  0.00    +0.000 C 
ATOM     23  N   UNL     1      -5.715   1.805 132.962  0.00  0.00    +0.000 N 
ATOM     24  C   UNL     1      -5.464   0.673 132.278  0.00  0.00    +0.000 C 
ATOM     25  O   UNL     1      -4.823   0.737 131.239  0.00  0.00    +0.000 OA
ATOM     26  C   UNL     1      -5.933  -0.620 132.948  0.00  0.00    +0.000 C 
ATOM     27  N   UNL     1      -6.841  -1.393 132.522  0.00  0.00    +0.000 N 
ATOM     28  C   UNL     1      -6.360  -1.686 131.401  0.00  0.00    +0.000 C 
ATOM     29  O   UNL     1      -7.609  -1.876 131.486  0.00  0.00    +0.000 OA
ATOM     30  C   UNL     1      -5.092  -1.460 130.200  0.00  0.00    +0.000 C 
ATOM     31  N   UNL     1      -4.812  -2.840 130.094  0.00  0.00    +0.000 N 
ATOM     32  C   UNL     1      -5.969  -3.842 130.735  0.00  0.00    +0.000 C 
ATOM     33  O   UNL     1      -5.719  -4.449 129.482  0.00  0.00    +0.000 OA
ATOM     34  H   UNL     1      -8.786  -2.330 135.160  0.00  0.00    +0.000 HD
ATOM     35  H   UNL     1     -10.117  -4.210 141.709  0.00  0.00    +0.000 HD
ATOM     36  H   UNL     1      -5.277   2.642 132.587  0.00  0.00    +0.000 HD
ATOM     37  H   UNL     1      -7.913  -1.501 132.554  0.00  0.00    +0.000 HD
ATOM     38  H   UNL     1      -3.851  -3.185 130.189  0.00  0.00    +0.000 HD
ENDROOT
BRANCH  22  39
ATOM     39  C   UNL     1      -6.375   3.285 134.854  0.00  0.00    +0.000 C 
ATOM     40  O   UNL     1      -7.371   3.884 134.467  0.00  0.00    +0.000 OA
ATOM     41  N   UNL     1      -5.369   3.708 135.762  0.00  0.00    +0.000 N 
ATOM     42  C   UNL     1      -3.925   3.574 135.652  0.00  0.00    +0.000 C 
ATOM     43  C   UNL     1      -3.489   3.374 137.077  0.00  0.00    +0.000 C 
ATOM     44  C   UNL     1      -4.297   4.410 137.810  0.00  0.00    +0.000 C 
ATOM     45  C   UNL     1      -5.580   4.529 137.008  0.00  0.00    +0.000 C 
BRANCH  45  46
ATOM     46  C   UNL     1      -5.464   6.066 136.759  0.00  0.00    +0.000 C 
ATOM     47  O   UNL     1      -6.430   6.620 136.201  0.00  0.00    +0.000 OA
ATOM     48  N   UNL     1      -4.513   6.772 137.591  0.00  0.00    +0.000 N 
ATOM     49  H   UNL     1      -3.693   6.324 137.997  0.00  0.00    +0.000 HD
BRANCH  48  50
ATOM     50  C   UNL     1      -4.640   8.249 137.888  0.00  0.00    +0.000 C 
BRANCH  50  51
ATOM     51  C   UNL     1      -6.057   8.569 138.453  0.00  0.00    +0.000 C 
ATOM     52  O   UNL     1      -6.338   8.219 139.601  0.00  0.00    +0.000 OA
ATOM     53  N   UNL     1      -6.961   9.245 137.649  0.00  0.00    +0.000 N 
ATOM     54  H   UNL     1      -6.726   9.526 136.714  0.00  0.00    +0.000 HD
BRANCH  53  55
ATOM     55  C   UNL     1      -8.309   9.588 138.115  0.00  0.00    +0.000 C 
BRANCH  55  56
ATOM     56  C   UNL     1      -9.381   8.531 137.768  0.00  0.00    +0.000 C 
ATOM     57  N   UNL     1      -9.009   7.202 137.814  0.00  0.00    +0.000 N 
ATOM     58  O   UNL     1     -10.524   8.864 137.462  0.00  0.00    +0.000 OA
ATOM     59  H   UNL     1      -8.098   6.853 138.055  0.00  0.00    +0.000 HD
ATOM     60  H   UNL     1      -9.682   6.473 137.593  0.00  0.00    +0.000 HD
ENDBRANCH  55  56
ENDBRANCH  53  55
ENDBRANCH  50  51
BRANCH  50  61
ATOM     61  C   UNL     1      -4.378   9.150 136.670  0.00  0.00    +0.000 C 
BRANCH  61  62
ATOM     62  C   UNL     1      -3.148  10.024 136.827  0.00  0.00    +0.000 C 
ATOM     63  C   UNL     1      -1.908   9.263 136.594  0.00  0.00    +0.000 C 
ATOM     64  C   UNL     1      -2.930  10.966 135.716  0.00  0.00    +0.000 C 
ENDBRANCH  61  62
ENDBRANCH  50  61
ENDBRANCH  48  50
ENDBRANCH  45  46
ENDBRANCH  22  39
BRANCH   1  65
ATOM     65  C   UNL     1      -7.520  -2.827 129.970  0.00  0.00    +0.000 C 
ATOM     66  C   UNL     1      -8.058  -3.011 127.913  0.00  0.00    +0.000 C 
BRANCH  65  68
ATOM     67  C   UNL     1      -9.011  -4.035 127.934  0.00  0.00    +0.000 C 
ATOM     68  C   UNL     1      -8.753  -3.284 129.221  0.00  0.00    +0.000 C 
ENDBRANCH  65  68
ENDBRANCH   1  65
BRANCH  26  69
ATOM     69  C   UNL     1      -4.916  -1.716 132.996  0.00  0.00    +0.000 C 
BRANCH  69  70
ATOM     70  C   UNL     1      -3.708  -1.106 132.729  0.00  0.00    +0.000 C 
ATOM     71  N   UNL     1      -2.697  -1.871 131.409  0.00  0.00    +0.000 N 
ATOM     72  O   UNL     1      -3.278  -0.269 133.743  0.00  0.00    +0.000 OA
ATOM     73  H   UNL     1      -2.695  -2.849 131.500  0.00  0.00    +0.000 HD
ATOM     74  H   UNL     1      -1.566  -1.920 131.795  0.00  0.00    +0.000 HD
ENDBRANCH  69  70
ENDBRANCH  26  69
BRANCH   5  75
ATOM     75  C   UNL     1      -7.481  -3.634 140.517  0.00  0.00    +0.000 C 
BRANCH  75  76
ATOM     76  C   UNL     1      -6.852  -2.350 140.499  0.00  0.00    +0.000 A 
ATOM     77  C   UNL     1      -7.573  -1.389 141.180  0.00  0.00    +0.000 A 
ATOM     78  C   UNL     1      -7.386  -0.076 140.918  0.00  0.00    +0.000 A 
ATOM     79  C   UNL     1      -6.256   0.281 140.249  0.00  0.00    +0.000 A 
ATOM     80  C   UNL     1      -5.432  -0.705 139.705  0.00  0.00    +0.000 A 
ATOM     81  C   UNL     1      -5.787  -2.039 139.721  0.00  0.00    +0.000 A 
BRANCH  79  82
ATOM     82  O   UNL     1      -6.015   1.588 139.952  0.00  0.00    +0.000 OA
ATOM     83  H   UNL     1      -6.100   2.251 140.657  0.00  0.00    +0.000 HD
ENDBRANCH  79  82
ENDBRANCH  75  76
ENDBRANCH   5  75
BRANCH  30  84
ATOM     84  C   UNL     1      -5.199  -0.486 128.844  0.00  0.00    +0.000 C 
BRANCH  84  85
ATOM     85  C   UNL     1      -5.256  -1.356 127.643  0.00  0.00    +0.000 C 
BRANCH  85  86
ATOM     86  C   UNL     1      -5.269  -0.455 126.411  0.00  0.00    +0.000 C 
ATOM     87  N   UNL     1      -4.871   0.881 126.487  0.00  0.00    +0.000 N 
ATOM     88  O   UNL     1      -5.634  -0.929 125.338  0.00  0.00    +0.000 OA
ATOM     89  H   UNL     1      -4.455   1.423 127.239  0.00  0.00    +0.000 HD
ATOM     90  H   UNL     1      -4.915   1.494 125.694  0.00  0.00    +0.000 HD
ENDBRANCH  85  86
ENDBRANCH  84  85
ENDBRANCH  30  84
TORSDOF 18
ENDMDL
MODEL 8
REMARK VINA RESULT:      -7.7      2.861      8.047
REMARK  Name = CHEMBL4127791
REMARK  22 active torsions:
REMARK  status: ('A' for Active; 'I' for Inactive)
REMARK    1  A    between atoms: C_1  and  C_2
REMARK    2  A    between atoms: C_2  and  C_3
REMARK    3  A    between atoms: C_3  and  C_4
REMARK    4  A    between atoms: C_3  and  C_5
REMARK    5  A    between atoms: C_9  and  C_10
REMARK    6  A    between atoms: C_10  and  C_11
REMARK    7  A    between atoms: C_14  and  O_15
REMARK    8  A    between atoms: C_34  and  C_35
REMARK    9  A    between atoms: C_41  and  C_42
REMARK   10  A    between atoms: N_44  and  C_45
REMARK   11  A    between atoms: C_45  and  C_46
REMARK   12  A    between atoms: C_45  and  C_50
REMARK   13  A    between atoms: C_46  and  C_47
REMARK   14  A    between atoms: C_47  and  C_48
REMARK   15  A    between atoms: C_47  and  C_49
REMARK   16  A    between atoms: N_52  and  C_53
REMARK   17  A    between atoms: C_53  and  C_54
REMARK   18  A    between atoms: C_60  and  C_61
REMARK   19  A    between atoms: C_61  and  C_62
REMARK   20  A    between atoms: C_68  and  C_69
REMARK   21  A    between atoms: C_69  and  C_70
REMARK   22  A    between atoms: C_70  and  C_71
REMARK                            x       y       z     vdW  Elec       q    Type
REMARK                         _______ _______ _______ _____ _____    ______ ____
ROOT
ATOM      1  C   UNL     1      -7.446  -3.335 132.335  0.00  0.00    +0.000 C 
ATOM      2  N   UNL     1      -7.779  -2.785 134.549  0.00  0.00    +0.000 N 
ATOM      3  C   UNL     1      -8.176  -2.615 136.717  0.00  0.00    +0.000 C 
ATOM      4  O   UNL     1      -9.207  -3.196 137.358  0.00  0.00    +0.000 OA
ATOM      5  C   UNL     1      -8.073  -2.238 139.016  0.00  0.00    +0.000 C 
ATOM      6  N   UNL     1      -8.979  -3.029 140.718  0.00  0.00    +0.000 N 
ATOM      7  C   UNL     1      -9.161  -4.564 141.066  0.00  0.00    +0.000 C 
ATOM      8  O   UNL     1      -9.846  -5.203 141.890  0.00  0.00    +0.000 OA
ATOM      9  C   UNL     1      -8.492  -5.287 139.967  0.00  0.00    +0.000 C 
ATOM     10  C   UNL     1      -7.577  -4.549 139.152  0.00  0.00    +0.000 C 
ATOM     11  S   UNL     1      -6.788  -5.023 137.770  0.00  0.00    +0.000 S 
ATOM     12  C   UNL     1      -5.868  -3.599 137.125  0.00  0.00    +0.000 C 
ATOM     13  C   UNL     1      -5.231  -4.198 135.960  0.00  0.00    +0.000 A 
ATOM     14  C   UNL     1      -5.346  -5.460 135.471  0.00  0.00    +0.000 A 
ATOM     15  C   UNL     1      -4.485  -6.069 134.549  0.00  0.00    +0.000 A 
ATOM     16  C   UNL     1      -3.653  -5.414 133.752  0.00  0.00    +0.000 A 
ATOM     17  C   UNL     1      -3.791  -4.149 133.931  0.00  0.00    +0.000 A 
ATOM     18  C   UNL     1      -4.300  -3.587 135.253  0.00  0.00    +0.000 A 
ATOM     19  C   UNL     1      -3.669  -1.967 135.930  0.00  0.00    +0.000 C 
ATOM     20  S   UNL     1      -3.673  -0.020 134.419  0.00  0.00    +0.000 S 
ATOM     21  C   UNL     1      -4.602   1.320 134.771  0.00  0.00    +0.000 C 
ATOM     22  C   UNL     1      -5.387   1.944 133.692  0.00  0.00    +0.000 C 
ATOM     23  N   UNL     1      -4.907   1.644 132.326  0.00  0.00    +0.000 N 
ATOM     24  C   UNL     1      -4.873   0.425 131.755  0.00  0.00    +0.000 C 
ATOM     25  O   UNL     1      -4.324   0.293 130.671  0.00  0.00    +0.000 OA
ATOM     26  C   UNL     1      -5.453  -0.713 132.597  0.00  0.00    +0.000 C 
ATOM     27  N   UNL     1      -6.491  -1.386 132.326  0.00  0.00    +0.000 N 
ATOM     28  C   UNL     1      -6.155  -1.855 131.212  0.00  0.00    +0.000 C 
ATOM     29  O   UNL     1      -7.406  -1.854 131.409  0.00  0.00    +0.000 OA
ATOM     30  C   UNL     1      -4.980  -1.934 129.904  0.00  0.00    +0.000 C 
ATOM     31  N   UNL     1      -4.900  -3.344 129.930  0.00  0.00    +0.000 N 
ATOM     32  C   UNL     1      -6.121  -4.100 130.762  0.00  0.00    +0.000 C 
ATOM     33  O   UNL     1      -6.067  -4.858 129.568  0.00  0.00    +0.000 OA
ATOM     34  H   UNL     1      -8.305  -1.767 135.187  0.00  0.00    +0.000 HD
ATOM     35  H   UNL     1      -9.295  -2.777 141.984  0.00  0.00    +0.000 HD
ATOM     36  H   UNL     1      -4.394   2.367 131.830  0.00  0.00    +0.000 HD
ATOM     37  H   UNL     1      -7.561  -1.335 132.448  0.00  0.00    +0.000 HD
ATOM     38  H   UNL     1      -3.990  -3.813 129.992  0.00  0.00    +0.000 HD
ENDROOT
BRANCH  22  39
ATOM     39  C   UNL     1      -5.190   3.383 134.087  0.00  0.00    +0.000 C 
ATOM     40  O   UNL     1      -6.059   3.751 134.869  0.00  0.00    +0.000 OA
ATOM     41  N   UNL     1      -4.056   4.089 133.608  0.00  0.00    +0.000 N 
ATOM     42  C   UNL     1      -3.540   4.176 132.251  0.00  0.00    +0.000 C 
ATOM     43  C   UNL     1      -2.053   4.255 132.451  0.00  0.00    +0.000 C 
ATOM     44  C   UNL     1      -1.932   5.241 133.582  0.00  0.00    +0.000 C 
ATOM     45  C   UNL     1      -3.192   5.034 134.403  0.00  0.00    +0.000 C 
BRANCH  45  46
ATOM     46  C   UNL     1      -3.671   6.519 134.325  0.00  0.00    +0.000 C 
ATOM     47  O   UNL     1      -4.747   6.793 134.889  0.00  0.00    +0.000 OA
ATOM     48  N   UNL     1      -2.645   7.501 134.045  0.00  0.00    +0.000 N 
ATOM     49  H   UNL     1      -1.793   7.281 133.532  0.00  0.00    +0.000 HD
BRANCH  48  50
ATOM     50  C   UNL     1      -2.780   8.950 134.457  0.00  0.00    +0.000 C 
BRANCH  50  51
ATOM     51  C   UNL     1      -2.091   9.878 133.411  0.00  0.00    +0.000 C 
ATOM     52  O   UNL     1      -2.384   9.759 132.219  0.00  0.00    +0.000 OA
ATOM     53  N   UNL     1      -1.172  10.816 133.851  0.00  0.00    +0.000 N 
ATOM     54  H   UNL     1      -0.938  10.907 134.824  0.00  0.00    +0.000 HD
BRANCH  53  55
ATOM     55  C   UNL     1      -0.491  11.728 132.926  0.00  0.00    +0.000 C 
BRANCH  55  56
ATOM     56  C   UNL     1      -1.301  12.999 132.585  0.00  0.00    +0.000 C 
ATOM     57  N   UNL     1      -1.456  13.321 131.251  0.00  0.00    +0.000 N 
ATOM     58  O   UNL     1      -1.788  13.698 133.472  0.00  0.00    +0.000 OA
ATOM     59  H   UNL     1      -1.090  12.801 130.474  0.00  0.00    +0.000 HD
ATOM     60  H   UNL     1      -1.981  14.148 130.981  0.00  0.00    +0.000 HD
ENDBRANCH  55  56
ENDBRANCH  53  55
ENDBRANCH  50  51
BRANCH  50  61
ATOM     61  C   UNL     1      -2.198   9.254 135.848  0.00  0.00    +0.000 C 
BRANCH  61  62
ATOM     62  C   UNL     1      -3.213   9.107 136.964  0.00  0.00    +0.000 C 
ATOM     63  C   UNL     1      -2.645   9.491 138.269  0.00  0.00    +0.000 C 
ATOM     64  C   UNL     1      -4.260  10.143 136.972  0.00  0.00    +0.000 C 
ENDBRANCH  61  62
ENDBRANCH  50  61
ENDBRANCH  48  50
ENDBRANCH  45  46
ENDBRANCH  22  39
BRANCH   1  65
ATOM     65  C   UNL     1      -7.581  -2.952 130.005  0.00  0.00    +0.000 C 
ATOM     66  C   UNL     1      -8.275  -3.300 128.017  0.00  0.00    +0.000 C 
BRANCH  65  68
ATOM     67  C   UNL     1      -9.299  -4.094 128.115  0.00  0.00    +0.000 C 
ATOM     68  C   UNL     1      -8.893  -3.385 129.388  0.00  0.00    +0.000 C 
ENDBRANCH  65  68
ENDBRANCH   1  65
BRANCH  26  69
ATOM     69  C   UNL     1      -4.594  -1.935 132.691  0.00  0.00    +0.000 C 
BRANCH  69  70
ATOM     70  C   UNL     1      -3.329  -1.523 132.323  0.00  0.00    +0.000 C 
ATOM     71  N   UNL     1      -2.651  -2.273 130.798  0.00  0.00    +0.000 N 
ATOM     72  O   UNL     1      -2.627  -0.920 133.352  0.00  0.00    +0.000 OA
ATOM     73  H   UNL     1      -2.830  -3.238 130.780  0.00  0.00    +0.000 HD
ATOM     74  H   UNL     1      -1.514  -2.575 131.012  0.00  0.00    +0.000 HD
ENDBRANCH  69  70
ENDBRANCH  26  69
BRANCH   5  75
ATOM     75  C   UNL     1      -6.721  -2.708 140.545  0.00  0.00    +0.000 C 
BRANCH  75  76
ATOM     76  C   UNL     1      -6.023  -1.465 140.445  0.00  0.00    +0.000 A 
ATOM     77  C   UNL     1      -6.608  -0.459 141.189  0.00  0.00    +0.000 A 
ATOM     78  C   UNL     1      -6.372   0.839 140.895  0.00  0.00    +0.000 A 
ATOM     79  C   UNL     1      -5.302   1.124 140.104  0.00  0.00    +0.000 A 
ATOM     80  C   UNL     1      -4.602   0.088 139.484  0.00  0.00    +0.000 A 
ATOM     81  C   UNL     1      -5.032  -1.222 139.553  0.00  0.00    +0.000 A 
BRANCH  79  82
ATOM     82  O   UNL     1      -5.017   2.413 139.768  0.00  0.00    +0.000 OA
ATOM     83  H   UNL     1      -4.198   2.598 139.279  0.00  0.00    +0.000 HD
ENDBRANCH  79  82
ENDBRANCH  75  76
ENDBRANCH   5  75
BRANCH  30  84
ATOM     84  C   UNL     1      -5.072  -1.094 128.460  0.00  0.00    +0.000 C 
BRANCH  84  85
ATOM     85  C   UNL     1      -5.207  -2.074 127.353  0.00  0.00    +0.000 C 
BRANCH  85  86
ATOM     86  C   UNL     1      -5.576  -1.305 126.088  0.00  0.00    +0.000 C 
ATOM     87  N   UNL     1      -6.338  -1.895 125.078  0.00  0.00    +0.000 N 
ATOM     88  O   UNL     1      -5.195  -0.143 125.973  0.00  0.00    +0.000 OA
ATOM     89  H   UNL     1      -6.819  -2.789 125.026  0.00  0.00    +0.000 HD
ATOM     90  H   UNL     1      -6.552  -1.414 124.224  0.00  0.00    +0.000 HD
ENDBRANCH  85  86
ENDBRANCH  84  85
ENDBRANCH  30  84
TORSDOF 18
ENDMDL
MODEL 9
REMARK VINA RESULT:      -7.7      3.615      8.580
REMARK  Name = CHEMBL4127791
REMARK  22 active torsions:
REMARK  status: ('A' for Active; 'I' for Inactive)
REMARK    1  A    between atoms: C_1  and  C_2
REMARK    2  A    between atoms: C_2  and  C_3
REMARK    3  A    between atoms: C_3  and  C_4
REMARK    4  A    between atoms: C_3  and  C_5
REMARK    5  A    between atoms: C_9  and  C_10
REMARK    6  A    between atoms: C_10  and  C_11
REMARK    7  A    between atoms: C_14  and  O_15
REMARK    8  A    between atoms: C_34  and  C_35
REMARK    9  A    between atoms: C_41  and  C_42
REMARK   10  A    between atoms: N_44  and  C_45
REMARK   11  A    between atoms: C_45  and  C_46
REMARK   12  A    between atoms: C_45  and  C_50
REMARK   13  A    between atoms: C_46  and  C_47
REMARK   14  A    between atoms: C_47  and  C_48
REMARK   15  A    between atoms: C_47  and  C_49
REMARK   16  A    between atoms: N_52  and  C_53
REMARK   17  A    between atoms: C_53  and  C_54
REMARK   18  A    between atoms: C_60  and  C_61
REMARK   19  A    between atoms: C_61  and  C_62
REMARK   20  A    between atoms: C_68  and  C_69
REMARK   21  A    between atoms: C_69  and  C_70
REMARK   22  A    between atoms: C_70  and  C_71
REMARK                            x       y       z     vdW  Elec       q    Type
REMARK                         _______ _______ _______ _____ _____    ______ ____
ROOT
ATOM      1  C   UNL     1      -7.463  -3.402 132.318  0.00  0.00    +0.000 C 
ATOM      2  N   UNL     1      -8.073  -3.127 134.523  0.00  0.00    +0.000 N 
ATOM      3  C   UNL     1      -8.680  -3.232 136.647  0.00  0.00    +0.000 C 
ATOM      4  O   UNL     1      -9.655  -4.023 137.130  0.00  0.00    +0.000 OA
ATOM      5  C   UNL     1      -8.840  -3.068 138.967  0.00  0.00    +0.000 C 
ATOM      6  N   UNL     1      -9.751  -4.150 140.498  0.00  0.00    +0.000 N 
ATOM      7  C   UNL     1      -9.712  -5.721 140.699  0.00  0.00    +0.000 C 
ATOM      8  O   UNL     1     -10.353  -6.534 141.394  0.00  0.00    +0.000 OA
ATOM      9  C   UNL     1      -8.842  -6.223 139.618  0.00  0.00    +0.000 C 
ATOM     10  C   UNL     1      -7.991  -5.278 138.963  0.00  0.00    +0.000 C 
ATOM     11  S   UNL     1      -7.018  -5.488 137.634  0.00  0.00    +0.000 S 
ATOM     12  C   UNL     1      -6.288  -3.884 137.205  0.00  0.00    +0.000 C 
ATOM     13  C   UNL     1      -5.463  -4.263 136.066  0.00  0.00    +0.000 A 
ATOM     14  C   UNL     1      -5.329  -5.474 135.466  0.00  0.00    +0.000 A 
ATOM     15  C   UNL     1      -4.303  -5.851 134.589  0.00  0.00    +0.000 A 
ATOM     16  C   UNL     1      -3.522  -5.002 133.937  0.00  0.00    +0.000 A 
ATOM     17  C   UNL     1      -3.878  -3.797 134.204  0.00  0.00    +0.000 A 
ATOM     18  C   UNL     1      -4.585  -3.450 135.509  0.00  0.00    +0.000 A 
ATOM     19  C   UNL     1      -4.287  -1.826 136.377  0.00  0.00    +0.000 C 
ATOM     20  S   UNL     1      -4.474   0.234 135.038  0.00  0.00    +0.000 S 
ATOM     21  C   UNL     1      -5.635   1.376 135.402  0.00  0.00    +0.000 C 
ATOM     22  C   UNL     1      -6.414   1.974 134.304  0.00  0.00    +0.000 C 
ATOM     23  N   UNL     1      -5.774   1.884 132.974  0.00  0.00    +0.000 N 
ATOM     24  C   UNL     1      -5.493   0.746 132.311  0.00  0.00    +0.000 C 
ATOM     25  O   UNL     1      -4.837   0.805 131.282  0.00  0.00    +0.000 OA
ATOM     26  C   UNL     1      -5.952  -0.544 132.994  0.00  0.00    +0.000 C 
ATOM     27  N   UNL     1      -6.840  -1.338 132.565  0.00  0.00    +0.000 N 
ATOM     28  C   UNL     1      -6.336  -1.640 131.456  0.00  0.00    +0.000 C 
ATOM     29  O   UNL     1      -7.583  -1.850 131.524  0.00  0.00    +0.000 OA
ATOM     30  C   UNL     1      -5.054  -1.411 130.272  0.00  0.00    +0.000 C 
ATOM     31  N   UNL     1      -4.749  -2.787 130.190  0.00  0.00    +0.000 N 
ATOM     32  C   UNL     1      -5.900  -3.799 130.829  0.00  0.00    +0.000 C 
ATOM     33  O   UNL     1      -5.620  -4.420 129.589  0.00  0.00    +0.000 OA
ATOM     34  H   UNL     1      -8.810  -2.269 135.186  0.00  0.00    +0.000 HD
ATOM     35  H   UNL     1     -10.213  -4.073 141.742  0.00  0.00    +0.000 HD
ATOM     36  H   UNL     1      -5.343   2.723 132.594  0.00  0.00    +0.000 HD
ATOM     37  H   UNL     1      -7.910  -1.464 132.582  0.00  0.00    +0.000 HD
ATOM     38  H   UNL     1      -3.785  -3.115 130.306  0.00  0.00    +0.000 HD
ENDROOT
BRANCH  22  39
ATOM     39  C   UNL     1      -6.487   3.381 134.834  0.00  0.00    +0.000 C 
ATOM     40  O   UNL     1      -7.526   3.930 134.487  0.00  0.00    +0.000 OA
ATOM     41  N   UNL     1      -5.456   3.862 135.682  0.00  0.00    +0.000 N 
ATOM     42  C   UNL     1      -4.015   3.786 135.501  0.00  0.00    +0.000 C 
ATOM     43  C   UNL     1      -3.500   3.631 136.905  0.00  0.00    +0.000 C 
ATOM     44  C   UNL     1      -4.314   4.646 137.661  0.00  0.00    +0.000 C 
ATOM     45  C   UNL     1      -5.639   4.696 136.923  0.00  0.00    +0.000 C 
BRANCH  45  46
ATOM     46  C   UNL     1      -5.601   6.233 136.644  0.00  0.00    +0.000 C 
ATOM     47  O   UNL     1      -5.732   6.592 135.458  0.00  0.00    +0.000 OA
ATOM     48  N   UNL     1      -5.895   7.089 137.773  0.00  0.00    +0.000 N 
ATOM     49  H   UNL     1      -5.730   6.808 138.738  0.00  0.00    +0.000 HD
BRANCH  48  50
ATOM     50  C   UNL     1      -6.430   8.493 137.604  0.00  0.00    +0.000 C 
BRANCH  50  51
ATOM     51  C   UNL     1      -5.256   9.510 137.478  0.00  0.00    +0.000 C 
ATOM     52  O   UNL     1      -5.299  10.559 138.124  0.00  0.00    +0.000 OA
ATOM     53  N   UNL     1      -4.191   9.202 136.647  0.00  0.00    +0.000 N 
ATOM     54  H   UNL     1      -4.162   8.346 136.122  0.00  0.00    +0.000 HD
BRANCH  53  55
ATOM     55  C   UNL     1      -3.047  10.107 136.484  0.00  0.00    +0.000 C 
BRANCH  55  56
ATOM     56  C   UNL     1      -2.695  10.417 135.012  0.00  0.00    +0.000 C 
ATOM     57  N   UNL     1      -2.312   9.360 134.209  0.00  0.00    +0.000 N 
ATOM     58  O   UNL     1      -2.752  11.563 134.574  0.00  0.00    +0.000 OA
ATOM     59  H   UNL     1      -2.242   8.399 134.494  0.00  0.00    +0.000 HD
ATOM     60  H   UNL     1      -2.071   9.518 133.235  0.00  0.00    +0.000 HD
ENDBRANCH  55  56
ENDBRANCH  53  55
ENDBRANCH  50  51
BRANCH  50  61
ATOM     61  C   UNL     1      -7.356   8.944 138.746  0.00  0.00    +0.000 C 
BRANCH  61  62
ATOM     62  C   UNL     1      -8.820   8.659 138.476  0.00  0.00    +0.000 C 
ATOM     63  C   UNL     1      -9.677   9.786 138.884  0.00  0.00    +0.000 C 
ATOM     64  C   UNL     1      -9.196   8.721 137.053  0.00  0.00    +0.000 C 
ENDBRANCH  61  62
ENDBRANCH  50  61
ENDBRANCH  48  50
ENDBRANCH  45  46
ENDBRANCH  22  39
BRANCH   1  65
ATOM     65  C   UNL     1      -7.455  -2.821 130.025  0.00  0.00    +0.000 C 
ATOM     66  C   UNL     1      -8.000  -3.014 127.971  0.00  0.00    +0.000 C 
BRANCH  65  68
ATOM     67  C   UNL     1      -8.992  -3.974 127.991  0.00  0.00    +0.000 C 
ATOM     68  C   UNL     1      -8.705  -3.239 129.282  0.00  0.00    +0.000 C 
ENDBRANCH  65  68
ENDBRANCH   1  65
BRANCH  26  69
ATOM     69  C   UNL     1      -4.918  -1.622 133.074  0.00  0.00    +0.000 C 
BRANCH  69  70
ATOM     70  C   UNL     1      -3.718  -1.002 132.791  0.00  0.00    +0.000 C 
ATOM     71  N   UNL     1      -2.664  -1.824 131.542  0.00  0.00    +0.000 N 
ATOM     72  O   UNL     1      -3.329  -0.091 133.757  0.00  0.00    +0.000 OA
ATOM     73  H   UNL     1      -2.641  -2.794 131.695  0.00  0.00    +0.000 HD
ATOM     74  H   UNL     1      -1.540  -1.820 131.951  0.00  0.00    +0.000 HD
ENDBRANCH  69  70
ENDBRANCH  26  69
BRANCH   5  75
ATOM     75  C   UNL     1      -7.569  -3.471 140.582  0.00  0.00    +0.000 C 
BRANCH  75  76
ATOM     76  C   UNL     1      -6.943  -2.186 140.538  0.00  0.00    +0.000 A 
ATOM     77  C   UNL     1      -5.598  -2.255 140.233  0.00  0.00    +0.000 A 
ATOM     78  C   UNL     1      -4.766  -1.242 140.562  0.00  0.00    +0.000 A 
ATOM     79  C   UNL     1      -5.325  -0.039 140.869  0.00  0.00    +0.000 A 
ATOM     80  C   UNL     1      -6.709   0.066 141.011  0.00  0.00    +0.000 A 
ATOM     81  C   UNL     1      -7.531  -1.042 140.964  0.00  0.00    +0.000 A 
BRANCH  79  82
ATOM     82  O   UNL     1      -4.538   1.018 141.215  0.00  0.00    +0.000 OA
ATOM     83  H   UNL     1      -4.667   1.865 140.757  0.00  0.00    +0.000 HD
ENDBRANCH  79  82
ENDBRANCH  75  76
ENDBRANCH   5  75
BRANCH  30  84
ATOM     84  C   UNL     1      -5.155  -0.459 128.900  0.00  0.00    +0.000 C 
BRANCH  84  85
ATOM     85  C   UNL     1      -5.147  -1.346 127.710  0.00  0.00    +0.000 C 
BRANCH  85  86
ATOM     86  C   UNL     1      -5.391  -0.480 126.477  0.00  0.00    +0.000 C 
ATOM     87  N   UNL     1      -4.739   0.744 126.311  0.00  0.00    +0.000 N 
ATOM     88  O   UNL     1      -6.173  -0.882 125.620  0.00  0.00    +0.000 OA
ATOM     89  H   UNL     1      -4.002   1.197 126.844  0.00  0.00    +0.000 HD
ATOM     90  H   UNL     1      -4.923   1.341 125.526  0.00  0.00    +0.000 HD
ENDBRANCH  85  86
ENDBRANCH  84  85
ENDBRANCH  30  84
TORSDOF 18
ENDMDL
