MODEL 1
REMARK VINA RESULT:      -7.7      0.000      0.000
REMARK  Name = CHEMBL561520
REMARK  9 active torsions:
REMARK  status: ('A' for Active; 'I' for Inactive)
REMARK    1  A    between atoms: C_1  and  O_2
REMARK    2  A    between atoms: O_2  and  C_3
REMARK    3  A    between atoms: C_6  and  N_7
REMARK    4  A    between atoms: C_8  and  C_9
REMARK    5  A    between atoms: C_12  and  C_13
REMARK    6  A    between atoms: C_16  and  O_17
REMARK    7  A    between atoms: O_17  and  C_18
REMARK    8  A    between atoms: C_23  and  S_24
REMARK    9  A    between atoms: S_24  and  C_25
REMARK                            x       y       z     vdW  Elec       q    Type
REMARK                         _______ _______ _______ _____ _____    ______ ____
ROOT
ATOM      1  C   UNL     1      -6.924   4.059 125.547  0.00  0.00    +0.000 A 
ATOM      2  C   UNL     1      -8.052   4.781 125.929  0.00  0.00    +0.000 A 
ATOM      3  N   UNL     1      -8.513   4.821 127.205  0.00  0.00    +0.000 NA
ATOM      4  C   UNL     1      -7.860   4.024 128.082  0.00  0.00    +0.000 A 
ATOM      5  C   UNL     1      -6.737   3.286 127.703  0.00  0.00    +0.000 A 
ATOM      6  N   UNL     1      -6.230   3.304 126.437  0.00  0.00    +0.000 NA
ENDROOT
BRANCH   1  12
ATOM      7  N   UNL     1      -6.574   3.204 123.203  0.00  0.00    +0.000 N 
ATOM      8  C   UNL     1      -5.774   3.620 122.141  0.00  0.00    +0.000 A 
ATOM      9  C   UNL     1      -5.671   3.033 120.777  0.00  0.00    +0.000 C 
ATOM     10  N   UNL     1      -5.170   4.741 122.475  0.00  0.00    +0.000 NA
ATOM     11  N   UNL     1      -5.544   5.080 123.749  0.00  0.00    +0.000 NA
ATOM     12  C   UNL     1      -6.367   4.163 124.197  0.00  0.00    +0.000 A 
BRANCH   7  16
ATOM     13  C   UNL     1      -9.053  -0.157 123.251  0.00  0.00    +0.000 A 
ATOM     14  C   UNL     1      -7.730  -0.303 123.639  0.00  0.00    +0.000 A 
ATOM     15  C   UNL     1      -6.909   0.829 123.667  0.00  0.00    +0.000 A 
ATOM     16  C   UNL     1      -7.434   2.085 123.333  0.00  0.00    +0.000 A 
ATOM     17  C   UNL     1      -8.752   2.133 122.911  0.00  0.00    +0.000 A 
ATOM     18  N   UNL     1      -9.560   1.039 122.863  0.00  0.00    +0.000 NA
BRANCH  13  20
ATOM     19  C   UNL     1      -9.330  -2.508 123.239  0.00  0.00    +0.000 C 
ATOM     20  O   UNL     1      -9.914  -1.213 123.106  0.00  0.00    +0.000 OA
ENDBRANCH  13  20
ENDBRANCH   7  16
ENDBRANCH   1  12
BRANCH   4  21
ATOM     21  O   UNL     1      -8.466   3.666 129.285  0.00  0.00    +0.000 OA
BRANCH  21  22
ATOM     22  C   UNL     1      -8.250   4.488 130.373  0.00  0.00    +0.000 A 
ATOM     23  C   UNL     1      -7.186   4.072 131.201  0.00  0.00    +0.000 A 
ATOM     24  C   UNL     1      -6.833   4.791 132.344  0.00  0.00    +0.000 A 
ATOM     25  C   UNL     1      -7.515   5.958 132.649  0.00  0.00    +0.000 A 
ATOM     26  C   UNL     1      -8.601   6.350 131.861  0.00  0.00    +0.000 A 
ATOM     27  C   UNL     1      -9.031   5.605 130.736  0.00  0.00    +0.000 A 
BRANCH  27  28
ATOM     28  S   UNL     1     -10.576   6.251 130.057  0.00  0.00    +0.000 S 
ATOM     29  C   UNL     1     -11.721   6.442 131.435  0.00  0.00    +0.000 C 
ENDBRANCH  27  28
ENDBRANCH  21  22
ENDBRANCH   4  21
TORSDOF 6
ENDMDL
MODEL 2
REMARK VINA RESULT:      -7.5      3.695      7.496
REMARK  Name = CHEMBL561520
REMARK  9 active torsions:
REMARK  status: ('A' for Active; 'I' for Inactive)
REMARK    1  A    between atoms: C_1  and  O_2
REMARK    2  A    between atoms: O_2  and  C_3
REMARK    3  A    between atoms: C_6  and  N_7
REMARK    4  A    between atoms: C_8  and  C_9
REMARK    5  A    between atoms: C_12  and  C_13
REMARK    6  A    between atoms: C_16  and  O_17
REMARK    7  A    between atoms: O_17  and  C_18
REMARK    8  A    between atoms: C_23  and  S_24
REMARK    9  A    between atoms: S_24  and  C_25
REMARK                            x       y       z     vdW  Elec       q    Type
REMARK                         _______ _______ _______ _____ _____    ______ ____
ROOT
ATOM      1  C   UNL     1      -8.910  -0.161 125.083  0.00  0.00    +0.000 A 
ATOM      2  C   UNL     1      -9.800   0.887 125.304  0.00  0.00    +0.000 A 
ATOM      3  N   UNL     1      -9.936   1.939 124.457  0.00  0.00    +0.000 NA
ATOM      4  C   UNL     1      -9.069   1.962 123.418  0.00  0.00    +0.000 A 
ATOM      5  C   UNL     1      -8.164   0.922 123.199  0.00  0.00    +0.000 A 
ATOM      6  N   UNL     1      -8.078  -0.172 124.009  0.00  0.00    +0.000 NA
ENDROOT
BRANCH   1  12
ATOM      7  N   UNL     1      -8.104  -1.480 127.072  0.00  0.00    +0.000 N 
ATOM      8  C   UNL     1      -8.301  -2.793 127.495  0.00  0.00    +0.000 A 
ATOM      9  C   UNL     1      -7.779  -3.457 128.721  0.00  0.00    +0.000 C 
ATOM     10  N   UNL     1      -9.162  -3.376 126.688  0.00  0.00    +0.000 NA
ATOM     11  N   UNL     1      -9.538  -2.480 125.722  0.00  0.00    +0.000 NA
ATOM     12  C   UNL     1      -8.901  -1.353 125.933  0.00  0.00    +0.000 A 
BRANCH   7  16
ATOM     13  C   UNL     1      -5.828   1.764 128.390  0.00  0.00    +0.000 A 
ATOM     14  C   UNL     1      -7.117   1.617 128.879  0.00  0.00    +0.000 A 
ATOM     15  C   UNL     1      -7.866   0.507 128.473  0.00  0.00    +0.000 A 
ATOM     16  C   UNL     1      -7.302  -0.444 127.612  0.00  0.00    +0.000 A 
ATOM     17  C   UNL     1      -6.026  -0.194 127.135  0.00  0.00    +0.000 A 
ATOM     18  N   UNL     1      -5.290   0.889 127.506  0.00  0.00    +0.000 NA
BRANCH  13  20
ATOM     19  C   UNL     1      -3.708   2.793 128.163  0.00  0.00    +0.000 C 
ATOM     20  O   UNL     1      -5.046   2.857 128.655  0.00  0.00    +0.000 OA
ENDBRANCH  13  20
ENDBRANCH   7  16
ENDBRANCH   1  12
BRANCH   4  21
ATOM     21  O   UNL     1      -8.830   3.153 122.735  0.00  0.00    +0.000 OA
BRANCH  21  22
ATOM     22  C   UNL     1      -7.513   3.530 122.560  0.00  0.00    +0.000 A 
ATOM     23  C   UNL     1      -7.086   3.505 121.215  0.00  0.00    +0.000 A 
ATOM     24  C   UNL     1      -5.783   3.858 120.862  0.00  0.00    +0.000 A 
ATOM     25  C   UNL     1      -4.903   4.279 121.847  0.00  0.00    +0.000 A 
ATOM     26  C   UNL     1      -5.304   4.259 123.186  0.00  0.00    +0.000 A 
ATOM     27  C   UNL     1      -6.596   3.838 123.585  0.00  0.00    +0.000 A 
BRANCH  27  28
ATOM     28  S   UNL     1      -6.736   3.727 125.384  0.00  0.00    +0.000 S 
ATOM     29  C   UNL     1      -8.116   4.778 125.873  0.00  0.00    +0.000 C 
ENDBRANCH  27  28
ENDBRANCH  21  22
ENDBRANCH   4  21
TORSDOF 6
ENDMDL
MODEL 3
REMARK VINA RESULT:      -7.3      3.119      5.288
REMARK  Name = CHEMBL561520
REMARK  9 active torsions:
REMARK  status: ('A' for Active; 'I' for Inactive)
REMARK    1  A    between atoms: C_1  and  O_2
REMARK    2  A    between atoms: O_2  and  C_3
REMARK    3  A    between atoms: C_6  and  N_7
REMARK    4  A    between atoms: C_8  and  C_9
REMARK    5  A    between atoms: C_12  and  C_13
REMARK    6  A    between atoms: C_16  and  O_17
REMARK    7  A    between atoms: O_17  and  C_18
REMARK    8  A    between atoms: C_23  and  S_24
REMARK    9  A    between atoms: S_24  and  C_25
REMARK                            x       y       z     vdW  Elec       q    Type
REMARK                         _______ _______ _______ _____ _____    ______ ____
ROOT
ATOM      1  C   UNL     1      -8.257   1.642 124.342  0.00  0.00    +0.000 A 
ATOM      2  C   UNL     1      -8.761   2.330 125.443  0.00  0.00    +0.000 A 
ATOM      3  N   UNL     1      -8.257   3.514 125.875  0.00  0.00    +0.000 NA
ATOM      4  C   UNL     1      -7.152   3.946 125.223  0.00  0.00    +0.000 A 
ATOM      5  C   UNL     1      -6.633   3.254 124.128  0.00  0.00    +0.000 A 
ATOM      6  N   UNL     1      -7.184   2.102 123.648  0.00  0.00    +0.000 NA
ENDROOT
BRANCH   1  12
ATOM      7  N   UNL     1      -8.540  -0.852 124.137  0.00  0.00    +0.000 N 
ATOM      8  C   UNL     1      -9.331  -1.664 123.326  0.00  0.00    +0.000 A 
ATOM      9  C   UNL     1      -9.425  -3.150 123.316  0.00  0.00    +0.000 C 
ATOM     10  N   UNL     1     -10.127  -0.901 122.607  0.00  0.00    +0.000 NA
ATOM     11  N   UNL     1      -9.876   0.411 122.913  0.00  0.00    +0.000 NA
ATOM     12  C   UNL     1      -8.922   0.451 123.811  0.00  0.00    +0.000 A 
BRANCH   7  16
ATOM     13  C   UNL     1      -5.739  -2.158 126.946  0.00  0.00    +0.000 A 
ATOM     14  C   UNL     1      -5.341  -2.026 125.625  0.00  0.00    +0.000 A 
ATOM     15  C   UNL     1      -6.264  -1.546 124.689  0.00  0.00    +0.000 A 
ATOM     16  C   UNL     1      -7.554  -1.185 125.099  0.00  0.00    +0.000 A 
ATOM     17  C   UNL     1      -7.882  -1.394 126.428  0.00  0.00    +0.000 A 
ATOM     18  N   UNL     1      -7.002  -1.874 127.348  0.00  0.00    +0.000 NA
BRANCH  13  20
ATOM     19  C   UNL     1      -4.862  -1.959 129.136  0.00  0.00    +0.000 C 
ATOM     20  O   UNL     1      -4.941  -2.700 127.919  0.00  0.00    +0.000 OA
ENDBRANCH  13  20
ENDBRANCH   7  16
ENDBRANCH   1  12
BRANCH   4  21
ATOM     21  O   UNL     1      -6.321   4.897 125.812  0.00  0.00    +0.000 OA
BRANCH  21  22
ATOM     22  C   UNL     1      -5.302   4.434 126.621  0.00  0.00    +0.000 A 
ATOM     23  C   UNL     1      -4.118   4.119 125.922  0.00  0.00    +0.000 A 
ATOM     24  C   UNL     1      -2.990   3.638 126.588  0.00  0.00    +0.000 A 
ATOM     25  C   UNL     1      -3.020   3.505 127.967  0.00  0.00    +0.000 A 
ATOM     26  C   UNL     1      -4.206   3.770 128.660  0.00  0.00    +0.000 A 
ATOM     27  C   UNL     1      -5.389   4.190 128.007  0.00  0.00    +0.000 A 
BRANCH  27  28
ATOM     28  S   UNL     1      -6.796   4.244 129.141  0.00  0.00    +0.000 S 
ATOM     29  C   UNL     1      -7.401   2.555 129.314  0.00  0.00    +0.000 C 
ENDBRANCH  27  28
ENDBRANCH  21  22
ENDBRANCH   4  21
TORSDOF 6
ENDMDL
MODEL 4
REMARK VINA RESULT:      -7.2      4.805      6.090
REMARK  Name = CHEMBL561520
REMARK  9 active torsions:
REMARK  status: ('A' for Active; 'I' for Inactive)
REMARK    1  A    between atoms: C_1  and  O_2
REMARK    2  A    between atoms: O_2  and  C_3
REMARK    3  A    between atoms: C_6  and  N_7
REMARK    4  A    between atoms: C_8  and  C_9
REMARK    5  A    between atoms: C_12  and  C_13
REMARK    6  A    between atoms: C_16  and  O_17
REMARK    7  A    between atoms: O_17  and  C_18
REMARK    8  A    between atoms: C_23  and  S_24
REMARK    9  A    between atoms: S_24  and  C_25
REMARK                            x       y       z     vdW  Elec       q    Type
REMARK                         _______ _______ _______ _____ _____    ______ ____
ROOT
ATOM      1  C   UNL     1      -6.840  -0.133 131.122  0.00  0.00    +0.000 A 
ATOM      2  C   UNL     1      -7.806  -0.561 132.030  0.00  0.00    +0.000 A 
ATOM      3  N   UNL     1      -8.971   0.101 132.245  0.00  0.00    +0.000 NA
ATOM      4  C   UNL     1      -9.099   1.276 131.587  0.00  0.00    +0.000 A 
ATOM      5  C   UNL     1      -8.129   1.719 130.685  0.00  0.00    +0.000 A 
ATOM      6  N   UNL     1      -6.992   1.016 130.415  0.00  0.00    +0.000 NA
ENDROOT
BRANCH   1  12
ATOM      7  N   UNL     1      -5.675  -1.954 129.830  0.00  0.00    +0.000 N 
ATOM      8  C   UNL     1      -4.425  -2.560 129.943  0.00  0.00    +0.000 A 
ATOM      9  C   UNL     1      -3.835  -3.629 129.090  0.00  0.00    +0.000 C 
ATOM     10  N   UNL     1      -3.738  -1.948 130.884  0.00  0.00    +0.000 NA
ATOM     11  N   UNL     1      -4.509  -0.946 131.413  0.00  0.00    +0.000 NA
ATOM     12  C   UNL     1      -5.670  -0.952 130.803  0.00  0.00    +0.000 A 
BRANCH   7  16
ATOM     13  C   UNL     1      -8.664  -2.968 127.096  0.00  0.00    +0.000 A 
ATOM     14  C   UNL     1      -8.630  -3.626 128.315  0.00  0.00    +0.000 A 
ATOM     15  C   UNL     1      -7.657  -3.258 129.251  0.00  0.00    +0.000 A 
ATOM     16  C   UNL     1      -6.759  -2.224 128.958  0.00  0.00    +0.000 A 
ATOM     17  C   UNL     1      -6.833  -1.652 127.699  0.00  0.00    +0.000 A 
ATOM     18  N   UNL     1      -7.762  -2.009 126.771  0.00  0.00    +0.000 NA
BRANCH  13  20
ATOM     19  C   UNL     1      -9.033  -3.075 124.760  0.00  0.00    +0.000 C 
ATOM     20  O   UNL     1      -9.517  -3.312 126.080  0.00  0.00    +0.000 OA
ENDBRANCH  13  20
ENDBRANCH   7  16
ENDBRANCH   1  12
BRANCH   4  21
ATOM     21  O   UNL     1     -10.026   2.222 132.021  0.00  0.00    +0.000 OA
BRANCH  21  22
ATOM     22  C   UNL     1      -9.532   3.408 132.525  0.00  0.00    +0.000 A 
ATOM     23  C   UNL     1      -8.832   3.263 133.742  0.00  0.00    +0.000 A 
ATOM     24  C   UNL     1      -8.267   4.364 134.388  0.00  0.00    +0.000 A 
ATOM     25  C   UNL     1      -8.360   5.617 133.803  0.00  0.00    +0.000 A 
ATOM     26  C   UNL     1      -9.093   5.776 132.623  0.00  0.00    +0.000 A 
ATOM     27  C   UNL     1      -9.740   4.692 131.980  0.00  0.00    +0.000 A 
BRANCH  27  28
ATOM     28  S   UNL     1     -10.772   5.251 130.605  0.00  0.00    +0.000 S 
ATOM     29  C   UNL     1     -11.917   6.475 131.267  0.00  0.00    +0.000 C 
ENDBRANCH  27  28
ENDBRANCH  21  22
ENDBRANCH   4  21
TORSDOF 6
ENDMDL
MODEL 5
REMARK VINA RESULT:      -7.1      3.133      5.129
REMARK  Name = CHEMBL561520
REMARK  9 active torsions:
REMARK  status: ('A' for Active; 'I' for Inactive)
REMARK    1  A    between atoms: C_1  and  O_2
REMARK    2  A    between atoms: O_2  and  C_3
REMARK    3  A    between atoms: C_6  and  N_7
REMARK    4  A    between atoms: C_8  and  C_9
REMARK    5  A    between atoms: C_12  and  C_13
REMARK    6  A    between atoms: C_16  and  O_17
REMARK    7  A    between atoms: O_17  and  C_18
REMARK    8  A    between atoms: C_23  and  S_24
REMARK    9  A    between atoms: S_24  and  C_25
REMARK                            x       y       z     vdW  Elec       q    Type
REMARK                         _______ _______ _______ _____ _____    ______ ____
ROOT
ATOM      1  C   UNL     1      -8.130   2.469 129.752  0.00  0.00    +0.000 A 
ATOM      2  C   UNL     1      -9.442   2.934 129.701  0.00  0.00    +0.000 A 
ATOM      3  N   UNL     1      -9.762   4.248 129.579  0.00  0.00    +0.000 NA
ATOM      4  C   UNL     1      -8.714   5.105 129.613  0.00  0.00    +0.000 A 
ATOM      5  C   UNL     1      -7.397   4.646 129.678  0.00  0.00    +0.000 A 
ATOM      6  N   UNL     1      -7.073   3.322 129.726  0.00  0.00    +0.000 NA
ENDROOT
BRANCH   1  12
ATOM      7  N   UNL     1      -7.700   0.300 128.547  0.00  0.00    +0.000 N 
ATOM      8  C   UNL     1      -7.537  -1.017 128.972  0.00  0.00    +0.000 A 
ATOM      9  C   UNL     1      -7.262  -2.227 128.149  0.00  0.00    +0.000 C 
ATOM     10  N   UNL     1      -7.536  -1.043 130.288  0.00  0.00    +0.000 NA
ATOM     11  N   UNL     1      -7.706   0.234 130.754  0.00  0.00    +0.000 NA
ATOM     12  C   UNL     1      -7.821   1.039 129.725  0.00  0.00    +0.000 A 
BRANCH   7  16
ATOM     13  C   UNL     1      -7.901   2.231 124.849  0.00  0.00    +0.000 A 
ATOM     14  C   UNL     1      -6.664   2.093 125.458  0.00  0.00    +0.000 A 
ATOM     15  C   UNL     1      -6.587   1.408 126.675  0.00  0.00    +0.000 A 
ATOM     16  C   UNL     1      -7.742   0.853 127.243  0.00  0.00    +0.000 A 
ATOM     17  C   UNL     1      -8.943   1.080 126.591  0.00  0.00    +0.000 A 
ATOM     18  N   UNL     1      -9.038   1.758 125.415  0.00  0.00    +0.000 NA
BRANCH  13  20
ATOM     19  C   UNL     1      -9.013   2.398 122.766  0.00  0.00    +0.000 C 
ATOM     20  O   UNL     1      -8.097   2.959 123.705  0.00  0.00    +0.000 OA
ENDBRANCH  13  20
ENDBRANCH   7  16
ENDBRANCH   1  12
BRANCH   4  21
ATOM     21  O   UNL     1      -8.923   6.451 129.906  0.00  0.00    +0.000 OA
BRANCH  21  22
ATOM     22  C   UNL     1     -10.221   6.852 130.152  0.00  0.00    +0.000 A 
ATOM     23  C   UNL     1     -10.692   6.505 131.436  0.00  0.00    +0.000 A 
ATOM     24  C   UNL     1     -11.985   6.835 131.847  0.00  0.00    +0.000 A 
ATOM     25  C   UNL     1     -12.807   7.553 130.992  0.00  0.00    +0.000 A 
ATOM     26  C   UNL     1     -12.364   7.858 129.702  0.00  0.00    +0.000 A 
ATOM     27  C   UNL     1     -11.086   7.474 129.228  0.00  0.00    +0.000 A 
BRANCH  27  28
ATOM     28  S   UNL     1     -10.893   7.827 127.465  0.00  0.00    +0.000 S 
ATOM     29  C   UNL     1     -12.371   7.212 126.638  0.00  0.00    +0.000 C 
ENDBRANCH  27  28
ENDBRANCH  21  22
ENDBRANCH   4  21
TORSDOF 6
ENDMDL
MODEL 6
REMARK VINA RESULT:      -7.1      3.888      4.848
REMARK  Name = CHEMBL561520
REMARK  9 active torsions:
REMARK  status: ('A' for Active; 'I' for Inactive)
REMARK    1  A    between atoms: C_1  and  O_2
REMARK    2  A    between atoms: O_2  and  C_3
REMARK    3  A    between atoms: C_6  and  N_7
REMARK    4  A    between atoms: C_8  and  C_9
REMARK    5  A    between atoms: C_12  and  C_13
REMARK    6  A    between atoms: C_16  and  O_17
REMARK    7  A    between atoms: O_17  and  C_18
REMARK    8  A    between atoms: C_23  and  S_24
REMARK    9  A    between atoms: S_24  and  C_25
REMARK                            x       y       z     vdW  Elec       q    Type
REMARK                         _______ _______ _______ _____ _____    ______ ____
ROOT
ATOM      1  C   UNL     1      -6.954   1.981 125.692  0.00  0.00    +0.000 A 
ATOM      2  C   UNL     1      -6.960   1.762 127.067  0.00  0.00    +0.000 A 
ATOM      3  N   UNL     1      -5.940   2.127 127.884  0.00  0.00    +0.000 NA
ATOM      4  C   UNL     1      -4.852   2.635 127.259  0.00  0.00    +0.000 A 
ATOM      5  C   UNL     1      -4.833   2.844 125.879  0.00  0.00    +0.000 A 
ATOM      6  N   UNL     1      -5.888   2.545 125.068  0.00  0.00    +0.000 NA
ENDROOT
BRANCH   1  12
ATOM      7  N   UNL     1      -8.316   0.539 124.140  0.00  0.00    +0.000 N 
ATOM      8  C   UNL     1      -9.481   0.754 123.407  0.00  0.00    +0.000 A 
ATOM      9  C   UNL     1     -10.211  -0.201 122.529  0.00  0.00    +0.000 C 
ATOM     10  N   UNL     1      -9.955   1.947 123.700  0.00  0.00    +0.000 NA
ATOM     11  N   UNL     1      -9.122   2.541 124.611  0.00  0.00    +0.000 NA
ATOM     12  C   UNL     1      -8.134   1.717 124.867  0.00  0.00    +0.000 A 
BRANCH   7  16
ATOM     13  C   UNL     1      -6.031  -2.956 124.183  0.00  0.00    +0.000 A 
ATOM     14  C   UNL     1      -5.910  -2.099 123.101  0.00  0.00    +0.000 A 
ATOM     15  C   UNL     1      -6.640  -0.905 123.104  0.00  0.00    +0.000 A 
ATOM     16  C   UNL     1      -7.454  -0.584 124.199  0.00  0.00    +0.000 A 
ATOM     17  C   UNL     1      -7.553  -1.520 125.215  0.00  0.00    +0.000 A 
ATOM     18  N   UNL     1      -6.863  -2.692 125.220  0.00  0.00    +0.000 NA
BRANCH  13  20
ATOM     19  C   UNL     1      -4.244  -4.328 123.456  0.00  0.00    +0.000 C 
ATOM     20  O   UNL     1      -5.429  -4.186 124.236  0.00  0.00    +0.000 OA
ENDBRANCH  13  20
ENDBRANCH   7  16
ENDBRANCH   1  12
BRANCH   4  21
ATOM     21  O   UNL     1      -3.621   2.662 127.912  0.00  0.00    +0.000 OA
BRANCH  21  22
ATOM     22  C   UNL     1      -3.326   3.783 128.662  0.00  0.00    +0.000 A 
ATOM     23  C   UNL     1      -2.688   4.807 127.930  0.00  0.00    +0.000 A 
ATOM     24  C   UNL     1      -2.321   6.010 128.536  0.00  0.00    +0.000 A 
ATOM     25  C   UNL     1      -2.624   6.217 129.873  0.00  0.00    +0.000 A 
ATOM     26  C   UNL     1      -3.212   5.189 130.615  0.00  0.00    +0.000 A 
ATOM     27  C   UNL     1      -3.532   3.931 130.049  0.00  0.00    +0.000 A 
BRANCH  27  28
ATOM     28  S   UNL     1      -4.081   2.753 131.306  0.00  0.00    +0.000 S 
ATOM     29  C   UNL     1      -3.346   3.266 132.869  0.00  0.00    +0.000 C 
ENDBRANCH  27  28
ENDBRANCH  21  22
ENDBRANCH   4  21
TORSDOF 6
ENDMDL
MODEL 7
REMARK VINA RESULT:      -7.1      4.002      8.105
REMARK  Name = CHEMBL561520
REMARK  9 active torsions:
REMARK  status: ('A' for Active; 'I' for Inactive)
REMARK    1  A    between atoms: C_1  and  O_2
REMARK    2  A    between atoms: O_2  and  C_3
REMARK    3  A    between atoms: C_6  and  N_7
REMARK    4  A    between atoms: C_8  and  C_9
REMARK    5  A    between atoms: C_12  and  C_13
REMARK    6  A    between atoms: C_16  and  O_17
REMARK    7  A    between atoms: O_17  and  C_18
REMARK    8  A    between atoms: C_23  and  S_24
REMARK    9  A    between atoms: S_24  and  C_25
REMARK                            x       y       z     vdW  Elec       q    Type
REMARK                         _______ _______ _______ _____ _____    ______ ____
ROOT
ATOM      1  C   UNL     1      -7.904   2.754 128.046  0.00  0.00    +0.000 A 
ATOM      2  C   UNL     1      -6.556   2.441 127.883  0.00  0.00    +0.000 A 
ATOM      3  N   UNL     1      -6.122   1.364 127.180  0.00  0.00    +0.000 NA
ATOM      4  C   UNL     1      -7.094   0.540 126.723  0.00  0.00    +0.000 A 
ATOM      5  C   UNL     1      -8.447   0.841 126.895  0.00  0.00    +0.000 A 
ATOM      6  N   UNL     1      -8.882   1.962 127.538  0.00  0.00    +0.000 NA
ENDROOT
BRANCH   1  12
ATOM      7  N   UNL     1      -8.567   4.135 130.046  0.00  0.00    +0.000 N 
ATOM      8  C   UNL     1      -9.073   5.424 130.195  0.00  0.00    +0.000 A 
ATOM      9  C   UNL     1      -9.409   6.146 131.453  0.00  0.00    +0.000 C 
ATOM     10  N   UNL     1      -9.105   6.008 129.015  0.00  0.00    +0.000 NA
ATOM     11  N   UNL     1      -8.638   5.128 128.074  0.00  0.00    +0.000 NA
ATOM     12  C   UNL     1      -8.330   4.005 128.675  0.00  0.00    +0.000 A 
BRANCH   7  16
ATOM     13  C   UNL     1      -7.726   0.950 132.613  0.00  0.00    +0.000 A 
ATOM     14  C   UNL     1      -6.748   1.910 132.405  0.00  0.00    +0.000 A 
ATOM     15  C   UNL     1      -7.042   3.001 131.581  0.00  0.00    +0.000 A 
ATOM     16  C   UNL     1      -8.313   3.123 131.005  0.00  0.00    +0.000 A 
ATOM     17  C   UNL     1      -9.214   2.095 131.226  0.00  0.00    +0.000 A 
ATOM     18  N   UNL     1      -8.939   1.018 132.012  0.00  0.00    +0.000 NA
BRANCH  13  20
ATOM     19  C   UNL     1      -7.516  -1.408 132.572  0.00  0.00    +0.000 C 
ATOM     20  O   UNL     1      -7.511  -0.199 133.329  0.00  0.00    +0.000 OA
ENDBRANCH  13  20
ENDBRANCH   7  16
ENDBRANCH   1  12
BRANCH   4  21
ATOM     21  O   UNL     1      -6.786  -0.769 126.360  0.00  0.00    +0.000 OA
BRANCH  21  22
ATOM     22  C   UNL     1      -7.454  -1.782 127.019  0.00  0.00    +0.000 A 
ATOM     23  C   UNL     1      -7.047  -1.958 128.358  0.00  0.00    +0.000 A 
ATOM     24  C   UNL     1      -7.621  -2.939 129.167  0.00  0.00    +0.000 A 
ATOM     25  C   UNL     1      -8.639  -3.730 128.658  0.00  0.00    +0.000 A 
ATOM     26  C   UNL     1      -9.013  -3.595 127.317  0.00  0.00    +0.000 A 
ATOM     27  C   UNL     1      -8.401  -2.659 126.449  0.00  0.00    +0.000 A 
BRANCH  27  28
ATOM     28  S   UNL     1      -8.953  -2.870 124.741  0.00  0.00    +0.000 S 
ATOM     29  C   UNL     1      -7.476  -2.914 123.709  0.00  0.00    +0.000 C 
ENDBRANCH  27  28
ENDBRANCH  21  22
ENDBRANCH   4  21
TORSDOF 6
ENDMDL
MODEL 8
REMARK VINA RESULT:      -7.0      3.756      4.947
REMARK  Name = CHEMBL561520
REMARK  9 active torsions:
REMARK  status: ('A' for Active; 'I' for Inactive)
REMARK    1  A    between atoms: C_1  and  O_2
REMARK    2  A    between atoms: O_2  and  C_3
REMARK    3  A    between atoms: C_6  and  N_7
REMARK    4  A    between atoms: C_8  and  C_9
REMARK    5  A    between atoms: C_12  and  C_13
REMARK    6  A    between atoms: C_16  and  O_17
REMARK    7  A    between atoms: O_17  and  C_18
REMARK    8  A    between atoms: C_23  and  S_24
REMARK    9  A    between atoms: S_24  and  C_25
REMARK                            x       y       z     vdW  Elec       q    Type
REMARK                         _______ _______ _______ _____ _____    ______ ____
ROOT
ATOM      1  C   UNL     1      -6.280   2.466 126.493  0.00  0.00    +0.000 A 
ATOM      2  C   UNL     1      -7.298   2.703 127.414  0.00  0.00    +0.000 A 
ATOM      3  N   UNL     1      -7.282   2.219 128.681  0.00  0.00    +0.000 NA
ATOM      4  C   UNL     1      -6.249   1.394 128.974  0.00  0.00    +0.000 A 
ATOM      5  C   UNL     1      -5.233   1.141 128.051  0.00  0.00    +0.000 A 
ATOM      6  N   UNL     1      -5.211   1.687 126.802  0.00  0.00    +0.000 NA
ENDROOT
BRANCH   1  12
ATOM      7  N   UNL     1      -6.773   2.561 124.025  0.00  0.00    +0.000 N 
ATOM      8  C   UNL     1      -6.428   3.454 123.012  0.00  0.00    +0.000 A 
ATOM      9  C   UNL     1      -6.806   3.410 121.573  0.00  0.00    +0.000 C 
ATOM     10  N   UNL     1      -5.785   4.472 123.542  0.00  0.00    +0.000 NA
ATOM     11  N   UNL     1      -5.683   4.274 124.894  0.00  0.00    +0.000 NA
ATOM     12  C   UNL     1      -6.254   3.131 125.189  0.00  0.00    +0.000 A 
BRANCH   7  16
ATOM     13  C   UNL     1      -8.964  -0.964 123.563  0.00  0.00    +0.000 A 
ATOM     14  C   UNL     1      -7.598  -0.998 123.333  0.00  0.00    +0.000 A 
ATOM     15  C   UNL     1      -6.854   0.171 123.529  0.00  0.00    +0.000 A 
ATOM     16  C   UNL     1      -7.487   1.338 123.977  0.00  0.00    +0.000 A 
ATOM     17  C   UNL     1      -8.862   1.296 124.137  0.00  0.00    +0.000 A 
ATOM     18  N   UNL     1      -9.603   0.172 123.934  0.00  0.00    +0.000 NA
BRANCH  13  20
ATOM     19  C   UNL     1      -9.299  -3.302 123.718  0.00  0.00    +0.000 C 
ATOM     20  O   UNL     1      -9.793  -2.026 123.316  0.00  0.00    +0.000 OA
ENDBRANCH  13  20
ENDBRANCH   7  16
ENDBRANCH   1  12
BRANCH   4  21
ATOM     21  O   UNL     1      -6.333   0.530 130.064  0.00  0.00    +0.000 OA
BRANCH  21  22
ATOM     22  C   UNL     1      -6.466  -0.817 129.795  0.00  0.00    +0.000 A 
ATOM     23  C   UNL     1      -7.799  -1.226 129.573  0.00  0.00    +0.000 A 
ATOM     24  C   UNL     1      -8.110  -2.556 129.287  0.00  0.00    +0.000 A 
ATOM     25  C   UNL     1      -7.088  -3.486 129.181  0.00  0.00    +0.000 A 
ATOM     26  C   UNL     1      -5.771  -3.098 129.448  0.00  0.00    +0.000 A 
ATOM     27  C   UNL     1      -5.429  -1.773 129.811  0.00  0.00    +0.000 A 
BRANCH  27  28
ATOM     28  S   UNL     1      -3.692  -1.639 130.293  0.00  0.00    +0.000 S 
ATOM     29  C   UNL     1      -3.661  -1.189 132.037  0.00  0.00    +0.000 C 
ENDBRANCH  27  28
ENDBRANCH  21  22
ENDBRANCH   4  21
TORSDOF 6
ENDMDL
MODEL 9
REMARK VINA RESULT:      -7.0      3.454      8.737
REMARK  Name = CHEMBL561520
REMARK  9 active torsions:
REMARK  status: ('A' for Active; 'I' for Inactive)
REMARK    1  A    between atoms: C_1  and  O_2
REMARK    2  A    between atoms: O_2  and  C_3
REMARK    3  A    between atoms: C_6  and  N_7
REMARK    4  A    between atoms: C_8  and  C_9
REMARK    5  A    between atoms: C_12  and  C_13
REMARK    6  A    between atoms: C_16  and  O_17
REMARK    7  A    between atoms: O_17  and  C_18
REMARK    8  A    between atoms: C_23  and  S_24
REMARK    9  A    between atoms: S_24  and  C_25
REMARK                            x       y       z     vdW  Elec       q    Type
REMARK                         _______ _______ _______ _____ _____    ______ ____
ROOT
ATOM      1  C   UNL     1      -7.656   2.283 129.780  0.00  0.00    +0.000 A 
ATOM      2  C   UNL     1      -8.608   1.747 128.917  0.00  0.00    +0.000 A 
ATOM      3  N   UNL     1      -8.361   1.480 127.609  0.00  0.00    +0.000 NA
ATOM      4  C   UNL     1      -7.144   1.865 127.160  0.00  0.00    +0.000 A 
ATOM      5  C   UNL     1      -6.189   2.415 128.017  0.00  0.00    +0.000 A 
ATOM      6  N   UNL     1      -6.413   2.615 129.347  0.00  0.00    +0.000 NA
ENDROOT
BRANCH   1  12
ATOM      7  N   UNL     1      -8.477   3.546 131.799  0.00  0.00    +0.000 N 
ATOM      8  C   UNL     1      -8.415   3.306 133.170  0.00  0.00    +0.000 A 
ATOM      9  C   UNL     1      -8.966   4.133 134.279  0.00  0.00    +0.000 C 
ATOM     10  N   UNL     1      -7.880   2.121 133.372  0.00  0.00    +0.000 NA
ATOM     11  N   UNL     1      -7.572   1.564 132.158  0.00  0.00    +0.000 NA
ATOM     12  C   UNL     1      -7.908   2.411 131.217  0.00  0.00    +0.000 A 
BRANCH   7  16
ATOM     13  C   UNL     1     -10.165   6.881 129.938  0.00  0.00    +0.000 A 
ATOM     14  C   UNL     1      -8.948   7.029 130.584  0.00  0.00    +0.000 A 
ATOM     15  C   UNL     1      -8.358   5.904 131.170  0.00  0.00    +0.000 A 
ATOM     16  C   UNL     1      -8.984   4.653 131.075  0.00  0.00    +0.000 A 
ATOM     17  C   UNL     1     -10.221   4.606 130.453  0.00  0.00    +0.000 A 
ATOM     18  N   UNL     1     -10.816   5.693 129.892  0.00  0.00    +0.000 NA
BRANCH  13  20
ATOM     19  C   UNL     1     -10.542   8.279 128.065  0.00  0.00    +0.000 C 
ATOM     20  O   UNL     1     -10.867   7.934 129.410  0.00  0.00    +0.000 OA
ENDBRANCH  13  20
ENDBRANCH   7  16
ENDBRANCH   1  12
BRANCH   4  21
ATOM     21  O   UNL     1      -6.922   2.024 125.793  0.00  0.00    +0.000 OA
BRANCH  21  22
ATOM     22  C   UNL     1      -7.072   0.908 124.993  0.00  0.00    +0.000 A 
ATOM     23  C   UNL     1      -6.059  -0.059 125.168  0.00  0.00    +0.000 A 
ATOM     24  C   UNL     1      -6.059  -1.248 124.437  0.00  0.00    +0.000 A 
ATOM     25  C   UNL     1      -7.095  -1.501 123.552  0.00  0.00    +0.000 A 
ATOM     26  C   UNL     1      -8.076  -0.527 123.339  0.00  0.00    +0.000 A 
ATOM     27  C   UNL     1      -8.065   0.719 124.010  0.00  0.00    +0.000 A 
BRANCH  27  28
ATOM     28  S   UNL     1      -9.334   1.835 123.368  0.00  0.00    +0.000 S 
ATOM     29  C   UNL     1      -8.505   3.011 122.284  0.00  0.00    +0.000 C 
ENDBRANCH  27  28
ENDBRANCH  21  22
ENDBRANCH   4  21
TORSDOF 6
ENDMDL
