MODEL 1
REMARK VINA RESULT:     -10.2      0.000      0.000
REMARK  Name = CHEMBL200729
REMARK  9 active torsions:
REMARK  status: ('A' for Active; 'I' for Inactive)
REMARK    1  A    between atoms: C_1  and  C_2
REMARK    2  A    between atoms: C_5  and  N_6
REMARK    3  A    between atoms: N_6  and  C_7
REMARK    4  A    between atoms: N_6  and  S_22
REMARK    5  A    between atoms: C_7  and  C_8
REMARK    6  A    between atoms: C_8  and  N_10
REMARK    7  A    between atoms: N_11  and  C_12
REMARK    8  A    between atoms: C_13  and  O_14
REMARK    9  A    between atoms: S_22  and  C_25
REMARK                            x       y       z     vdW  Elec       q    Type
REMARK                         _______ _______ _______ _____ _____    ______ ____
ROOT
ATOM      1  N   UNL     1      -6.824   3.125 127.557  0.00  0.00    +0.000 N 
ENDROOT
BRANCH   1   6
ATOM      2  C   UNL     1      -9.252   3.166 132.813  0.00  0.00    +0.000 C 
ATOM      3  C   UNL     1      -8.728   3.196 131.423  0.00  0.00    +0.000 A 
ATOM      4  C   UNL     1      -7.613   3.946 131.186  0.00  0.00    +0.000 A 
ATOM      5  C   UNL     1      -6.950   3.679 130.007  0.00  0.00    +0.000 A 
ATOM      6  C   UNL     1      -7.507   3.098 128.860  0.00  0.00    +0.000 A 
ATOM      7  C   UNL     1      -8.673   2.401 129.105  0.00  0.00    +0.000 A 
ATOM      8  C   UNL     1      -9.244   2.404 130.390  0.00  0.00    +0.000 A 
ENDBRANCH   1   6
BRANCH   1   9
ATOM      9  S   UNL     1      -5.817   1.709 127.106  0.00  0.00    +0.000 S 
ATOM     10  O   UNL     1      -4.779   2.233 126.239  0.00  0.00    +0.000 OA
ATOM     11  O   UNL     1      -5.448   1.022 128.331  0.00  0.00    +0.000 OA
BRANCH   9  12
ATOM     12  C   UNL     1      -6.707   0.466 126.126  0.00  0.00    +0.000 A 
ATOM     13  C   UNL     1      -7.734  -0.209 126.686  0.00  0.00    +0.000 A 
ATOM     14  C   UNL     1      -8.429  -1.237 126.110  0.00  0.00    +0.000 A 
ATOM     15  C   UNL     1      -7.800  -1.879 125.046  0.00  0.00    +0.000 A 
ATOM     16  C   UNL     1      -8.075  -3.280 124.771  0.00  0.00    +0.000 A 
ATOM     17  C   UNL     1      -9.356  -3.388 124.531  0.00  0.00    +0.000 A 
ATOM     18  C   UNL     1      -9.244  -2.849 123.271  0.00  0.00    +0.000 A 
ATOM     19  C   UNL     1      -8.001  -1.757 122.972  0.00  0.00    +0.000 A 
ATOM     20  C   UNL     1      -7.396  -1.035 124.135  0.00  0.00    +0.000 A 
ATOM     21  C   UNL     1      -6.517   0.155 124.742  0.00  0.00    +0.000 A 
ENDBRANCH   9  12
ENDBRANCH   1   9
BRANCH   1  22
ATOM     22  C   UNL     1      -7.124   4.242 126.600  0.00  0.00    +0.000 C 
BRANCH  22  23
ATOM     23  C   UNL     1      -8.433   4.549 125.890  0.00  0.00    +0.000 C 
ATOM     24  O   UNL     1      -8.841   3.768 125.027  0.00  0.00    +0.000 OA
BRANCH  23  25
ATOM     25  N   UNL     1      -9.048   5.789 126.067  0.00  0.00    +0.000 NA
ATOM     26  N   UNL     1      -9.261   5.885 127.307  0.00  0.00    +0.000 NA
BRANCH  26  27
ATOM     27  C   UNL     1     -10.315   6.685 127.739  0.00  0.00    +0.000 A 
ATOM     28  C   UNL     1     -10.903   7.645 126.950  0.00  0.00    +0.000 A 
ATOM     29  N   UNL     1     -11.899   8.218 127.701  0.00  0.00    +0.000 N 
ATOM     30  C   UNL     1     -11.897   7.702 128.985  0.00  0.00    +0.000 A 
ATOM     31  C   UNL     1     -12.728   7.964 130.086  0.00  0.00    +0.000 A 
ATOM     32  C   UNL     1     -12.467   7.278 131.279  0.00  0.00    +0.000 A 
ATOM     33  C   UNL     1     -11.402   6.387 131.379  0.00  0.00    +0.000 A 
ATOM     34  C   UNL     1     -10.583   6.137 130.275  0.00  0.00    +0.000 A 
ATOM     35  C   UNL     1     -10.853   6.773 129.047  0.00  0.00    +0.000 A 
ATOM     36  H   UNL     1     -12.548   8.906 127.348  0.00  0.00    +0.000 HD
BRANCH  28  37
ATOM     37  O   UNL     1     -10.689   8.027 125.695  0.00  0.00    +0.000 OA
ATOM     38  H   UNL     1     -11.484   8.520 125.410  0.00  0.00    +0.000 HD
ENDBRANCH  28  37
ENDBRANCH  26  27
ENDBRANCH  23  25
ENDBRANCH  22  23
ENDBRANCH   1  22
TORSDOF 8
ENDMDL
MODEL 2
REMARK VINA RESULT:     -10.1      2.721      4.715
REMARK  Name = CHEMBL200729
REMARK  9 active torsions:
REMARK  status: ('A' for Active; 'I' for Inactive)
REMARK    1  A    between atoms: C_1  and  C_2
REMARK    2  A    between atoms: C_5  and  N_6
REMARK    3  A    between atoms: N_6  and  C_7
REMARK    4  A    between atoms: N_6  and  S_22
REMARK    5  A    between atoms: C_7  and  C_8
REMARK    6  A    between atoms: C_8  and  N_10
REMARK    7  A    between atoms: N_11  and  C_12
REMARK    8  A    between atoms: C_13  and  O_14
REMARK    9  A    between atoms: S_22  and  C_25
REMARK                            x       y       z     vdW  Elec       q    Type
REMARK                         _______ _______ _______ _____ _____    ______ ____
ROOT
ATOM      1  N   UNL     1      -7.611   2.818 125.940  0.00  0.00    +0.000 N 
ENDROOT
BRANCH   1   6
ATOM      2  C   UNL     1      -6.817   3.933 120.315  0.00  0.00    +0.000 C 
ATOM      3  C   UNL     1      -7.049   3.540 121.728  0.00  0.00    +0.000 A 
ATOM      4  C   UNL     1      -6.009   3.681 122.601  0.00  0.00    +0.000 A 
ATOM      5  C   UNL     1      -6.341   3.657 123.938  0.00  0.00    +0.000 A 
ATOM      6  C   UNL     1      -7.482   3.065 124.495  0.00  0.00    +0.000 A 
ATOM      7  C   UNL     1      -8.500   2.864 123.584  0.00  0.00    +0.000 A 
ATOM      8  C   UNL     1      -8.301   3.154 122.223  0.00  0.00    +0.000 A 
ENDBRANCH   1   6
BRANCH   1   9
ATOM      9  S   UNL     1      -8.330   1.260 126.465  0.00  0.00    +0.000 S 
ATOM     10  O   UNL     1      -8.108   1.194 127.896  0.00  0.00    +0.000 OA
ATOM     11  O   UNL     1      -9.686   1.203 125.947  0.00  0.00    +0.000 OA
BRANCH   9  12
ATOM     12  C   UNL     1      -7.504  -0.197 125.762  0.00  0.00    +0.000 A 
ATOM     13  C   UNL     1      -6.160  -0.197 125.627  0.00  0.00    +0.000 A 
ATOM     14  C   UNL     1      -5.413  -1.172 125.027  0.00  0.00    +0.000 A 
ATOM     15  C   UNL     1      -6.100  -2.029 124.170  0.00  0.00    +0.000 A 
ATOM     16  C   UNL     1      -5.414  -2.647 123.047  0.00  0.00    +0.000 A 
ATOM     17  C   UNL     1      -4.432  -3.360 123.532  0.00  0.00    +0.000 A 
ATOM     18  C   UNL     1      -5.269  -4.362 123.963  0.00  0.00    +0.000 A 
ATOM     19  C   UNL     1      -6.852  -3.966 124.371  0.00  0.00    +0.000 A 
ATOM     20  C   UNL     1      -7.155  -2.547 124.739  0.00  0.00    +0.000 A 
ATOM     21  C   UNL     1      -8.106  -1.444 125.400  0.00  0.00    +0.000 A 
ENDBRANCH   9  12
ENDBRANCH   1   9
BRANCH   1  22
ATOM     22  C   UNL     1      -6.993   3.789 126.903  0.00  0.00    +0.000 C 
BRANCH  22  23
ATOM     23  C   UNL     1      -7.515   4.233 128.260  0.00  0.00    +0.000 C 
ATOM     24  O   UNL     1      -7.006   3.761 129.279  0.00  0.00    +0.000 OA
BRANCH  23  25
ATOM     25  N   UNL     1      -8.679   5.000 128.343  0.00  0.00    +0.000 NA
ATOM     26  N   UNL     1      -8.641   5.548 129.478  0.00  0.00    +0.000 NA
BRANCH  26  27
ATOM     27  C   UNL     1      -9.843   5.898 130.085  0.00  0.00    +0.000 A 
ATOM     28  C   UNL     1     -10.410   5.172 131.106  0.00  0.00    +0.000 A 
ATOM     29  N   UNL     1     -11.571   5.816 131.453  0.00  0.00    +0.000 N 
ATOM     30  C   UNL     1     -11.801   6.890 130.610  0.00  0.00    +0.000 A 
ATOM     31  C   UNL     1     -12.835   7.839 130.586  0.00  0.00    +0.000 A 
ATOM     32  C   UNL     1     -12.798   8.820 129.586  0.00  0.00    +0.000 A 
ATOM     33  C   UNL     1     -11.786   8.836 128.631  0.00  0.00    +0.000 A 
ATOM     34  C   UNL     1     -10.764   7.884 128.667  0.00  0.00    +0.000 A 
ATOM     35  C   UNL     1     -10.746   6.917 129.692  0.00  0.00    +0.000 A 
ATOM     36  H   UNL     1     -12.159   5.545 132.228  0.00  0.00    +0.000 HD
BRANCH  28  37
ATOM     37  O   UNL     1     -10.017   4.080 131.753  0.00  0.00    +0.000 OA
ATOM     38  H   UNL     1     -10.824   3.648 132.097  0.00  0.00    +0.000 HD
ENDBRANCH  28  37
ENDBRANCH  26  27
ENDBRANCH  23  25
ENDBRANCH  22  23
ENDBRANCH   1  22
TORSDOF 8
ENDMDL
MODEL 3
REMARK VINA RESULT:     -10.0      3.192      5.855
REMARK  Name = CHEMBL200729
REMARK  9 active torsions:
REMARK  status: ('A' for Active; 'I' for Inactive)
REMARK    1  A    between atoms: C_1  and  C_2
REMARK    2  A    between atoms: C_5  and  N_6
REMARK    3  A    between atoms: N_6  and  C_7
REMARK    4  A    between atoms: N_6  and  S_22
REMARK    5  A    between atoms: C_7  and  C_8
REMARK    6  A    between atoms: C_8  and  N_10
REMARK    7  A    between atoms: N_11  and  C_12
REMARK    8  A    between atoms: C_13  and  O_14
REMARK    9  A    between atoms: S_22  and  C_25
REMARK                            x       y       z     vdW  Elec       q    Type
REMARK                         _______ _______ _______ _____ _____    ______ ____
ROOT
ATOM      1  N   UNL     1      -8.043   2.297 124.342  0.00  0.00    +0.000 N 
ENDROOT
BRANCH   1   6
ATOM      2  C   UNL     1      -7.243   4.399 119.007  0.00  0.00    +0.000 C 
ATOM      3  C   UNL     1      -7.393   3.951 120.416  0.00  0.00    +0.000 A 
ATOM      4  C   UNL     1      -8.659   3.754 120.884  0.00  0.00    +0.000 A 
ATOM      5  C   UNL     1      -8.762   3.012 122.040  0.00  0.00    +0.000 A 
ATOM      6  C   UNL     1      -7.761   2.844 123.006  0.00  0.00    +0.000 A 
ATOM      7  C   UNL     1      -6.491   3.116 122.536  0.00  0.00    +0.000 A 
ATOM      8  C   UNL     1      -6.308   3.610 121.233  0.00  0.00    +0.000 A 
ENDBRANCH   1   6
BRANCH   1   9
ATOM      9  S   UNL     1      -8.808   0.676 124.442  0.00  0.00    +0.000 S 
ATOM     10  O   UNL     1     -10.200   0.924 124.764  0.00  0.00    +0.000 OA
ATOM     11  O   UNL     1      -8.470  -0.046 123.229  0.00  0.00    +0.000 OA
BRANCH   9  12
ATOM     12  C   UNL     1      -8.158  -0.352 125.791  0.00  0.00    +0.000 A 
ATOM     13  C   UNL     1      -8.663  -1.590 125.985  0.00  0.00    +0.000 A 
ATOM     14  C   UNL     1      -8.347  -2.435 127.012  0.00  0.00    +0.000 A 
ATOM     15  C   UNL     1      -7.764  -1.845 128.131  0.00  0.00    +0.000 A 
ATOM     16  C   UNL     1      -7.953  -2.430 129.449  0.00  0.00    +0.000 A 
ATOM     17  C   UNL     1      -7.472  -3.645 129.410  0.00  0.00    +0.000 A 
ATOM     18  C   UNL     1      -6.168  -3.213 129.455  0.00  0.00    +0.000 A 
ATOM     19  C   UNL     1      -5.800  -1.699 128.822  0.00  0.00    +0.000 A 
ATOM     20  C   UNL     1      -6.735  -1.106 127.815  0.00  0.00    +0.000 A 
ATOM     21  C   UNL     1      -7.064  -0.048 126.662  0.00  0.00    +0.000 A 
ENDBRANCH   9  12
ENDBRANCH   1   9
BRANCH   1  22
ATOM     22  C   UNL     1      -7.538   3.029 125.551  0.00  0.00    +0.000 C 
BRANCH  22  23
ATOM     23  C   UNL     1      -7.649   4.511 125.872  0.00  0.00    +0.000 C 
ATOM     24  O   UNL     1      -6.898   5.303 125.298  0.00  0.00    +0.000 OA
BRANCH  23  25
ATOM     25  N   UNL     1      -8.441   4.936 126.940  0.00  0.00    +0.000 NA
ATOM     26  N   UNL     1      -7.826   4.573 127.980  0.00  0.00    +0.000 NA
BRANCH  26  27
ATOM     27  C   UNL     1      -8.562   4.334 129.136  0.00  0.00    +0.000 A 
ATOM     28  C   UNL     1      -9.241   5.319 129.813  0.00  0.00    +0.000 A 
ATOM     29  N   UNL     1      -9.850   4.715 130.885  0.00  0.00    +0.000 N 
ATOM     30  C   UNL     1      -9.498   3.378 130.954  0.00  0.00    +0.000 A 
ATOM     31  C   UNL     1      -9.880   2.369 131.851  0.00  0.00    +0.000 A 
ATOM     32  C   UNL     1      -9.339   1.090 131.664  0.00  0.00    +0.000 A 
ATOM     33  C   UNL     1      -8.430   0.835 130.641  0.00  0.00    +0.000 A 
ATOM     34  C   UNL     1      -8.059   1.851 129.756  0.00  0.00    +0.000 A 
ATOM     35  C   UNL     1      -8.627   3.133 129.887  0.00  0.00    +0.000 A 
ATOM     36  H   UNL     1     -10.479   5.188 131.518  0.00  0.00    +0.000 HD
BRANCH  28  37
ATOM     37  O   UNL     1      -9.399   6.618 129.581  0.00  0.00    +0.000 OA
ATOM     38  H   UNL     1      -9.005   7.091 130.342  0.00  0.00    +0.000 HD
ENDBRANCH  28  37
ENDBRANCH  26  27
ENDBRANCH  23  25
ENDBRANCH  22  23
ENDBRANCH   1  22
TORSDOF 8
ENDMDL
MODEL 4
REMARK VINA RESULT:      -9.9      3.910      7.272
REMARK  Name = CHEMBL200729
REMARK  9 active torsions:
REMARK  status: ('A' for Active; 'I' for Inactive)
REMARK    1  A    between atoms: C_1  and  C_2
REMARK    2  A    between atoms: C_5  and  N_6
REMARK    3  A    between atoms: N_6  and  C_7
REMARK    4  A    between atoms: N_6  and  S_22
REMARK    5  A    between atoms: C_7  and  C_8
REMARK    6  A    between atoms: C_8  and  N_10
REMARK    7  A    between atoms: N_11  and  C_12
REMARK    8  A    between atoms: C_13  and  O_14
REMARK    9  A    between atoms: S_22  and  C_25
REMARK                            x       y       z     vdW  Elec       q    Type
REMARK                         _______ _______ _______ _____ _____    ______ ____
ROOT
ATOM      1  N   UNL     1      -8.909   2.638 123.498  0.00  0.00    +0.000 N 
ENDROOT
BRANCH   1   6
ATOM      2  C   UNL     1      -6.888   4.573 118.430  0.00  0.00    +0.000 C 
ATOM      3  C   UNL     1      -7.351   4.163 119.781  0.00  0.00    +0.000 A 
ATOM      4  C   UNL     1      -8.698   4.092 119.991  0.00  0.00    +0.000 A 
ATOM      5  C   UNL     1      -9.094   3.381 121.103  0.00  0.00    +0.000 A 
ATOM      6  C   UNL     1      -8.321   3.135 122.245  0.00  0.00    +0.000 A 
ATOM      7  C   UNL     1      -6.964   3.280 122.034  0.00  0.00    +0.000 A 
ATOM      8  C   UNL     1      -6.484   3.734 120.793  0.00  0.00    +0.000 A 
ENDBRANCH   1   6
BRANCH   1   9
ATOM      9  S   UNL     1      -9.660   1.007 123.485  0.00  0.00    +0.000 S 
ATOM     10  O   UNL     1     -10.512   0.964 124.658  0.00  0.00    +0.000 OA
ATOM     11  O   UNL     1     -10.240   0.799 122.170  0.00  0.00    +0.000 OA
BRANCH   9  12
ATOM     12  C   UNL     1      -8.465  -0.346 123.684  0.00  0.00    +0.000 A 
ATOM     13  C   UNL     1      -7.156  -0.057 123.849  0.00  0.00    +0.000 A 
ATOM     14  C   UNL     1      -6.135  -0.963 123.911  0.00  0.00    +0.000 A 
ATOM     15  C   UNL     1      -6.407  -2.227 123.393  0.00  0.00    +0.000 A 
ATOM     16  C   UNL     1      -5.337  -3.033 122.828  0.00  0.00    +0.000 A 
ATOM     17  C   UNL     1      -4.454  -3.230 123.771  0.00  0.00    +0.000 A 
ATOM     18  C   UNL     1      -5.232  -4.166 124.411  0.00  0.00    +0.000 A 
ATOM     19  C   UNL     1      -6.904  -4.060 124.261  0.00  0.00    +0.000 A 
ATOM     20  C   UNL     1      -7.500  -2.736 123.895  0.00  0.00    +0.000 A 
ATOM     21  C   UNL     1      -8.750  -1.745 123.789  0.00  0.00    +0.000 A 
ENDBRANCH   9  12
ENDBRANCH   1   9
BRANCH   1  22
ATOM     22  C   UNL     1      -8.714   3.428 124.759  0.00  0.00    +0.000 C 
BRANCH  22  23
ATOM     23  C   UNL     1      -7.640   3.258 125.822  0.00  0.00    +0.000 C 
ATOM     24  O   UNL     1      -6.456   3.266 125.480  0.00  0.00    +0.000 OA
BRANCH  23  25
ATOM     25  N   UNL     1      -7.998   2.899 127.122  0.00  0.00    +0.000 NA
ATOM     26  N   UNL     1      -7.148   2.037 127.479  0.00  0.00    +0.000 NA
BRANCH  26  27
ATOM     27  C   UNL     1      -7.518   1.099 128.438  0.00  0.00    +0.000 A 
ATOM     28  C   UNL     1      -7.975   1.441 129.688  0.00  0.00    +0.000 A 
ATOM     29  N   UNL     1      -8.246   0.266 130.345  0.00  0.00    +0.000 N 
ATOM     30  C   UNL     1      -7.884  -0.820 129.568  0.00  0.00    +0.000 A 
ATOM     31  C   UNL     1      -7.986  -2.200 129.806  0.00  0.00    +0.000 A 
ATOM     32  C   UNL     1      -7.516  -3.070 128.814  0.00  0.00    +0.000 A 
ATOM     33  C   UNL     1      -6.942  -2.584 127.643  0.00  0.00    +0.000 A 
ATOM     34  C   UNL     1      -6.846  -1.207 127.420  0.00  0.00    +0.000 A 
ATOM     35  C   UNL     1      -7.357  -0.308 128.377  0.00  0.00    +0.000 A 
ATOM     36  H   UNL     1      -8.667   0.215 131.262  0.00  0.00    +0.000 HD
BRANCH  28  37
ATOM     37  O   UNL     1      -8.199   2.615 130.269  0.00  0.00    +0.000 OA
ATOM     38  H   UNL     1      -8.004   3.303 129.601  0.00  0.00    +0.000 HD
ENDBRANCH  28  37
ENDBRANCH  26  27
ENDBRANCH  23  25
ENDBRANCH  22  23
ENDBRANCH   1  22
TORSDOF 8
ENDMDL
MODEL 5
REMARK VINA RESULT:      -9.8      3.636      6.933
REMARK  Name = CHEMBL200729
REMARK  9 active torsions:
REMARK  status: ('A' for Active; 'I' for Inactive)
REMARK    1  A    between atoms: C_1  and  C_2
REMARK    2  A    between atoms: C_5  and  N_6
REMARK    3  A    between atoms: N_6  and  C_7
REMARK    4  A    between atoms: N_6  and  S_22
REMARK    5  A    between atoms: C_7  and  C_8
REMARK    6  A    between atoms: C_8  and  N_10
REMARK    7  A    between atoms: N_11  and  C_12
REMARK    8  A    between atoms: C_13  and  O_14
REMARK    9  A    between atoms: S_22  and  C_25
REMARK                            x       y       z     vdW  Elec       q    Type
REMARK                         _______ _______ _______ _____ _____    ______ ____
ROOT
ATOM      1  N   UNL     1      -6.796   4.092 128.486  0.00  0.00    +0.000 N 
ENDROOT
BRANCH   1   6
ATOM      2  C   UNL     1      -1.524   3.152 126.288  0.00  0.00    +0.000 C 
ATOM      3  C   UNL     1      -2.854   3.311 126.929  0.00  0.00    +0.000 A 
ATOM      4  C   UNL     1      -3.172   4.542 127.426  0.00  0.00    +0.000 A 
ATOM      5  C   UNL     1      -4.509   4.759 127.681  0.00  0.00    +0.000 A 
ATOM      6  C   UNL     1      -5.473   3.773 127.928  0.00  0.00    +0.000 A 
ATOM      7  C   UNL     1      -5.107   2.519 127.482  0.00  0.00    +0.000 A 
ATOM      8  C   UNL     1      -3.829   2.306 126.934  0.00  0.00    +0.000 A 
ENDBRANCH   1   6
BRANCH   1   9
ATOM      9  S   UNL     1      -6.864   4.811 130.130  0.00  0.00    +0.000 S 
ATOM     10  O   UNL     1      -7.498   6.104 129.961  0.00  0.00    +0.000 OA
ATOM     11  O   UNL     1      -7.462   3.828 131.016  0.00  0.00    +0.000 OA
BRANCH   9  12
ATOM     12  C   UNL     1      -5.228   5.146 130.846  0.00  0.00    +0.000 A 
ATOM     13  C   UNL     1      -4.855   6.422 131.080  0.00  0.00    +0.000 A 
ATOM     14  C   UNL     1      -3.626   6.832 131.518  0.00  0.00    +0.000 A 
ATOM     15  C   UNL     1      -2.583   5.925 131.348  0.00  0.00    +0.000 A 
ATOM     16  C   UNL     1      -1.221   6.402 131.167  0.00  0.00    +0.000 A 
ATOM     17  C   UNL     1      -0.904   7.097 132.228  0.00  0.00    +0.000 A 
ATOM     18  C   UNL     1      -0.731   5.976 133.005  0.00  0.00    +0.000 A 
ATOM     19  C   UNL     1      -1.612   4.593 132.629  0.00  0.00    +0.000 A 
ATOM     20  C   UNL     1      -2.872   4.749 131.837  0.00  0.00    +0.000 A 
ATOM     21  C   UNL     1      -4.271   4.186 131.304  0.00  0.00    +0.000 A 
ENDBRANCH   9  12
ENDBRANCH   1   9
BRANCH   1  22
ATOM     22  C   UNL     1      -8.007   3.964 127.609  0.00  0.00    +0.000 C 
BRANCH  22  23
ATOM     23  C   UNL     1      -8.282   4.640 126.275  0.00  0.00    +0.000 C 
ATOM     24  O   UNL     1      -7.661   4.264 125.278  0.00  0.00    +0.000 OA
BRANCH  23  25
ATOM     25  N   UNL     1      -9.068   5.792 126.225  0.00  0.00    +0.000 NA
ATOM     26  N   UNL     1      -9.277   6.109 127.429  0.00  0.00    +0.000 NA
BRANCH  26  27
ATOM     27  C   UNL     1     -10.430   6.825 127.735  0.00  0.00    +0.000 A 
ATOM     28  C   UNL     1     -11.056   7.662 126.841  0.00  0.00    +0.000 A 
ATOM     29  N   UNL     1     -12.151   8.181 127.486  0.00  0.00    +0.000 N 
ATOM     30  C   UNL     1     -12.183   7.761 128.804  0.00  0.00    +0.000 A 
ATOM     31  C   UNL     1     -13.106   8.014 129.831  0.00  0.00    +0.000 A 
ATOM     32  C   UNL     1     -12.859   7.445 131.086  0.00  0.00    +0.000 A 
ATOM     33  C   UNL     1     -11.721   6.677 131.317  0.00  0.00    +0.000 A 
ATOM     34  C   UNL     1     -10.810   6.435 130.285  0.00  0.00    +0.000 A 
ATOM     35  C   UNL     1     -11.060   6.951 128.998  0.00  0.00    +0.000 A 
ATOM     36  H   UNL     1     -12.839   8.773 127.043  0.00  0.00    +0.000 HD
BRANCH  28  37
ATOM     37  O   UNL     1     -10.797   7.973 125.575  0.00  0.00    +0.000 OA
ATOM     38  H   UNL     1     -10.530   7.145 125.129  0.00  0.00    +0.000 HD
ENDBRANCH  28  37
ENDBRANCH  26  27
ENDBRANCH  23  25
ENDBRANCH  22  23
ENDBRANCH   1  22
TORSDOF 8
ENDMDL
MODEL 6
REMARK VINA RESULT:      -9.7      4.133      8.293
REMARK  Name = CHEMBL200729
REMARK  9 active torsions:
REMARK  status: ('A' for Active; 'I' for Inactive)
REMARK    1  A    between atoms: C_1  and  C_2
REMARK    2  A    between atoms: C_5  and  N_6
REMARK    3  A    between atoms: N_6  and  C_7
REMARK    4  A    between atoms: N_6  and  S_22
REMARK    5  A    between atoms: C_7  and  C_8
REMARK    6  A    between atoms: C_8  and  N_10
REMARK    7  A    between atoms: N_11  and  C_12
REMARK    8  A    between atoms: C_13  and  O_14
REMARK    9  A    between atoms: S_22  and  C_25
REMARK                            x       y       z     vdW  Elec       q    Type
REMARK                         _______ _______ _______ _____ _____    ______ ____
ROOT
ATOM      1  N   UNL     1     -10.046   5.037 131.165  0.00  0.00    +0.000 N 
ENDROOT
BRANCH   1   6
ATOM      2  C   UNL     1     -13.045   9.490 128.999  0.00  0.00    +0.000 C 
ATOM      3  C   UNL     1     -12.192   8.421 129.579  0.00  0.00    +0.000 A 
ATOM      4  C   UNL     1     -12.698   7.709 130.627  0.00  0.00    +0.000 A 
ATOM      5  C   UNL     1     -12.061   6.519 130.907  0.00  0.00    +0.000 A 
ATOM      6  C   UNL     1     -10.741   6.191 130.573  0.00  0.00    +0.000 A 
ATOM      7  C   UNL     1     -10.218   6.968 129.558  0.00  0.00    +0.000 A 
ATOM      8  C   UNL     1     -10.963   8.036 129.028  0.00  0.00    +0.000 A 
ENDBRANCH   1   6
BRANCH   1   9
ATOM      9  S   UNL     1      -8.946   5.339 132.552  0.00  0.00    +0.000 S 
ATOM     10  O   UNL     1      -9.509   6.476 133.252  0.00  0.00    +0.000 OA
ATOM     11  O   UNL     1      -8.767   4.080 133.254  0.00  0.00    +0.000 OA
BRANCH   9  12
ATOM     12  C   UNL     1      -7.271   5.835 132.056  0.00  0.00    +0.000 A 
ATOM     13  C   UNL     1      -6.206   5.183 132.569  0.00  0.00    +0.000 A 
ATOM     14  C   UNL     1      -4.892   5.506 132.369  0.00  0.00    +0.000 A 
ATOM     15  C   UNL     1      -4.643   6.803 131.926  0.00  0.00    +0.000 A 
ATOM     16  C   UNL     1      -3.392   7.463 132.263  0.00  0.00    +0.000 A 
ATOM     17  C   UNL     1      -2.421   6.739 131.771  0.00  0.00    +0.000 A 
ATOM     18  C   UNL     1      -2.652   7.165 130.485  0.00  0.00    +0.000 A 
ATOM     19  C   UNL     1      -4.211   7.627 130.058  0.00  0.00    +0.000 A 
ATOM     20  C   UNL     1      -5.353   7.106 130.874  0.00  0.00    +0.000 A 
ATOM     21  C   UNL     1      -6.912   6.813 131.074  0.00  0.00    +0.000 A 
ENDBRANCH   9  12
ENDBRANCH   1   9
BRANCH   1  22
ATOM     22  C   UNL     1     -10.407   3.655 130.705  0.00  0.00    +0.000 C 
BRANCH  22  23
ATOM     23  C   UNL     1      -9.481   2.479 130.436  0.00  0.00    +0.000 C 
ATOM     24  O   UNL     1      -9.311   1.639 131.322  0.00  0.00    +0.000 OA
BRANCH  23  25
ATOM     25  N   UNL     1      -8.688   2.465 129.288  0.00  0.00    +0.000 NA
ATOM     26  N   UNL     1      -7.582   2.963 129.636  0.00  0.00    +0.000 NA
BRANCH  26  27
ATOM     27  C   UNL     1      -6.806   3.596 128.670  0.00  0.00    +0.000 A 
ATOM     28  C   UNL     1      -7.306   4.015 127.460  0.00  0.00    +0.000 A 
ATOM     29  N   UNL     1      -6.263   4.595 126.781  0.00  0.00    +0.000 N 
ATOM     30  C   UNL     1      -5.087   4.472 127.500  0.00  0.00    +0.000 A 
ATOM     31  C   UNL     1      -3.785   4.918 127.223  0.00  0.00    +0.000 A 
ATOM     32  C   UNL     1      -2.783   4.628 128.158  0.00  0.00    +0.000 A 
ATOM     33  C   UNL     1      -3.061   3.897 129.309  0.00  0.00    +0.000 A 
ATOM     34  C   UNL     1      -4.362   3.458 129.570  0.00  0.00    +0.000 A 
ATOM     35  C   UNL     1      -5.401   3.780 128.675  0.00  0.00    +0.000 A 
ATOM     36  H   UNL     1      -6.358   5.060 125.889  0.00  0.00    +0.000 HD
BRANCH  28  37
ATOM     37  O   UNL     1      -8.525   3.974 126.932  0.00  0.00    +0.000 OA
ATOM     38  H   UNL     1      -8.917   4.861 127.056  0.00  0.00    +0.000 HD
ENDBRANCH  28  37
ENDBRANCH  26  27
ENDBRANCH  23  25
ENDBRANCH  22  23
ENDBRANCH   1  22
TORSDOF 8
ENDMDL
MODEL 7
REMARK VINA RESULT:      -9.6      1.898      2.711
REMARK  Name = CHEMBL200729
REMARK  9 active torsions:
REMARK  status: ('A' for Active; 'I' for Inactive)
REMARK    1  A    between atoms: C_1  and  C_2
REMARK    2  A    between atoms: C_5  and  N_6
REMARK    3  A    between atoms: N_6  and  C_7
REMARK    4  A    between atoms: N_6  and  S_22
REMARK    5  A    between atoms: C_7  and  C_8
REMARK    6  A    between atoms: C_8  and  N_10
REMARK    7  A    between atoms: N_11  and  C_12
REMARK    8  A    between atoms: C_13  and  O_14
REMARK    9  A    between atoms: S_22  and  C_25
REMARK                            x       y       z     vdW  Elec       q    Type
REMARK                         _______ _______ _______ _____ _____    ______ ____
ROOT
ATOM      1  N   UNL     1      -6.034   3.846 126.946  0.00  0.00    +0.000 N 
ENDROOT
BRANCH   1   6
ATOM      2  C   UNL     1      -2.006   6.455 130.184  0.00  0.00    +0.000 C 
ATOM      3  C   UNL     1      -3.114   5.807 129.437  0.00  0.00    +0.000 A 
ATOM      4  C   UNL     1      -3.416   6.302 128.201  0.00  0.00    +0.000 A 
ATOM      5  C   UNL     1      -4.179   5.483 127.397  0.00  0.00    +0.000 A 
ATOM      6  C   UNL     1      -5.036   4.464 127.833  0.00  0.00    +0.000 A 
ATOM      7  C   UNL     1      -4.763   4.023 129.113  0.00  0.00    +0.000 A 
ATOM      8  C   UNL     1      -3.771   4.654 129.883  0.00  0.00    +0.000 A 
ENDBRANCH   1   6
BRANCH   1   9
ATOM      9  S   UNL     1      -5.470   2.594 125.790  0.00  0.00    +0.000 S 
ATOM     10  O   UNL     1      -5.605   3.191 124.476  0.00  0.00    +0.000 OA
ATOM     11  O   UNL     1      -4.167   2.135 126.239  0.00  0.00    +0.000 OA
BRANCH   9  12
ATOM     12  C   UNL     1      -6.506   1.102 125.772  0.00  0.00    +0.000 A 
ATOM     13  C   UNL     1      -6.901   0.553 126.940  0.00  0.00    +0.000 A 
ATOM     14  C   UNL     1      -7.593  -0.617 127.086  0.00  0.00    +0.000 A 
ATOM     15  C   UNL     1      -7.558  -1.487 125.998  0.00  0.00    +0.000 A 
ATOM     16  C   UNL     1      -7.674  -2.921 126.204  0.00  0.00    +0.000 A 
ATOM     17  C   UNL     1      -8.825  -3.142 126.785  0.00  0.00    +0.000 A 
ATOM     18  C   UNL     1      -9.536  -2.945 125.625  0.00  0.00    +0.000 A 
ATOM     19  C   UNL     1      -8.898  -1.917 124.456  0.00  0.00    +0.000 A 
ATOM     20  C   UNL     1      -7.894  -0.892 124.885  0.00  0.00    +0.000 A 
ATOM     21  C   UNL     1      -7.066   0.450 124.626  0.00  0.00    +0.000 A 
ENDBRANCH   9  12
ENDBRANCH   1   9
BRANCH   1  22
ATOM     22  C   UNL     1      -7.487   4.159 127.153  0.00  0.00    +0.000 C 
BRANCH  22  23
ATOM     23  C   UNL     1      -8.512   4.607 126.123  0.00  0.00    +0.000 C 
ATOM     24  O   UNL     1      -8.658   3.937 125.098  0.00  0.00    +0.000 OA
BRANCH  23  25
ATOM     25  N   UNL     1      -9.122   5.856 126.244  0.00  0.00    +0.000 NA
ATOM     26  N   UNL     1      -9.365   5.994 127.475  0.00  0.00    +0.000 NA
BRANCH  26  27
ATOM     27  C   UNL     1     -10.424   6.815 127.853  0.00  0.00    +0.000 A 
ATOM     28  C   UNL     1     -10.980   7.758 127.022  0.00  0.00    +0.000 A 
ATOM     29  N   UNL     1     -11.992   8.359 127.727  0.00  0.00    +0.000 N 
ATOM     30  C   UNL     1     -12.032   7.879 129.024  0.00  0.00    +0.000 A 
ATOM     31  C   UNL     1     -12.892   8.178 130.093  0.00  0.00    +0.000 A 
ATOM     32  C   UNL     1     -12.672   7.523 131.311  0.00  0.00    +0.000 A 
ATOM     33  C   UNL     1     -11.619   6.626 131.467  0.00  0.00    +0.000 A 
ATOM     34  C   UNL     1     -10.770   6.339 130.394  0.00  0.00    +0.000 A 
ATOM     35  C   UNL     1     -10.999   6.943 129.142  0.00  0.00    +0.000 A 
ATOM     36  H   UNL     1     -12.624   9.043 127.337  0.00  0.00    +0.000 HD
BRANCH  28  37
ATOM     37  O   UNL     1     -10.726   8.103 125.764  0.00  0.00    +0.000 OA
ATOM     38  H   UNL     1     -10.518   9.059 125.769  0.00  0.00    +0.000 HD
ENDBRANCH  28  37
ENDBRANCH  26  27
ENDBRANCH  23  25
ENDBRANCH  22  23
ENDBRANCH   1  22
TORSDOF 8
ENDMDL
MODEL 8
REMARK VINA RESULT:      -9.6      2.382      3.178
REMARK  Name = CHEMBL200729
REMARK  9 active torsions:
REMARK  status: ('A' for Active; 'I' for Inactive)
REMARK    1  A    between atoms: C_1  and  C_2
REMARK    2  A    between atoms: C_5  and  N_6
REMARK    3  A    between atoms: N_6  and  C_7
REMARK    4  A    between atoms: N_6  and  S_22
REMARK    5  A    between atoms: C_7  and  C_8
REMARK    6  A    between atoms: C_8  and  N_10
REMARK    7  A    between atoms: N_11  and  C_12
REMARK    8  A    between atoms: C_13  and  O_14
REMARK    9  A    between atoms: S_22  and  C_25
REMARK                            x       y       z     vdW  Elec       q    Type
REMARK                         _______ _______ _______ _____ _____    ______ ____
ROOT
ATOM      1  N   UNL     1      -7.722   2.784 127.735  0.00  0.00    +0.000 N 
ENDROOT
BRANCH   1   6
ATOM      2  C   UNL     1      -8.828   3.006 133.413  0.00  0.00    +0.000 C 
ATOM      3  C   UNL     1      -8.629   3.025 131.941  0.00  0.00    +0.000 A 
ATOM      4  C   UNL     1      -7.399   3.389 131.475  0.00  0.00    +0.000 A 
ATOM      5  C   UNL     1      -7.133   3.058 130.164  0.00  0.00    +0.000 A 
ATOM      6  C   UNL     1      -8.083   2.831 129.160  0.00  0.00    +0.000 A 
ATOM      7  C   UNL     1      -9.340   2.533 129.647  0.00  0.00    +0.000 A 
ATOM      8  C   UNL     1      -9.592   2.573 131.030  0.00  0.00    +0.000 A 
ENDBRANCH   1   6
BRANCH   1   9
ATOM      9  S   UNL     1      -7.700   1.182 126.925  0.00  0.00    +0.000 S 
ATOM     10  O   UNL     1      -9.092   0.830 126.726  0.00  0.00    +0.000 OA
ATOM     11  O   UNL     1      -6.814   1.280 125.778  0.00  0.00    +0.000 OA
BRANCH   9  12
ATOM     12  C   UNL     1      -6.990  -0.141 127.948  0.00  0.00    +0.000 A 
ATOM     13  C   UNL     1      -5.772   0.031 128.503  0.00  0.00    +0.000 A 
ATOM     14  C   UNL     1      -5.071  -0.906 129.209  0.00  0.00    +0.000 A 
ATOM     15  C   UNL     1      -5.461  -2.230 129.021  0.00  0.00    +0.000 A 
ATOM     16  C   UNL     1      -4.493  -3.306 129.165  0.00  0.00    +0.000 A 
ATOM     17  C   UNL     1      -4.028  -3.254 130.386  0.00  0.00    +0.000 A 
ATOM     18  C   UNL     1      -5.169  -3.799 130.926  0.00  0.00    +0.000 A 
ATOM     19  C   UNL     1      -6.631  -3.557 130.131  0.00  0.00    +0.000 A 
ATOM     20  C   UNL     1      -6.745  -2.392 129.197  0.00  0.00    +0.000 A 
ATOM     21  C   UNL     1      -7.620  -1.364 128.340  0.00  0.00    +0.000 A 
ENDBRANCH   9  12
ENDBRANCH   1   9
BRANCH   1  22
ATOM     22  C   UNL     1      -7.552   4.072 126.983  0.00  0.00    +0.000 C 
BRANCH  22  23
ATOM     23  C   UNL     1      -8.426   4.641 125.877  0.00  0.00    +0.000 C 
ATOM     24  O   UNL     1      -8.396   4.114 124.763  0.00  0.00    +0.000 OA
BRANCH  23  25
ATOM     25  N   UNL     1      -9.088   5.855 126.066  0.00  0.00    +0.000 NA
ATOM     26  N   UNL     1      -9.270   5.949 127.311  0.00  0.00    +0.000 NA
BRANCH  26  27
ATOM     27  C   UNL     1     -10.345   6.706 127.768  0.00  0.00    +0.000 A 
ATOM     28  C   UNL     1     -10.985   7.647 126.996  0.00  0.00    +0.000 A 
ATOM     29  N   UNL     1     -11.987   8.177 127.770  0.00  0.00    +0.000 N 
ATOM     30  C   UNL     1     -11.939   7.657 129.051  0.00  0.00    +0.000 A 
ATOM     31  C   UNL     1     -12.756   7.882 130.170  0.00  0.00    +0.000 A 
ATOM     32  C   UNL     1     -12.445   7.201 131.354  0.00  0.00    +0.000 A 
ATOM     33  C   UNL     1     -11.345   6.351 131.428  0.00  0.00    +0.000 A 
ATOM     34  C   UNL     1     -10.540   6.137 130.306  0.00  0.00    +0.000 A 
ATOM     35  C   UNL     1     -10.859   6.768 129.087  0.00  0.00    +0.000 A 
ATOM     36  H   UNL     1     -12.669   8.842 127.434  0.00  0.00    +0.000 HD
BRANCH  28  37
ATOM     37  O   UNL     1     -10.811   8.042 125.740  0.00  0.00    +0.000 OA
ATOM     38  H   UNL     1     -10.531   7.254 125.231  0.00  0.00    +0.000 HD
ENDBRANCH  28  37
ENDBRANCH  26  27
ENDBRANCH  23  25
ENDBRANCH  22  23
ENDBRANCH   1  22
TORSDOF 8
ENDMDL
MODEL 9
REMARK VINA RESULT:      -9.6      3.624      8.231
REMARK  Name = CHEMBL200729
REMARK  9 active torsions:
REMARK  status: ('A' for Active; 'I' for Inactive)
REMARK    1  A    between atoms: C_1  and  C_2
REMARK    2  A    between atoms: C_5  and  N_6
REMARK    3  A    between atoms: N_6  and  C_7
REMARK    4  A    between atoms: N_6  and  S_22
REMARK    5  A    between atoms: C_7  and  C_8
REMARK    6  A    between atoms: C_8  and  N_10
REMARK    7  A    between atoms: N_11  and  C_12
REMARK    8  A    between atoms: C_13  and  O_14
REMARK    9  A    between atoms: S_22  and  C_25
REMARK                            x       y       z     vdW  Elec       q    Type
REMARK                         _______ _______ _______ _____ _____    ______ ____
ROOT
ATOM      1  N   UNL     1      -7.447   4.160 130.442  0.00  0.00    +0.000 N 
ENDROOT
BRANCH   1   6
ATOM      2  C   UNL     1      -2.959   6.916 132.846  0.00  0.00    +0.000 C 
ATOM      3  C   UNL     1      -4.073   6.246 132.127  0.00  0.00    +0.000 A 
ATOM      4  C   UNL     1      -4.198   4.895 132.277  0.00  0.00    +0.000 A 
ATOM      5  C   UNL     1      -5.415   4.362 131.909  0.00  0.00    +0.000 A 
ATOM      6  C   UNL     1      -6.326   4.927 131.007  0.00  0.00    +0.000 A 
ATOM      7  C   UNL     1      -6.141   6.281 130.813  0.00  0.00    +0.000 A 
ATOM      8  C   UNL     1      -5.057   6.943 131.416  0.00  0.00    +0.000 A 
ENDBRANCH   1   6
BRANCH   1   9
ATOM      9  S   UNL     1      -9.030   4.241 131.284  0.00  0.00    +0.000 S 
ATOM     10  O   UNL     1      -9.619   2.925 131.128  0.00  0.00    +0.000 OA
ATOM     11  O   UNL     1      -8.794   4.767 132.617  0.00  0.00    +0.000 OA
BRANCH   9  12
ATOM     12  C   UNL     1     -10.199   5.406 130.525  0.00  0.00    +0.000 A 
ATOM     13  C   UNL     1      -9.792   6.660 130.234  0.00  0.00    +0.000 A 
ATOM     14  C   UNL     1     -10.580   7.670 129.757  0.00  0.00    +0.000 A 
ATOM     15  C   UNL     1     -11.951   7.515 129.943  0.00  0.00    +0.000 A 
ATOM     16  C   UNL     1     -12.808   8.682 130.080  0.00  0.00    +0.000 A 
ATOM     17  C   UNL     1     -12.686   9.389 128.987  0.00  0.00    +0.000 A 
ATOM     18  C   UNL     1     -13.465   8.526 128.252  0.00  0.00    +0.000 A 
ATOM     19  C   UNL     1     -13.512   6.906 128.698  0.00  0.00    +0.000 A 
ATOM     20  C   UNL     1     -12.377   6.360 129.507  0.00  0.00    +0.000 A 
ATOM     21  C   UNL     1     -11.534   5.132 130.088  0.00  0.00    +0.000 A 
ENDBRANCH   9  12
ENDBRANCH   1   9
BRANCH   1  22
ATOM     22  C   UNL     1      -7.272   3.486 129.112  0.00  0.00    +0.000 C 
BRANCH  22  23
ATOM     23  C   UNL     1      -7.669   3.996 127.736  0.00  0.00    +0.000 C 
ATOM     24  O   UNL     1      -8.443   4.953 127.656  0.00  0.00    +0.000 OA
BRANCH  23  25
ATOM     25  N   UNL     1      -7.326   3.268 126.597  0.00  0.00    +0.000 NA
ATOM     26  N   UNL     1      -7.184   4.123 125.680  0.00  0.00    +0.000 NA
BRANCH  26  27
ATOM     27  C   UNL     1      -7.398   3.726 124.364  0.00  0.00    +0.000 A 
ATOM     28  C   UNL     1      -8.481   2.976 123.970  0.00  0.00    +0.000 A 
ATOM     29  N   UNL     1      -8.361   2.787 122.616  0.00  0.00    +0.000 N 
ATOM     30  C   UNL     1      -7.173   3.327 122.154  0.00  0.00    +0.000 A 
ATOM     31  C   UNL     1      -6.631   3.393 120.861  0.00  0.00    +0.000 A 
ATOM     32  C   UNL     1      -5.381   4.006 120.707  0.00  0.00    +0.000 A 
ATOM     33  C   UNL     1      -4.686   4.508 121.803  0.00  0.00    +0.000 A 
ATOM     34  C   UNL     1      -5.238   4.434 123.085  0.00  0.00    +0.000 A 
ATOM     35  C   UNL     1      -6.517   3.870 123.263  0.00  0.00    +0.000 A 
ATOM     36  H   UNL     1      -9.058   2.332 122.045  0.00  0.00    +0.000 HD
BRANCH  28  37
ATOM     37  O   UNL     1      -9.525   2.494 124.637  0.00  0.00    +0.000 OA
ATOM     38  H   UNL     1      -9.585   2.998 125.473  0.00  0.00    +0.000 HD
ENDBRANCH  28  37
ENDBRANCH  26  27
ENDBRANCH  23  25
ENDBRANCH  22  23
ENDBRANCH   1  22
TORSDOF 8
ENDMDL
