MODEL 1
REMARK VINA RESULT:     -10.1      0.000      0.000
REMARK  Name = CHEMBL372554
REMARK  14 active torsions:
REMARK  status: ('A' for Active; 'I' for Inactive)
REMARK    1  A    between atoms: C_1  and  C_2
REMARK    2  A    between atoms: N_4  and  C_5
REMARK    3  A    between atoms: C_8  and  C_9
REMARK    4  A    between atoms: C_9  and  C_10
REMARK    5  A    between atoms: C_9  and  N_17
REMARK    6  A    between atoms: N_12  and  C_13
REMARK    7  A    between atoms: C_13  and  C_14
REMARK    8  A    between atoms: C_13  and  C_15
REMARK    9  A    between atoms: C_13  and  C_16
REMARK   10  A    between atoms: C_20  and  C_21
REMARK   11  A    between atoms: CA_33  and  CB_34
REMARK   12  A    between atoms: CB_34  and  CG_35
REMARK   13  A    between atoms: CG_35  and  CD1_36
REMARK   14  A    between atoms: CG_35  and  CD2_37
REMARK                            x       y       z     vdW  Elec       q    Type
REMARK                         _______ _______ _______ _____ _____    ______ ____
ROOT
ATOM      1  N   LEU A   1      -7.651   3.189 129.930  0.00  0.00    +0.000 N 
ATOM      2  C   UNK A   2      -8.515   4.209 129.486  0.00  0.00    +0.000 C 
ATOM      3  O   UNK A   2      -8.552   4.476 128.259  0.00  0.00    +0.000 OA
ATOM      4  C   UNK A   2      -9.408   5.005 130.532  0.00  0.00    +0.000 C 
ATOM      5  N   UNK A   2      -9.948   4.019 131.426  0.00  0.00    +0.000 N 
ATOM      6  C   LEU A   1      -9.110   3.179 132.045  0.00  0.00    +0.000 C 
ATOM      7  O   LEU A   1      -9.550   2.570 133.054  0.00  0.00    +0.000 OA
ATOM      8  CA  LEU A   1      -7.676   3.101 131.515  0.00  0.00    +0.000 C 
ATOM      9  H   UNK A   2     -10.856   4.084 131.864  0.00  0.00    +0.000 HD
ENDROOT
BRANCH   4  10
ATOM     10  C   UNK A   2     -10.505   5.667 129.703  0.00  0.00    +0.000 C 
ATOM     11  C   UNK A   2     -10.258   7.191 129.702  0.00  0.00    +0.000 C 
ATOM     12  C   UNK A   2     -11.540   7.696 129.170  0.00  0.00    +0.000 A 
ATOM     13  C   UNK A   2     -12.011   8.981 129.243  0.00  0.00    +0.000 A 
ATOM     14  C   UNK A   2     -13.253   9.251 128.705  0.00  0.00    +0.000 A 
ATOM     15  C   UNK A   2     -13.832   8.298 127.869  0.00  0.00    +0.000 A 
ATOM     16  C   UNK A   2     -13.393   6.960 127.940  0.00  0.00    +0.000 A 
ATOM     17  C   UNK A   2     -12.389   6.657 128.853  0.00  0.00    +0.000 A 
ATOM     18  C   UNK A   2     -12.022   5.602 129.926  0.00  0.00    +0.000 C 
ENDBRANCH   4  10
BRANCH   1  19
ATOM     19  C   UNK A   0      -6.674   2.539 128.650  0.00  0.00    +0.000 C 
BRANCH  19  23
ATOM     20  C   UNK A   0      -7.764  -1.410 126.470  0.00  0.00    +0.000 A 
ATOM     21  C   UNK A   0      -6.901  -0.450 125.850  0.00  0.00    +0.000 A 
ATOM     22  C   UNK A   0      -6.022   0.606 126.645  0.00  0.00    +0.000 A 
ATOM     23  C   UNK A   0      -6.308   0.862 128.059  0.00  0.00    +0.000 A 
ATOM     24  C   UNK A   0      -7.049  -0.279 128.692  0.00  0.00    +0.000 A 
ATOM     25  C   UNK A   0      -7.791  -1.350 127.894  0.00  0.00    +0.000 A 
BRANCH  20  29
ATOM     26  C   UNK A   0      -9.435  -3.090 123.515  0.00  0.00    +0.000 C 
ATOM     27  C   UNK A   0      -8.402  -3.057 124.630  0.00  0.00    +0.000 C 
ATOM     28  O   UNK A   0      -7.420  -3.779 124.592  0.00  0.00    +0.000 OA
ATOM     29  N   UNK A   0      -8.695  -2.116 125.615  0.00  0.00    +0.000 N 
ATOM     30  H   UNK A   0      -9.682  -1.902 125.739  0.00  0.00    +0.000 HD
ENDBRANCH  20  29
ENDBRANCH  19  23
BRANCH  19  31
ATOM     31  C   UNK A   0      -5.299   3.134 129.047  0.00  0.00    +0.000 C 
ATOM     32  O   UNK A   0      -4.560   2.555 129.837  0.00  0.00    +0.000 OA
ATOM     33  N   UNK A   0      -4.983   4.348 128.472  0.00  0.00    +0.000 N 
ATOM     34  H   UNK A   0      -5.762   4.960 128.236  0.00  0.00    +0.000 HD
BRANCH  33  35
ATOM     35  C   UNK A   0      -3.639   4.904 128.571  0.00  0.00    +0.000 C 
ATOM     36  C   UNK A   0      -3.146   5.010 130.025  0.00  0.00    +0.000 C 
ATOM     37  C   UNK A   0      -2.706   4.002 127.750  0.00  0.00    +0.000 C 
ATOM     38  C   UNK A   0      -3.645   6.310 127.960  0.00  0.00    +0.000 C 
ENDBRANCH  33  35
ENDBRANCH  19  31
ENDBRANCH   1  19
BRANCH   8  39
ATOM     39  CB  LEU A   1      -7.271   1.801 132.241  0.00  0.00    +0.000 C 
BRANCH  39  40
ATOM     40  CG  LEU A   1      -6.108   2.172 133.044  0.00  0.00    +0.000 C 
ATOM     41  CD1 LEU A   1      -5.584   0.764 132.550  0.00  0.00    +0.000 C 
ATOM     42  CD2 LEU A   1      -5.532   3.709 132.920  0.00  0.00    +0.000 C 
ENDBRANCH  39  40
ENDBRANCH   8  39
TORSDOF 8
ENDMDL
MODEL 2
REMARK VINA RESULT:      -9.8      2.869      3.377
REMARK  Name = CHEMBL372554
REMARK  14 active torsions:
REMARK  status: ('A' for Active; 'I' for Inactive)
REMARK    1  A    between atoms: C_1  and  C_2
REMARK    2  A    between atoms: N_4  and  C_5
REMARK    3  A    between atoms: C_8  and  C_9
REMARK    4  A    between atoms: C_9  and  C_10
REMARK    5  A    between atoms: C_9  and  N_17
REMARK    6  A    between atoms: N_12  and  C_13
REMARK    7  A    between atoms: C_13  and  C_14
REMARK    8  A    between atoms: C_13  and  C_15
REMARK    9  A    between atoms: C_13  and  C_16
REMARK   10  A    between atoms: C_20  and  C_21
REMARK   11  A    between atoms: CA_33  and  CB_34
REMARK   12  A    between atoms: CB_34  and  CG_35
REMARK   13  A    between atoms: CG_35  and  CD1_36
REMARK   14  A    between atoms: CG_35  and  CD2_37
REMARK                            x       y       z     vdW  Elec       q    Type
REMARK                         _______ _______ _______ _____ _____    ______ ____
ROOT
ATOM      1  N   LEU A   1      -6.705   4.401 130.779  0.00  0.00    +0.000 N 
ATOM      2  C   UNK A   2      -7.780   5.095 130.194  0.00  0.00    +0.000 C 
ATOM      3  O   UNK A   2      -7.925   5.041 128.947  0.00  0.00    +0.000 OA
ATOM      4  C   UNK A   2      -8.775   5.936 131.104  0.00  0.00    +0.000 C 
ATOM      5  N   UNK A   2      -9.057   5.114 132.247  0.00  0.00    +0.000 N 
ATOM      6  C   LEU A   1      -8.037   4.628 132.964  0.00  0.00    +0.000 C 
ATOM      7  O   LEU A   1      -8.296   4.212 134.123  0.00  0.00    +0.000 OA
ATOM      8  CA  LEU A   1      -6.642   4.700 132.337  0.00  0.00    +0.000 C 
ATOM      9  H   UNK A   2      -9.940   5.108 132.741  0.00  0.00    +0.000 HD
ENDROOT
BRANCH   4  10
ATOM     10  C   UNK A   2     -10.020   6.151 130.250  0.00  0.00    +0.000 C 
ATOM     11  C   UNK A   2      -9.980   7.589 129.689  0.00  0.00    +0.000 C 
ATOM     12  C   UNK A   2     -11.361   7.747 129.189  0.00  0.00    +0.000 A 
ATOM     13  C   UNK A   2     -11.991   8.922 128.873  0.00  0.00    +0.000 A 
ATOM     14  C   UNK A   2     -13.302   8.864 128.443  0.00  0.00    +0.000 A 
ATOM     15  C   UNK A   2     -13.820   7.625 128.073  0.00  0.00    +0.000 A 
ATOM     16  C   UNK A   2     -13.202   6.449 128.543  0.00  0.00    +0.000 A 
ATOM     17  C   UNK A   2     -12.088   6.589 129.365  0.00  0.00    +0.000 A 
ATOM     18  C   UNK A   2     -11.488   6.028 130.678  0.00  0.00    +0.000 C 
ENDBRANCH   4  10
BRANCH   1  19
ATOM     19  C   UNK A   0      -5.669   3.658 129.600  0.00  0.00    +0.000 C 
BRANCH  19  23
ATOM     20  C   UNK A   0      -4.799  -0.814 130.488  0.00  0.00    +0.000 A 
ATOM     21  C   UNK A   0      -5.083  -0.377 129.153  0.00  0.00    +0.000 A 
ATOM     22  C   UNK A   0      -4.840   1.100 128.625  0.00  0.00    +0.000 A 
ATOM     23  C   UNK A   0      -4.613   2.180 129.588  0.00  0.00    +0.000 A 
ATOM     24  C   UNK A   0      -4.130   1.656 130.908  0.00  0.00    +0.000 A 
ATOM     25  C   UNK A   0      -4.275   0.199 131.343  0.00  0.00    +0.000 A 
BRANCH  20  29
ATOM     26  C   UNK A   0      -5.557  -4.516 130.736  0.00  0.00    +0.000 C 
ATOM     27  C   UNK A   0      -4.644  -3.319 130.941  0.00  0.00    +0.000 C 
ATOM     28  O   UNK A   0      -3.443  -3.468 131.094  0.00  0.00    +0.000 OA
ATOM     29  N   UNK A   0      -5.322  -2.102 130.890  0.00  0.00    +0.000 N 
ATOM     30  H   UNK A   0      -6.300  -2.133 131.166  0.00  0.00    +0.000 HD
ENDBRANCH  20  29
ENDBRANCH  19  23
BRANCH  19  31
ATOM     31  C   UNK A   0      -4.707   4.840 129.319  0.00  0.00    +0.000 C 
ATOM     32  O   UNK A   0      -4.799   5.506 128.292  0.00  0.00    +0.000 OA
ATOM     33  N   UNK A   0      -3.747   5.073 130.283  0.00  0.00    +0.000 N 
ATOM     34  H   UNK A   0      -3.432   4.267 130.819  0.00  0.00    +0.000 HD
BRANCH  33  35
ATOM     35  C   UNK A   0      -2.934   6.283 130.264  0.00  0.00    +0.000 C 
ATOM     36  C   UNK A   0      -2.131   6.437 128.961  0.00  0.00    +0.000 C 
ATOM     37  C   UNK A   0      -3.881   7.476 130.459  0.00  0.00    +0.000 C 
ATOM     38  C   UNK A   0      -1.947   6.227 131.436  0.00  0.00    +0.000 C 
ENDBRANCH  33  35
ENDBRANCH  19  31
ENDBRANCH   1  19
BRANCH   8  39
ATOM     39  CB  LEU A   1      -5.944   3.720 133.303  0.00  0.00    +0.000 C 
BRANCH  39  40
ATOM     40  CG  LEU A   1      -5.026   4.554 134.076  0.00  0.00    +0.000 C 
ATOM     41  CD1 LEU A   1      -4.072   3.306 133.887  0.00  0.00    +0.000 C 
ATOM     42  CD2 LEU A   1      -4.904   6.148 133.687  0.00  0.00    +0.000 C 
ENDBRANCH  39  40
ENDBRANCH   8  39
TORSDOF 8
ENDMDL
MODEL 3
REMARK VINA RESULT:      -9.8      1.741      2.156
REMARK  Name = CHEMBL372554
REMARK  14 active torsions:
REMARK  status: ('A' for Active; 'I' for Inactive)
REMARK    1  A    between atoms: C_1  and  C_2
REMARK    2  A    between atoms: N_4  and  C_5
REMARK    3  A    between atoms: C_8  and  C_9
REMARK    4  A    between atoms: C_9  and  C_10
REMARK    5  A    between atoms: C_9  and  N_17
REMARK    6  A    between atoms: N_12  and  C_13
REMARK    7  A    between atoms: C_13  and  C_14
REMARK    8  A    between atoms: C_13  and  C_15
REMARK    9  A    between atoms: C_13  and  C_16
REMARK   10  A    between atoms: C_20  and  C_21
REMARK   11  A    between atoms: CA_33  and  CB_34
REMARK   12  A    between atoms: CB_34  and  CG_35
REMARK   13  A    between atoms: CG_35  and  CD1_36
REMARK   14  A    between atoms: CG_35  and  CD2_37
REMARK                            x       y       z     vdW  Elec       q    Type
REMARK                         _______ _______ _______ _____ _____    ______ ____
ROOT
ATOM      1  N   LEU A   1      -7.859   3.653 129.876  0.00  0.00    +0.000 N 
ATOM      2  C   UNK A   2      -8.604   4.845 129.955  0.00  0.00    +0.000 C 
ATOM      3  O   UNK A   2      -8.460   5.708 129.053  0.00  0.00    +0.000 OA
ATOM      4  C   UNK A   2      -9.594   5.084 131.175  0.00  0.00    +0.000 C 
ATOM      5  N   UNK A   2     -10.298   3.847 131.365  0.00  0.00    +0.000 N 
ATOM      6  C   LEU A   1      -9.594   2.720 131.526  0.00  0.00    +0.000 C 
ATOM      7  O   LEU A   1     -10.196   1.732 132.020  0.00  0.00    +0.000 OA
ATOM      8  CA  LEU A   1      -8.106   2.765 131.169  0.00  0.00    +0.000 C 
ATOM      9  H   UNK A   2     -11.254   3.778 131.686  0.00  0.00    +0.000 HD
ENDROOT
BRANCH   4  10
ATOM     10  C   UNK A   2     -10.534   6.196 130.720  0.00  0.00    +0.000 C 
ATOM     11  C   UNK A   2     -11.726   5.550 129.982  0.00  0.00    +0.000 C 
ATOM     12  C   UNK A   2     -12.341   6.726 129.332  0.00  0.00    +0.000 A 
ATOM     13  C   UNK A   2     -13.242   6.717 128.300  0.00  0.00    +0.000 A 
ATOM     14  C   UNK A   2     -13.684   7.930 127.810  0.00  0.00    +0.000 A 
ATOM     15  C   UNK A   2     -13.432   9.076 128.561  0.00  0.00    +0.000 A 
ATOM     16  C   UNK A   2     -12.398   9.061 129.518  0.00  0.00    +0.000 A 
ATOM     17  C   UNK A   2     -11.671   7.884 129.666  0.00  0.00    +0.000 A 
ATOM     18  C   UNK A   2     -10.212   7.384 129.803  0.00  0.00    +0.000 C 
ENDBRANCH   4  10
BRANCH   1  19
ATOM     19  C   UNK A   0      -6.748   3.649 128.542  0.00  0.00    +0.000 C 
BRANCH  19  23
ATOM     20  C   UNK A   0      -7.448   1.093 124.732  0.00  0.00    +0.000 A 
ATOM     21  C   UNK A   0      -6.577   2.230 124.697  0.00  0.00    +0.000 A 
ATOM     22  C   UNK A   0      -5.825   2.820 125.965  0.00  0.00    +0.000 A 
ATOM     23  C   UNK A   0      -6.250   2.414 127.307  0.00  0.00    +0.000 A 
ATOM     24  C   UNK A   0      -6.992   1.110 127.285  0.00  0.00    +0.000 A 
ATOM     25  C   UNK A   0      -7.608   0.510 126.023  0.00  0.00    +0.000 A 
BRANCH  20  29
ATOM     26  C   UNK A   0     -10.115  -0.166 122.356  0.00  0.00    +0.000 C 
ATOM     27  C   UNK A   0      -9.649   0.722 123.499  0.00  0.00    +0.000 C 
ATOM     28  O   UNK A   0     -10.452   1.220 124.270  0.00  0.00    +0.000 OA
ATOM     29  N   UNK A   0      -8.262   0.844 123.562  0.00  0.00    +0.000 N 
ATOM     30  H   UNK A   0      -7.771   0.741 122.677  0.00  0.00    +0.000 HD
ENDBRANCH  20  29
ENDBRANCH  19  23
BRANCH  19  31
ATOM     31  C   UNK A   0      -5.442   4.013 129.293  0.00  0.00    +0.000 C 
ATOM     32  O   UNK A   0      -4.767   3.152 129.851  0.00  0.00    +0.000 OA
ATOM     33  N   UNK A   0      -5.110   5.352 129.305  0.00  0.00    +0.000 N 
ATOM     34  H   UNK A   0      -5.881   6.015 129.258  0.00  0.00    +0.000 HD
BRANCH  33  35
ATOM     35  C   UNK A   0      -3.803   5.804 129.766  0.00  0.00    +0.000 C 
ATOM     36  C   UNK A   0      -3.460   5.286 131.174  0.00  0.00    +0.000 C 
ATOM     37  C   UNK A   0      -2.762   5.322 128.746  0.00  0.00    +0.000 C 
ATOM     38  C   UNK A   0      -3.800   7.337 129.802  0.00  0.00    +0.000 C 
ENDBRANCH  33  35
ENDBRANCH  19  31
ENDBRANCH   1  19
BRANCH   8  39
ATOM     39  CB  LEU A   1      -7.866   1.241 131.139  0.00  0.00    +0.000 C 
BRANCH  39  40
ATOM     40  CG  LEU A   1      -6.750   1.024 132.056  0.00  0.00    +0.000 C 
ATOM     41  CD1 LEU A   1      -6.210   0.150 130.853  0.00  0.00    +0.000 C 
ATOM     42  CD2 LEU A   1      -6.154   2.317 132.880  0.00  0.00    +0.000 C 
ENDBRANCH  39  40
ENDBRANCH   8  39
TORSDOF 8
ENDMDL
MODEL 4
REMARK VINA RESULT:      -9.7      2.116      2.854
REMARK  Name = CHEMBL372554
REMARK  14 active torsions:
REMARK  status: ('A' for Active; 'I' for Inactive)
REMARK    1  A    between atoms: C_1  and  C_2
REMARK    2  A    between atoms: N_4  and  C_5
REMARK    3  A    between atoms: C_8  and  C_9
REMARK    4  A    between atoms: C_9  and  C_10
REMARK    5  A    between atoms: C_9  and  N_17
REMARK    6  A    between atoms: N_12  and  C_13
REMARK    7  A    between atoms: C_13  and  C_14
REMARK    8  A    between atoms: C_13  and  C_15
REMARK    9  A    between atoms: C_13  and  C_16
REMARK   10  A    between atoms: C_20  and  C_21
REMARK   11  A    between atoms: CA_33  and  CB_34
REMARK   12  A    between atoms: CB_34  and  CG_35
REMARK   13  A    between atoms: CG_35  and  CD1_36
REMARK   14  A    between atoms: CG_35  and  CD2_37
REMARK                            x       y       z     vdW  Elec       q    Type
REMARK                         _______ _______ _______ _____ _____    ______ ____
ROOT
ATOM      1  N   LEU A   1      -8.322   3.500 130.742  0.00  0.00    +0.000 N 
ATOM      2  C   UNK A   2      -8.932   4.708 130.356  0.00  0.00    +0.000 C 
ATOM      3  O   UNK A   2      -9.186   4.894 129.139  0.00  0.00    +0.000 OA
ATOM      4  C   UNK A   2      -9.276   5.811 131.447  0.00  0.00    +0.000 C 
ATOM      5  N   UNK A   2      -9.846   5.104 132.560  0.00  0.00    +0.000 N 
ATOM      6  C   LEU A   1      -9.164   4.085 133.097  0.00  0.00    +0.000 C 
ATOM      7  O   LEU A   1      -9.505   3.712 134.250  0.00  0.00    +0.000 OA
ATOM      8  CA  LEU A   1      -7.987   3.527 132.294  0.00  0.00    +0.000 C 
ATOM      9  H   UNK A   2     -10.562   5.479 133.167  0.00  0.00    +0.000 HD
ENDROOT
BRANCH   4  10
ATOM     10  C   UNK A   2     -10.299   6.728 130.786  0.00  0.00    +0.000 C 
ATOM     11  C   UNK A   2     -11.526   5.879 130.388  0.00  0.00    +0.000 C 
ATOM     12  C   UNK A   2     -12.246   6.805 129.491  0.00  0.00    +0.000 A 
ATOM     13  C   UNK A   2     -13.236   6.483 128.599  0.00  0.00    +0.000 A 
ATOM     14  C   UNK A   2     -13.771   7.494 127.827  0.00  0.00    +0.000 A 
ATOM     15  C   UNK A   2     -13.501   8.813 128.186  0.00  0.00    +0.000 A 
ATOM     16  C   UNK A   2     -12.384   9.092 128.999  0.00  0.00    +0.000 A 
ATOM     17  C   UNK A   2     -11.598   8.020 129.408  0.00  0.00    +0.000 A 
ATOM     18  C   UNK A   2     -10.112   7.602 129.538  0.00  0.00    +0.000 C 
ENDBRANCH   4  10
BRANCH   1  19
ATOM     19  C   UNK A   0      -7.915   2.495 129.386  0.00  0.00    +0.000 C 
BRANCH  19  23
ATOM     20  C   UNK A   0      -6.362  -1.860 128.991  0.00  0.00    +0.000 A 
ATOM     21  C   UNK A   0      -7.185  -1.477 130.100  0.00  0.00    +0.000 A 
ATOM     22  C   UNK A   0      -8.209  -0.265 130.076  0.00  0.00    +0.000 A 
ATOM     23  C   UNK A   0      -8.120   0.731 129.006  0.00  0.00    +0.000 A 
ATOM     24  C   UNK A   0      -7.412   0.190 127.799  0.00  0.00    +0.000 A 
ATOM     25  C   UNK A   0      -6.521  -1.051 127.829  0.00  0.00    +0.000 A 
BRANCH  20  29
ATOM     26  C   UNK A   0      -3.000  -3.598 129.154  0.00  0.00    +0.000 C 
ATOM     27  C   UNK A   0      -3.978  -2.525 129.607  0.00  0.00    +0.000 C 
ATOM     28  O   UNK A   0      -3.585  -1.527 130.188  0.00  0.00    +0.000 OA
ATOM     29  N   UNK A   0      -5.296  -2.805 129.250  0.00  0.00    +0.000 N 
ATOM     30  H   UNK A   0      -5.527  -3.791 129.159  0.00  0.00    +0.000 HD
ENDBRANCH  20  29
ENDBRANCH  19  23
BRANCH  19  31
ATOM     31  C   UNK A   0      -6.386   2.742 129.331  0.00  0.00    +0.000 C 
ATOM     32  O   UNK A   0      -5.619   2.156 130.090  0.00  0.00    +0.000 OA
ATOM     33  N   UNK A   0      -5.960   3.664 128.397  0.00  0.00    +0.000 N 
ATOM     34  H   UNK A   0      -6.613   4.409 128.159  0.00  0.00    +0.000 HD
BRANCH  33  35
ATOM     35  C   UNK A   0      -4.547   3.820 128.077  0.00  0.00    +0.000 C 
ATOM     36  C   UNK A   0      -3.676   4.031 129.329  0.00  0.00    +0.000 C 
ATOM     37  C   UNK A   0      -4.104   2.561 127.318  0.00  0.00    +0.000 C 
ATOM     38  C   UNK A   0      -4.384   5.041 127.165  0.00  0.00    +0.000 C 
ENDBRANCH  33  35
ENDBRANCH  19  31
ENDBRANCH   1  19
BRANCH   8  39
ATOM     39  CB  LEU A   1      -7.814   2.215 133.088  0.00  0.00    +0.000 C 
BRANCH  39  40
ATOM     40  CG  LEU A   1      -6.462   2.290 133.636  0.00  0.00    +0.000 C 
ATOM     41  CD1 LEU A   1      -6.451   0.755 133.251  0.00  0.00    +0.000 C 
ATOM     42  CD2 LEU A   1      -5.521   3.574 133.219  0.00  0.00    +0.000 C 
ENDBRANCH  39  40
ENDBRANCH   8  39
TORSDOF 8
ENDMDL
MODEL 5
REMARK VINA RESULT:      -9.6      2.605      7.088
REMARK  Name = CHEMBL372554
REMARK  14 active torsions:
REMARK  status: ('A' for Active; 'I' for Inactive)
REMARK    1  A    between atoms: C_1  and  C_2
REMARK    2  A    between atoms: N_4  and  C_5
REMARK    3  A    between atoms: C_8  and  C_9
REMARK    4  A    between atoms: C_9  and  C_10
REMARK    5  A    between atoms: C_9  and  N_17
REMARK    6  A    between atoms: N_12  and  C_13
REMARK    7  A    between atoms: C_13  and  C_14
REMARK    8  A    between atoms: C_13  and  C_15
REMARK    9  A    between atoms: C_13  and  C_16
REMARK   10  A    between atoms: C_20  and  C_21
REMARK   11  A    between atoms: CA_33  and  CB_34
REMARK   12  A    between atoms: CB_34  and  CG_35
REMARK   13  A    between atoms: CG_35  and  CD1_36
REMARK   14  A    between atoms: CG_35  and  CD2_37
REMARK                            x       y       z     vdW  Elec       q    Type
REMARK                         _______ _______ _______ _____ _____    ______ ____
ROOT
ATOM      1  N   LEU A   1      -5.838   3.996 128.593  0.00  0.00    +0.000 N 
ATOM      2  C   UNK A   2      -5.109   4.789 129.499  0.00  0.00    +0.000 C 
ATOM      3  O   UNK A   2      -5.414   4.750 130.717  0.00  0.00    +0.000 OA
ATOM      4  C   UNK A   2      -3.933   5.720 128.974  0.00  0.00    +0.000 C 
ATOM      5  N   UNK A   2      -3.189   4.928 128.034  0.00  0.00    +0.000 N 
ATOM      6  C   LEU A   1      -3.839   4.348 127.018  0.00  0.00    +0.000 C 
ATOM      7  O   LEU A   1      -3.148   3.958 126.042  0.00  0.00    +0.000 OA
ATOM      8  CA  LEU A   1      -5.366   4.288 127.106  0.00  0.00    +0.000 C 
ATOM      9  H   UNK A   2      -2.192   5.005 127.887  0.00  0.00    +0.000 HD
ENDROOT
BRANCH   4  10
ATOM     10  C   UNK A   2      -3.099   6.051 130.207  0.00  0.00    +0.000 C 
ATOM     11  C   UNK A   2      -3.689   7.318 130.864  0.00  0.00    +0.000 C 
ATOM     12  C   UNK A   2      -2.612   7.690 131.804  0.00  0.00    +0.000 A 
ATOM     13  C   UNK A   2      -2.445   8.900 132.425  0.00  0.00    +0.000 A 
ATOM     14  C   UNK A   2      -1.353   9.062 133.255  0.00  0.00    +0.000 A 
ATOM     15  C   UNK A   2      -0.650   7.925 133.649  0.00  0.00    +0.000 A 
ATOM     16  C   UNK A   2      -0.761   6.745 132.886  0.00  0.00    +0.000 A 
ATOM     17  C   UNK A   2      -1.579   6.777 131.762  0.00  0.00    +0.000 A 
ATOM     18  C   UNK A   2      -1.594   6.342 130.276  0.00  0.00    +0.000 C 
ENDBRANCH   4  10
BRANCH   1  19
ATOM     19  C   UNK A   0      -7.157   3.159 129.352  0.00  0.00    +0.000 C 
BRANCH  19  23
ATOM     20  C   UNK A   0      -7.827  -0.907 127.217  0.00  0.00    +0.000 A 
ATOM     21  C   UNK A   0      -7.572  -0.857 128.626  0.00  0.00    +0.000 A 
ATOM     22  C   UNK A   0      -7.883   0.399 129.546  0.00  0.00    +0.000 A 
ATOM     23  C   UNK A   0      -8.148   1.699 128.924  0.00  0.00    +0.000 A 
ATOM     24  C   UNK A   0      -8.598   1.553 127.500  0.00  0.00    +0.000 A 
ATOM     25  C   UNK A   0      -8.387   0.286 126.674  0.00  0.00    +0.000 A 
BRANCH  20  29
ATOM     26  C   UNK A   0      -6.299  -3.061 124.501  0.00  0.00    +0.000 C 
ATOM     27  C   UNK A   0      -6.215  -1.954 125.540  0.00  0.00    +0.000 C 
ATOM     28  O   UNK A   0      -5.332  -1.114 125.488  0.00  0.00    +0.000 OA
ATOM     29  N   UNK A   0      -7.246  -2.007 126.476  0.00  0.00    +0.000 N 
ATOM     30  H   UNK A   0      -7.635  -2.931 126.650  0.00  0.00    +0.000 HD
ENDBRANCH  20  29
ENDBRANCH  19  23
BRANCH  19  31
ATOM     31  C   UNK A   0      -8.178   4.321 129.451  0.00  0.00    +0.000 C 
ATOM     32  O   UNK A   0      -8.639   4.851 128.445  0.00  0.00    +0.000 OA
ATOM     33  N   UNK A   0      -8.508   4.720 130.731  0.00  0.00    +0.000 N 
ATOM     34  H   UNK A   0      -7.797   4.595 131.448  0.00  0.00    +0.000 HD
BRANCH  33  35
ATOM     35  C   UNK A   0      -9.619   5.632 130.975  0.00  0.00    +0.000 C 
ATOM     36  C   UNK A   0      -9.406   7.012 130.328  0.00  0.00    +0.000 C 
ATOM     37  C   UNK A   0     -10.889   4.969 130.424  0.00  0.00    +0.000 C 
ATOM     38  C   UNK A   0      -9.768   5.827 132.488  0.00  0.00    +0.000 C 
ENDBRANCH  33  35
ENDBRANCH  19  31
ENDBRANCH   1  19
BRANCH   8  39
ATOM     39  CB  LEU A   1      -5.584   3.247 125.988  0.00  0.00    +0.000 C 
BRANCH  39  40
ATOM     40  CG  LEU A   1      -6.383   3.945 124.982  0.00  0.00    +0.000 C 
ATOM     41  CD1 LEU A   1      -6.447   2.500 124.341  0.00  0.00    +0.000 C 
ATOM     42  CD2 LEU A   1      -7.523   5.014 125.496  0.00  0.00    +0.000 C 
ENDBRANCH  39  40
ENDBRANCH   8  39
TORSDOF 8
ENDMDL
MODEL 6
REMARK VINA RESULT:      -9.5      2.782      3.995
REMARK  Name = CHEMBL372554
REMARK  14 active torsions:
REMARK  status: ('A' for Active; 'I' for Inactive)
REMARK    1  A    between atoms: C_1  and  C_2
REMARK    2  A    between atoms: N_4  and  C_5
REMARK    3  A    between atoms: C_8  and  C_9
REMARK    4  A    between atoms: C_9  and  C_10
REMARK    5  A    between atoms: C_9  and  N_17
REMARK    6  A    between atoms: N_12  and  C_13
REMARK    7  A    between atoms: C_13  and  C_14
REMARK    8  A    between atoms: C_13  and  C_15
REMARK    9  A    between atoms: C_13  and  C_16
REMARK   10  A    between atoms: C_20  and  C_21
REMARK   11  A    between atoms: CA_33  and  CB_34
REMARK   12  A    between atoms: CB_34  and  CG_35
REMARK   13  A    between atoms: CG_35  and  CD1_36
REMARK   14  A    between atoms: CG_35  and  CD2_37
REMARK                            x       y       z     vdW  Elec       q    Type
REMARK                         _______ _______ _______ _____ _____    ______ ____
ROOT
ATOM      1  N   LEU A   1      -8.422   2.512 131.105  0.00  0.00    +0.000 N 
ATOM      2  C   UNK A   2      -9.141   3.449 130.340  0.00  0.00    +0.000 C 
ATOM      3  O   UNK A   2      -9.634   3.081 129.244  0.00  0.00    +0.000 OA
ATOM      4  C   UNK A   2      -9.307   4.942 130.859  0.00  0.00    +0.000 C 
ATOM      5  N   UNK A   2      -9.622   4.843 132.257  0.00  0.00    +0.000 N 
ATOM      6  C   LEU A   1      -8.811   4.139 133.055  0.00  0.00    +0.000 C 
ATOM      7  O   LEU A   1      -8.906   4.343 134.293  0.00  0.00    +0.000 OA
ATOM      8  CA  LEU A   1      -7.793   3.215 132.382  0.00  0.00    +0.000 C 
ATOM      9  H   UNK A   2     -10.220   5.490 132.753  0.00  0.00    +0.000 HD
ENDROOT
BRANCH   4  10
ATOM     10  C   UNK A   2     -10.474   5.518 130.063  0.00  0.00    +0.000 C 
ATOM     11  C   UNK A   2     -10.062   6.912 129.541  0.00  0.00    +0.000 C 
ATOM     12  C   UNK A   2     -11.363   7.457 129.103  0.00  0.00    +0.000 A 
ATOM     13  C   UNK A   2     -11.659   8.771 128.846  0.00  0.00    +0.000 A 
ATOM     14  C   UNK A   2     -12.949   9.086 128.469  0.00  0.00    +0.000 A 
ATOM     15  C   UNK A   2     -13.797   8.049 128.087  0.00  0.00    +0.000 A 
ATOM     16  C   UNK A   2     -13.508   6.733 128.500  0.00  0.00    +0.000 A 
ATOM     17  C   UNK A   2     -12.372   6.534 129.278  0.00  0.00    +0.000 A 
ATOM     18  C   UNK A   2     -11.905   5.783 130.549  0.00  0.00    +0.000 C 
ENDBRANCH   4  10
BRANCH   1  19
ATOM     19  C   UNK A   0      -8.250   0.984 130.300  0.00  0.00    +0.000 C 
BRANCH  19  23
ATOM     20  C   UNK A   0      -6.241  -3.033 131.471  0.00  0.00    +0.000 A 
ATOM     21  C   UNK A   0      -6.787  -2.170 132.476  0.00  0.00    +0.000 A 
ATOM     22  C   UNK A   0      -7.946  -1.117 132.217  0.00  0.00    +0.000 A 
ATOM     23  C   UNK A   0      -8.290  -0.749 130.841  0.00  0.00    +0.000 A 
ATOM     24  C   UNK A   0      -7.855  -1.798 129.860  0.00  0.00    +0.000 A 
ATOM     25  C   UNK A   0      -6.819  -2.874 130.177  0.00  0.00    +0.000 A 
BRANCH  20  29
ATOM     26  C   UNK A   0      -3.384  -4.710 133.306  0.00  0.00    +0.000 C 
ATOM     27  C   UNK A   0      -4.817  -4.679 132.802  0.00  0.00    +0.000 C 
ATOM     28  O   UNK A   0      -5.669  -5.401 133.293  0.00  0.00    +0.000 OA
ATOM     29  N   UNK A   0      -5.018  -3.738 131.793  0.00  0.00    +0.000 N 
ATOM     30  H   UNK A   0      -4.204  -3.524 131.223  0.00  0.00    +0.000 HD
ENDBRANCH  20  29
ENDBRANCH  19  23
BRANCH  19  31
ATOM     31  C   UNK A   0      -6.843   1.177 129.678  0.00  0.00    +0.000 C 
ATOM     32  O   UNK A   0      -5.825   0.969 130.330  0.00  0.00    +0.000 OA
ATOM     33  N   UNK A   0      -6.821   1.609 128.367  0.00  0.00    +0.000 N 
ATOM     34  H   UNK A   0      -7.605   2.183 128.062  0.00  0.00    +0.000 HD
BRANCH  33  35
ATOM     35  C   UNK A   0      -5.588   1.608 127.591  0.00  0.00    +0.000 C 
ATOM     36  C   UNK A   0      -4.417   2.272 128.337  0.00  0.00    +0.000 C 
ATOM     37  C   UNK A   0      -5.255   0.147 127.257  0.00  0.00    +0.000 C 
ATOM     38  C   UNK A   0      -5.830   2.379 126.288  0.00  0.00    +0.000 C 
ENDBRANCH  33  35
ENDBRANCH  19  31
ENDBRANCH   1  19
BRANCH   8  39
ATOM     39  CB  LEU A   1      -7.419   2.394 133.634  0.00  0.00    +0.000 C 
BRANCH  39  40
ATOM     40  CG  LEU A   1      -5.995   2.655 133.837  0.00  0.00    +0.000 C 
ATOM     41  CD1 LEU A   1      -5.987   1.121 134.222  0.00  0.00    +0.000 C 
ATOM     42  CD2 LEU A   1      -5.198   3.550 132.709  0.00  0.00    +0.000 C 
ENDBRANCH  39  40
ENDBRANCH   8  39
TORSDOF 8
ENDMDL
MODEL 7
REMARK VINA RESULT:      -9.4      2.968      7.409
REMARK  Name = CHEMBL372554
REMARK  14 active torsions:
REMARK  status: ('A' for Active; 'I' for Inactive)
REMARK    1  A    between atoms: C_1  and  C_2
REMARK    2  A    between atoms: N_4  and  C_5
REMARK    3  A    between atoms: C_8  and  C_9
REMARK    4  A    between atoms: C_9  and  C_10
REMARK    5  A    between atoms: C_9  and  N_17
REMARK    6  A    between atoms: N_12  and  C_13
REMARK    7  A    between atoms: C_13  and  C_14
REMARK    8  A    between atoms: C_13  and  C_15
REMARK    9  A    between atoms: C_13  and  C_16
REMARK   10  A    between atoms: C_20  and  C_21
REMARK   11  A    between atoms: CA_33  and  CB_34
REMARK   12  A    between atoms: CB_34  and  CG_35
REMARK   13  A    between atoms: CG_35  and  CD1_36
REMARK   14  A    between atoms: CG_35  and  CD2_37
REMARK                            x       y       z     vdW  Elec       q    Type
REMARK                         _______ _______ _______ _____ _____    ______ ____
ROOT
ATOM      1  N   LEU A   1      -6.119   3.997 128.918  0.00  0.00    +0.000 N 
ATOM      2  C   UNK A   2      -5.292   4.776 129.749  0.00  0.00    +0.000 C 
ATOM      3  O   UNK A   2      -5.479   4.739 130.991  0.00  0.00    +0.000 OA
ATOM      4  C   UNK A   2      -4.157   5.688 129.113  0.00  0.00    +0.000 C 
ATOM      5  N   UNK A   2      -3.521   4.886 128.105  0.00  0.00    +0.000 N 
ATOM      6  C   LEU A   1      -4.276   4.319 127.157  0.00  0.00    +0.000 C 
ATOM      7  O   LEU A   1      -3.689   3.920 126.118  0.00  0.00    +0.000 OA
ATOM      8  CA  LEU A   1      -5.789   4.284 127.392  0.00  0.00    +0.000 C 
ATOM      9  H   UNK A   2      -2.542   4.948 127.863  0.00  0.00    +0.000 HD
ENDROOT
BRANCH   4  10
ATOM     10  C   UNK A   2      -3.203   6.003 130.260  0.00  0.00    +0.000 C 
ATOM     11  C   UNK A   2      -3.746   7.235 131.017  0.00  0.00    +0.000 C 
ATOM     12  C   UNK A   2      -2.582   7.605 131.848  0.00  0.00    +0.000 A 
ATOM     13  C   UNK A   2      -2.375   8.800 132.487  0.00  0.00    +0.000 A 
ATOM     14  C   UNK A   2      -1.204   8.964 133.199  0.00  0.00    +0.000 A 
ATOM     15  C   UNK A   2      -0.438   7.834 133.479  0.00  0.00    +0.000 A 
ATOM     16  C   UNK A   2      -0.605   6.675 132.694  0.00  0.00    +0.000 A 
ATOM     17  C   UNK A   2      -1.540   6.720 131.666  0.00  0.00    +0.000 A 
ATOM     18  C   UNK A   2      -1.706   6.330 130.176  0.00  0.00    +0.000 C 
ENDBRANCH   4  10
BRANCH   1  19
ATOM     19  C   UNK A   0      -7.372   3.180 129.800  0.00  0.00    +0.000 C 
BRANCH  19  23
ATOM     20  C   UNK A   0      -7.645  -1.444 130.092  0.00  0.00    +0.000 A 
ATOM     21  C   UNK A   0      -8.313  -0.612 131.048  0.00  0.00    +0.000 A 
ATOM     22  C   UNK A   0      -8.772   0.881 130.768  0.00  0.00    +0.000 A 
ATOM     23  C   UNK A   0      -8.234   1.593 129.606  0.00  0.00    +0.000 A 
ATOM     24  C   UNK A   0      -7.727   0.646 128.558  0.00  0.00    +0.000 A 
ATOM     25  C   UNK A   0      -7.402  -0.821 128.833  0.00  0.00    +0.000 A 
BRANCH  20  29
ATOM     26  C   UNK A   0      -5.435  -4.485 130.555  0.00  0.00    +0.000 C 
ATOM     27  C   UNK A   0      -5.701  -2.992 130.667  0.00  0.00    +0.000 C 
ATOM     28  O   UNK A   0      -4.781  -2.201 130.786  0.00  0.00    +0.000 OA
ATOM     29  N   UNK A   0      -7.055  -2.673 130.578  0.00  0.00    +0.000 N 
ATOM     30  H   UNK A   0      -7.699  -3.397 130.888  0.00  0.00    +0.000 HD
ENDBRANCH  20  29
ENDBRANCH  19  23
BRANCH  19  31
ATOM     31  C   UNK A   0      -8.486   4.254 129.721  0.00  0.00    +0.000 C 
ATOM     32  O   UNK A   0      -9.054   4.505 128.663  0.00  0.00    +0.000 OA
ATOM     33  N   UNK A   0      -8.774   4.908 130.902  0.00  0.00    +0.000 N 
ATOM     34  H   UNK A   0      -8.011   5.003 131.570  0.00  0.00    +0.000 HD
BRANCH  33  35
ATOM     35  C   UNK A   0      -9.946   5.765 131.026  0.00  0.00    +0.000 C 
ATOM     36  C   UNK A   0     -11.211   5.130 130.422  0.00  0.00    +0.000 C 
ATOM     37  C   UNK A   0     -10.149   6.054 132.520  0.00  0.00    +0.000 C 
ATOM     38  C   UNK A   0      -9.669   7.082 130.292  0.00  0.00    +0.000 C 
ENDBRANCH  33  35
ENDBRANCH  19  31
ENDBRANCH   1  19
BRANCH   8  39
ATOM     39  CB  LEU A   1      -6.131   3.249 126.300  0.00  0.00    +0.000 C 
BRANCH  39  40
ATOM     40  CG  LEU A   1      -7.554   3.449 126.033  0.00  0.00    +0.000 C 
ATOM     41  CD1 LEU A   1      -7.027   4.804 125.408  0.00  0.00    +0.000 C 
ATOM     42  CD2 LEU A   1      -8.422   2.184 125.439  0.00  0.00    +0.000 C 
ENDBRANCH  39  40
ENDBRANCH   8  39
TORSDOF 8
ENDMDL
MODEL 8
REMARK VINA RESULT:      -9.3      4.861      9.454
REMARK  Name = CHEMBL372554
REMARK  14 active torsions:
REMARK  status: ('A' for Active; 'I' for Inactive)
REMARK    1  A    between atoms: C_1  and  C_2
REMARK    2  A    between atoms: N_4  and  C_5
REMARK    3  A    between atoms: C_8  and  C_9
REMARK    4  A    between atoms: C_9  and  C_10
REMARK    5  A    between atoms: C_9  and  N_17
REMARK    6  A    between atoms: N_12  and  C_13
REMARK    7  A    between atoms: C_13  and  C_14
REMARK    8  A    between atoms: C_13  and  C_15
REMARK    9  A    between atoms: C_13  and  C_16
REMARK   10  A    between atoms: C_20  and  C_21
REMARK   11  A    between atoms: CA_33  and  CB_34
REMARK   12  A    between atoms: CB_34  and  CG_35
REMARK   13  A    between atoms: CG_35  and  CD1_36
REMARK   14  A    between atoms: CG_35  and  CD2_37
REMARK                            x       y       z     vdW  Elec       q    Type
REMARK                         _______ _______ _______ _____ _____    ______ ____
ROOT
ATOM      1  N   LEU A   1      -6.331  -0.623 126.354  0.00  0.00    +0.000 N 
ATOM      2  C   UNK A   2      -6.093  -1.258 127.587  0.00  0.00    +0.000 C 
ATOM      3  O   UNK A   2      -5.256  -0.751 128.375  0.00  0.00    +0.000 OA
ATOM      4  C   UNK A   2      -6.865  -2.598 127.954  0.00  0.00    +0.000 C 
ATOM      5  N   UNK A   2      -8.233  -2.386 127.569  0.00  0.00    +0.000 N 
ATOM      6  C   LEU A   1      -8.499  -2.001 126.315  0.00  0.00    +0.000 C 
ATOM      7  O   LEU A   1      -9.681  -2.150 125.908  0.00  0.00    +0.000 OA
ATOM      8  CA  LEU A   1      -7.327  -1.491 125.473  0.00  0.00    +0.000 C 
ATOM      9  H   UNK A   2      -9.028  -2.782 128.051  0.00  0.00    +0.000 HD
ENDROOT
BRANCH   4  10
ATOM     10  C   UNK A   2      -6.728  -2.741 129.466  0.00  0.00    +0.000 C 
ATOM     11  C   UNK A   2      -5.624  -3.781 129.756  0.00  0.00    +0.000 C 
ATOM     12  C   UNK A   2      -5.842  -4.047 131.193  0.00  0.00    +0.000 A 
ATOM     13  C   UNK A   2      -5.364  -5.111 131.913  0.00  0.00    +0.000 A 
ATOM     14  C   UNK A   2      -5.701  -5.198 133.249  0.00  0.00    +0.000 A 
ATOM     15  C   UNK A   2      -6.249  -4.075 133.865  0.00  0.00    +0.000 A 
ATOM     16  C   UNK A   2      -6.848  -3.075 133.072  0.00  0.00    +0.000 A 
ATOM     17  C   UNK A   2      -6.860  -3.264 131.694  0.00  0.00    +0.000 A 
ATOM     18  C   UNK A   2      -7.809  -3.151 130.475  0.00  0.00    +0.000 C 
ENDBRANCH   4  10
BRANCH   1  19
ATOM     19  C   UNK A   0      -5.294   0.746 126.097  0.00  0.00    +0.000 C 
BRANCH  19  23
ATOM     20  C   UNK A   0      -3.652   4.714 127.855  0.00  0.00    +0.000 A 
ATOM     21  C   UNK A   0      -4.492   3.861 128.642  0.00  0.00    +0.000 A 
ATOM     22  C   UNK A   0      -4.646   2.298 128.410  0.00  0.00    +0.000 A 
ATOM     23  C   UNK A   0      -4.174   1.707 127.155  0.00  0.00    +0.000 A 
ATOM     24  C   UNK A   0      -3.149   2.572 126.483  0.00  0.00    +0.000 A 
ATOM     25  C   UNK A   0      -2.946   4.050 126.811  0.00  0.00    +0.000 A 
BRANCH  20  29
ATOM     26  C   UNK A   0      -3.827   8.225 129.268  0.00  0.00    +0.000 C 
ATOM     27  C   UNK A   0      -3.048   7.017 128.773  0.00  0.00    +0.000 C 
ATOM     28  O   UNK A   0      -1.876   6.863 129.073  0.00  0.00    +0.000 OA
ATOM     29  N   UNK A   0      -3.824   6.143 128.013  0.00  0.00    +0.000 N 
ATOM     30  H   UNK A   0      -4.604   6.567 127.516  0.00  0.00    +0.000 HD
ENDBRANCH  20  29
ENDBRANCH  19  23
BRANCH  19  31
ATOM     31  C   UNK A   0      -6.339   1.769 125.585  0.00  0.00    +0.000 C 
ATOM     32  O   UNK A   0      -7.273   2.133 126.292  0.00  0.00    +0.000 OA
ATOM     33  N   UNK A   0      -6.154   2.219 124.293  0.00  0.00    +0.000 N 
ATOM     34  H   UNK A   0      -5.699   1.578 123.646  0.00  0.00    +0.000 HD
BRANCH  33  35
ATOM     35  C   UNK A   0      -6.915   3.346 123.769  0.00  0.00    +0.000 C 
ATOM     36  C   UNK A   0      -8.429   3.072 123.726  0.00  0.00    +0.000 C 
ATOM     37  C   UNK A   0      -6.612   4.560 124.659  0.00  0.00    +0.000 C 
ATOM     38  C   UNK A   0      -6.437   3.637 122.341  0.00  0.00    +0.000 C 
ENDBRANCH  33  35
ENDBRANCH  19  31
ENDBRANCH   1  19
BRANCH   8  39
ATOM     39  CB  LEU A   1      -8.162  -0.840 124.350  0.00  0.00    +0.000 C 
BRANCH  39  40
ATOM     40  CG  LEU A   1      -7.918  -1.675 123.176  0.00  0.00    +0.000 C 
ATOM     41  CD1 LEU A   1      -9.254  -0.990 122.676  0.00  0.00    +0.000 C 
ATOM     42  CD2 LEU A   1      -6.387  -1.752 122.579  0.00  0.00    +0.000 C 
ENDBRANCH  39  40
ENDBRANCH   8  39
TORSDOF 8
ENDMDL
MODEL 9
REMARK VINA RESULT:      -9.3      2.444      8.195
REMARK  Name = CHEMBL372554
REMARK  14 active torsions:
REMARK  status: ('A' for Active; 'I' for Inactive)
REMARK    1  A    between atoms: C_1  and  C_2
REMARK    2  A    between atoms: N_4  and  C_5
REMARK    3  A    between atoms: C_8  and  C_9
REMARK    4  A    between atoms: C_9  and  C_10
REMARK    5  A    between atoms: C_9  and  N_17
REMARK    6  A    between atoms: N_12  and  C_13
REMARK    7  A    between atoms: C_13  and  C_14
REMARK    8  A    between atoms: C_13  and  C_15
REMARK    9  A    between atoms: C_13  and  C_16
REMARK   10  A    between atoms: C_20  and  C_21
REMARK   11  A    between atoms: CA_33  and  CB_34
REMARK   12  A    between atoms: CB_34  and  CG_35
REMARK   13  A    between atoms: CG_35  and  CD1_36
REMARK   14  A    between atoms: CG_35  and  CD2_37
REMARK                            x       y       z     vdW  Elec       q    Type
REMARK                         _______ _______ _______ _____ _____    ______ ____
ROOT
ATOM      1  N   LEU A   1      -6.268   3.655 129.345  0.00  0.00    +0.000 N 
ATOM      2  C   UNK A   2      -6.430   2.552 128.485  0.00  0.00    +0.000 C 
ATOM      3  O   UNK A   2      -7.372   1.751 128.703  0.00  0.00    +0.000 OA
ATOM      4  C   UNK A   2      -5.423   2.333 127.275  0.00  0.00    +0.000 C 
ATOM      5  N   UNK A   2      -5.238   3.624 126.674  0.00  0.00    +0.000 N 
ATOM      6  C   LEU A   1      -4.854   4.648 127.444  0.00  0.00    +0.000 C 
ATOM      7  O   LEU A   1      -4.377   5.657 126.862  0.00  0.00    +0.000 OA
ATOM      8  CA  LEU A   1      -4.957   4.463 128.960  0.00  0.00    +0.000 C 
ATOM      9  H   UNK A   2      -5.078   3.775 125.687  0.00  0.00    +0.000 HD
ENDROOT
BRANCH   4  10
ATOM     10  C   UNK A   2      -6.135   1.373 126.328  0.00  0.00    +0.000 C 
ATOM     11  C   UNK A   2      -5.385   0.023 126.353  0.00  0.00    +0.000 C 
ATOM     12  C   UNK A   2      -5.966  -0.658 125.178  0.00  0.00    +0.000 A 
ATOM     13  C   UNK A   2      -5.460  -1.754 124.529  0.00  0.00    +0.000 A 
ATOM     14  C   UNK A   2      -6.141  -2.230 123.427  0.00  0.00    +0.000 A 
ATOM     15  C   UNK A   2      -7.438  -1.774 123.204  0.00  0.00    +0.000 A 
ATOM     16  C   UNK A   2      -7.855  -0.564 123.795  0.00  0.00    +0.000 A 
ATOM     17  C   UNK A   2      -6.937   0.121 124.583  0.00  0.00    +0.000 A 
ATOM     18  C   UNK A   2      -6.395   1.552 124.826  0.00  0.00    +0.000 C 
ENDBRANCH   4  10
BRANCH   1  19
ATOM     19  C   UNK A   0      -7.388   3.636 130.672  0.00  0.00    +0.000 C 
BRANCH  19  23
ATOM     20  C   UNK A   0     -10.835   6.742 130.753  0.00  0.00    +0.000 A 
ATOM     21  C   UNK A   0     -10.987   5.468 131.390  0.00  0.00    +0.000 A 
ATOM     22  C   UNK A   0      -9.780   4.585 131.921  0.00  0.00    +0.000 A 
ATOM     23  C   UNK A   0      -8.416   4.894 131.485  0.00  0.00    +0.000 A 
ATOM     24  C   UNK A   0      -8.291   6.312 131.009  0.00  0.00    +0.000 A 
ATOM     25  C   UNK A   0      -9.485   7.178 130.614  0.00  0.00    +0.000 A 
BRANCH  20  29
ATOM     26  C   UNK A   0     -13.146   8.447 128.283  0.00  0.00    +0.000 C 
ATOM     27  C   UNK A   0     -12.291   7.271 128.726  0.00  0.00    +0.000 C 
ATOM     28  O   UNK A   0     -11.902   6.443 127.920  0.00  0.00    +0.000 OA
ATOM     29  N   UNK A   0     -11.997   7.295 130.088  0.00  0.00    +0.000 N 
ATOM     30  H   UNK A   0     -12.682   7.762 130.678  0.00  0.00    +0.000 HD
ENDBRANCH  20  29
ENDBRANCH  19  23
BRANCH  19  31
ATOM     31  C   UNK A   0      -6.458   3.097 131.788  0.00  0.00    +0.000 C 
ATOM     32  O   UNK A   0      -5.762   3.854 132.458  0.00  0.00    +0.000 OA
ATOM     33  N   UNK A   0      -6.456   1.727 131.957  0.00  0.00    +0.000 N 
ATOM     34  H   UNK A   0      -6.654   1.164 131.132  0.00  0.00    +0.000 HD
BRANCH  33  35
ATOM     35  C   UNK A   0      -5.815   1.108 133.110  0.00  0.00    +0.000 C 
ATOM     36  C   UNK A   0      -6.157   1.819 134.431  0.00  0.00    +0.000 C 
ATOM     37  C   UNK A   0      -6.266  -0.359 133.155  0.00  0.00    +0.000 C 
ATOM     38  C   UNK A   0      -4.296   1.161 132.913  0.00  0.00    +0.000 C 
ENDBRANCH  33  35
ENDBRANCH  19  31
ENDBRANCH   1  19
BRANCH   8  39
ATOM     39  CB  LEU A   1      -4.800   5.948 129.349  0.00  0.00    +0.000 C 
BRANCH  39  40
ATOM     40  CG  LEU A   1      -3.690   5.968 130.299  0.00  0.00    +0.000 C 
ATOM     41  CD1 LEU A   1      -4.670   6.920 131.097  0.00  0.00    +0.000 C 
ATOM     42  CD2 LEU A   1      -2.945   4.545 130.656  0.00  0.00    +0.000 C 
ENDBRANCH  39  40
ENDBRANCH   8  39
TORSDOF 8
ENDMDL
