MODEL 1
REMARK VINA RESULT:      -7.1      0.000      0.000
REMARK  Name = CHEMBL489387
REMARK  10 active torsions:
REMARK  status: ('A' for Active; 'I' for Inactive)
REMARK    1  A    between atoms: C_1  and  C_2
REMARK    2  A    between atoms: C_2  and  O_3
REMARK    3  A    between atoms: O_3  and  C_4
REMARK    4  A    between atoms: C_7  and  C_8
REMARK    5  A    between atoms: C_11  and  C_12
REMARK    6  A    between atoms: C_12  and  N_13
REMARK    7  A    between atoms: N_18  and  C_19
REMARK    8  A    between atoms: C_22  and  O_23
REMARK    9  A    between atoms: O_23  and  C_24
REMARK   10  A    between atoms: C_28  and  C_29
REMARK                            x       y       z     vdW  Elec       q    Type
REMARK                         _______ _______ _______ _____ _____    ______ ____
ROOT
ATOM      1  C   UNL     1      -6.241   1.276 127.437  0.00  0.00    +0.000 A 
ATOM      2  N   UNL     1      -6.348   0.363 128.389  0.00  0.00    +0.000 NA
ATOM      3  N   UNL     1      -7.365  -0.507 128.048  0.00  0.00    +0.000 NA
ATOM      4  C   UNL     1      -7.867  -0.153 126.870  0.00  0.00    +0.000 A 
ATOM      5  N   UNL     1      -7.202   0.997 126.478  0.00  0.00    +0.000 N 
ENDROOT
BRANCH   1   9
ATOM      6  C   UNL     1      -3.455   4.594 127.502  0.00  0.00    +0.000 A 
ATOM      7  C   UNL     1      -4.754   4.729 128.025  0.00  0.00    +0.000 A 
ATOM      8  C   UNL     1      -5.692   3.676 127.964  0.00  0.00    +0.000 A 
ATOM      9  C   UNL     1      -5.343   2.450 127.396  0.00  0.00    +0.000 A 
ATOM     10  C   UNL     1      -4.038   2.321 126.886  0.00  0.00    +0.000 A 
ATOM     11  C   UNL     1      -3.081   3.359 126.955  0.00  0.00    +0.000 A 
ATOM     12  C   UNL     1      -1.693   3.041 126.474  0.00  0.00    +0.000 C 
BRANCH   6  13
ATOM     13  O   UNL     1      -2.622   5.676 127.688  0.00  0.00    +0.000 OA
BRANCH  13  15
ATOM     14  C   UNL     1      -2.095   6.455 129.932  0.00  0.00    +0.000 C 
ATOM     15  C   UNL     1      -3.000   6.595 128.720  0.00  0.00    +0.000 C 
ENDBRANCH  13  15
ENDBRANCH   6  13
ENDBRANCH   1   9
BRANCH   5  16
ATOM     16  C   UNL     1      -7.399   1.760 125.321  0.00  0.00    +0.000 A 
ATOM     17  C   UNL     1      -6.726   1.411 124.157  0.00  0.00    +0.000 A 
ATOM     18  C   UNL     1      -7.131   2.017 122.974  0.00  0.00    +0.000 A 
ATOM     19  C   UNL     1      -8.131   2.983 123.022  0.00  0.00    +0.000 A 
ATOM     20  N   UNL     1      -8.669   3.430 124.182  0.00  0.00    +0.000 NA
ATOM     21  C   UNL     1      -8.320   2.784 125.316  0.00  0.00    +0.000 A 
BRANCH  19  22
ATOM     22  O   UNL     1      -8.839   3.410 121.929  0.00  0.00    +0.000 OA
ATOM     23  C   UNL     1      -8.085   3.748 120.775  0.00  0.00    +0.000 C 
ENDBRANCH  19  22
ENDBRANCH   5  16
BRANCH   4  24
ATOM     24  C   UNL     1      -8.910  -0.964 126.131  0.00  0.00    +0.000 C 
BRANCH  24  25
ATOM     25  N   UNL     1      -8.560  -1.505 124.817  0.00  0.00    +0.000 N 
ATOM     26  N   UNL     1      -7.410  -2.189 124.604  0.00  0.00    +0.000 NA
ATOM     27  C   UNL     1      -7.401  -2.272 123.266  0.00  0.00    +0.000 A 
ATOM     28  C   UNL     1      -8.576  -1.716 122.740  0.00  0.00    +0.000 A 
ATOM     29  N   UNL     1      -9.358  -1.292 123.740  0.00  0.00    +0.000 NA
ENDBRANCH  24  25
ENDBRANCH   4  24
TORSDOF 7
ENDMDL
MODEL 2
REMARK VINA RESULT:      -7.0      4.117      6.609
REMARK  Name = CHEMBL489387
REMARK  10 active torsions:
REMARK  status: ('A' for Active; 'I' for Inactive)
REMARK    1  A    between atoms: C_1  and  C_2
REMARK    2  A    between atoms: C_2  and  O_3
REMARK    3  A    between atoms: O_3  and  C_4
REMARK    4  A    between atoms: C_7  and  C_8
REMARK    5  A    between atoms: C_11  and  C_12
REMARK    6  A    between atoms: C_12  and  N_13
REMARK    7  A    between atoms: N_18  and  C_19
REMARK    8  A    between atoms: C_22  and  O_23
REMARK    9  A    between atoms: O_23  and  C_24
REMARK   10  A    between atoms: C_28  and  C_29
REMARK                            x       y       z     vdW  Elec       q    Type
REMARK                         _______ _______ _______ _____ _____    ______ ____
ROOT
ATOM      1  C   UNL     1      -8.180   0.574 126.753  0.00  0.00    +0.000 A 
ATOM      2  N   UNL     1      -8.813   1.708 127.009  0.00  0.00    +0.000 NA
ATOM      3  N   UNL     1      -8.829   2.470 125.858  0.00  0.00    +0.000 NA
ATOM      4  C   UNL     1      -8.233   1.797 124.880  0.00  0.00    +0.000 A 
ATOM      5  N   UNL     1      -7.776   0.610 125.427  0.00  0.00    +0.000 N 
ENDROOT
BRANCH   1   9
ATOM      6  C   UNL     1      -7.490  -2.641 129.574  0.00  0.00    +0.000 A 
ATOM      7  C   UNL     1      -6.988  -1.349 129.812  0.00  0.00    +0.000 A 
ATOM      8  C   UNL     1      -7.157  -0.303 128.879  0.00  0.00    +0.000 A 
ATOM      9  C   UNL     1      -7.856  -0.522 127.691  0.00  0.00    +0.000 A 
ATOM     10  C   UNL     1      -8.364  -1.814 127.467  0.00  0.00    +0.000 A 
ATOM     11  C   UNL     1      -8.219  -2.868 128.398  0.00  0.00    +0.000 A 
ATOM     12  C   UNL     1      -8.912  -4.162 128.077  0.00  0.00    +0.000 C 
BRANCH   6  13
ATOM     13  O   UNL     1      -7.312  -3.548 130.596  0.00  0.00    +0.000 OA
BRANCH  13  15
ATOM     14  C   UNL     1      -5.536  -5.046 131.320  0.00  0.00    +0.000 C 
ATOM     15  C   UNL     1      -5.999  -3.607 131.168  0.00  0.00    +0.000 C 
ENDBRANCH  13  15
ENDBRANCH   6  13
ENDBRANCH   1   9
BRANCH   5  16
ATOM     16  C   UNL     1      -7.064  -0.417 124.798  0.00  0.00    +0.000 A 
ATOM     17  C   UNL     1      -5.749  -0.660 125.176  0.00  0.00    +0.000 A 
ATOM     18  C   UNL     1      -5.157  -1.835 124.726  0.00  0.00    +0.000 A 
ATOM     19  C   UNL     1      -5.878  -2.666 123.875  0.00  0.00    +0.000 A 
ATOM     20  N   UNL     1      -7.098  -2.342 123.386  0.00  0.00    +0.000 NA
ATOM     21  C   UNL     1      -7.692  -1.235 123.885  0.00  0.00    +0.000 A 
BRANCH  19  22
ATOM     22  O   UNL     1      -5.556  -3.975 123.628  0.00  0.00    +0.000 OA
ATOM     23  C   UNL     1      -4.177  -4.311 123.670  0.00  0.00    +0.000 C 
ENDBRANCH  19  22
ENDBRANCH   5  16
BRANCH   4  24
ATOM     24  C   UNL     1      -8.185   2.280 123.445  0.00  0.00    +0.000 C 
BRANCH  24  25
ATOM     25  N   UNL     1      -7.000   3.014 123.003  0.00  0.00    +0.000 N 
ATOM     26  N   UNL     1      -6.126   3.565 123.879  0.00  0.00    +0.000 NA
ATOM     27  C   UNL     1      -5.370   4.310 123.059  0.00  0.00    +0.000 A 
ATOM     28  C   UNL     1      -5.761   4.110 121.728  0.00  0.00    +0.000 A 
ATOM     29  N   UNL     1      -6.758   3.218 121.683  0.00  0.00    +0.000 NA
ENDBRANCH  24  25
ENDBRANCH   4  24
TORSDOF 7
ENDMDL
MODEL 3
REMARK VINA RESULT:      -7.0      2.948      6.981
REMARK  Name = CHEMBL489387
REMARK  10 active torsions:
REMARK  status: ('A' for Active; 'I' for Inactive)
REMARK    1  A    between atoms: C_1  and  C_2
REMARK    2  A    between atoms: C_2  and  O_3
REMARK    3  A    between atoms: O_3  and  C_4
REMARK    4  A    between atoms: C_7  and  C_8
REMARK    5  A    between atoms: C_11  and  C_12
REMARK    6  A    between atoms: C_12  and  N_13
REMARK    7  A    between atoms: N_18  and  C_19
REMARK    8  A    between atoms: C_22  and  O_23
REMARK    9  A    between atoms: O_23  and  C_24
REMARK   10  A    between atoms: C_28  and  C_29
REMARK                            x       y       z     vdW  Elec       q    Type
REMARK                         _______ _______ _______ _____ _____    ______ ____
ROOT
ATOM      1  C   UNL     1      -5.499   1.219 127.349  0.00  0.00    +0.000 A 
ATOM      2  N   UNL     1      -4.598   1.419 128.298  0.00  0.00    +0.000 NA
ATOM      3  N   UNL     1      -4.258   2.758 128.304  0.00  0.00    +0.000 NA
ATOM      4  C   UNL     1      -4.971   3.394 127.381  0.00  0.00    +0.000 A 
ATOM      5  N   UNL     1      -5.736   2.438 126.733  0.00  0.00    +0.000 N 
ENDROOT
BRANCH   1   9
ATOM      6  C   UNL     1      -7.335  -2.411 125.860  0.00  0.00    +0.000 A 
ATOM      7  C   UNL     1      -7.945  -1.657 126.879  0.00  0.00    +0.000 A 
ATOM      8  C   UNL     1      -7.335  -0.501 127.413  0.00  0.00    +0.000 A 
ATOM      9  C   UNL     1      -6.106  -0.059 126.922  0.00  0.00    +0.000 A 
ATOM     10  C   UNL     1      -5.509  -0.815 125.896  0.00  0.00    +0.000 A 
ATOM     11  C   UNL     1      -6.114  -1.964 125.338  0.00  0.00    +0.000 A 
ATOM     12  C   UNL     1      -5.416  -2.603 124.171  0.00  0.00    +0.000 C 
BRANCH   6  13
ATOM     13  O   UNL     1      -8.070  -3.476 125.386  0.00  0.00    +0.000 OA
BRANCH  13  15
ATOM     14  C   UNL     1      -9.313  -3.009 123.347  0.00  0.00    +0.000 C 
ATOM     15  C   UNL     1      -9.365  -3.166 124.857  0.00  0.00    +0.000 C 
ENDBRANCH  13  15
ENDBRANCH   6  13
ENDBRANCH   1   9
BRANCH   5  16
ATOM     16  C   UNL     1      -6.628   2.617 125.669  0.00  0.00    +0.000 A 
ATOM     17  C   UNL     1      -6.164   2.485 124.366  0.00  0.00    +0.000 A 
ATOM     18  C   UNL     1      -7.110   2.413 123.351  0.00  0.00    +0.000 A 
ATOM     19  C   UNL     1      -8.456   2.542 123.678  0.00  0.00    +0.000 A 
ATOM     20  N   UNL     1      -8.887   2.829 124.928  0.00  0.00    +0.000 NA
ATOM     21  C   UNL     1      -7.967   2.827 125.917  0.00  0.00    +0.000 A 
BRANCH  19  22
ATOM     22  O   UNL     1      -9.485   2.171 122.851  0.00  0.00    +0.000 OA
ATOM     23  C   UNL     1      -9.989   0.854 123.015  0.00  0.00    +0.000 C 
ENDBRANCH  19  22
ENDBRANCH   5  16
BRANCH   4  24
ATOM     24  C   UNL     1      -4.950   4.897 127.201  0.00  0.00    +0.000 C 
BRANCH  24  25
ATOM     25  N   UNL     1      -4.022   5.677 128.020  0.00  0.00    +0.000 N 
ATOM     26  N   UNL     1      -4.452   6.520 128.991  0.00  0.00    +0.000 NA
ATOM     27  C   UNL     1      -3.318   7.169 129.292  0.00  0.00    +0.000 A 
ATOM     28  C   UNL     1      -2.248   6.636 128.560  0.00  0.00    +0.000 A 
ATOM     29  N   UNL     1      -2.684   5.626 127.799  0.00  0.00    +0.000 NA
ENDBRANCH  24  25
ENDBRANCH   4  24
TORSDOF 7
ENDMDL
MODEL 4
REMARK VINA RESULT:      -7.0      6.110      9.291
REMARK  Name = CHEMBL489387
REMARK  10 active torsions:
REMARK  status: ('A' for Active; 'I' for Inactive)
REMARK    1  A    between atoms: C_1  and  C_2
REMARK    2  A    between atoms: C_2  and  O_3
REMARK    3  A    between atoms: O_3  and  C_4
REMARK    4  A    between atoms: C_7  and  C_8
REMARK    5  A    between atoms: C_11  and  C_12
REMARK    6  A    between atoms: C_12  and  N_13
REMARK    7  A    between atoms: N_18  and  C_19
REMARK    8  A    between atoms: C_22  and  O_23
REMARK    9  A    between atoms: O_23  and  C_24
REMARK   10  A    between atoms: C_28  and  C_29
REMARK                            x       y       z     vdW  Elec       q    Type
REMARK                         _______ _______ _______ _____ _____    ______ ____
ROOT
ATOM      1  C   UNL     1      -9.791   3.129 130.741  0.00  0.00    +0.000 A 
ATOM      2  N   UNL     1     -10.801   3.229 129.893  0.00  0.00    +0.000 NA
ATOM      3  N   UNL     1     -11.348   4.492 130.010  0.00  0.00    +0.000 NA
ATOM      4  C   UNL     1     -10.657   5.186 130.909  0.00  0.00    +0.000 A 
ATOM      5  N   UNL     1      -9.691   4.335 131.418  0.00  0.00    +0.000 N 
ENDROOT
BRANCH   1   9
ATOM      6  C   UNL     1      -7.387  -0.429 131.319  0.00  0.00    +0.000 A 
ATOM      7  C   UNL     1      -8.587  -0.243 132.028  0.00  0.00    +0.000 A 
ATOM      8  C   UNL     1      -9.356   0.933 131.893  0.00  0.00    +0.000 A 
ATOM      9  C   UNL     1      -8.950   1.946 131.023  0.00  0.00    +0.000 A 
ATOM     10  C   UNL     1      -7.754   1.746 130.309  0.00  0.00    +0.000 A 
ATOM     11  C   UNL     1      -6.982   0.567 130.420  0.00  0.00    +0.000 A 
ATOM     12  C   UNL     1      -5.791   0.444 129.512  0.00  0.00    +0.000 C 
BRANCH   6  13
ATOM     13  O   UNL     1      -6.774  -1.650 131.495  0.00  0.00    +0.000 OA
BRANCH  13  15
ATOM     14  C   UNL     1      -7.432  -3.079 129.639  0.00  0.00    +0.000 C 
ATOM     15  C   UNL     1      -7.541  -2.803 131.129  0.00  0.00    +0.000 C 
ENDBRANCH  13  15
ENDBRANCH   6  13
ENDBRANCH   1   9
BRANCH   5  16
ATOM     16  C   UNL     1      -8.739   4.599 132.409  0.00  0.00    +0.000 A 
ATOM     17  C   UNL     1      -8.982   4.182 133.712  0.00  0.00    +0.000 A 
ATOM     18  C   UNL     1      -7.923   4.227 134.610  0.00  0.00    +0.000 A 
ATOM     19  C   UNL     1      -6.703   4.744 134.185  0.00  0.00    +0.000 A 
ATOM     20  N   UNL     1      -6.523   5.295 132.961  0.00  0.00    +0.000 NA
ATOM     21  C   UNL     1      -7.536   5.181 132.075  0.00  0.00    +0.000 A 
BRANCH  19  22
ATOM     22  O   UNL     1      -5.517   4.549 134.842  0.00  0.00    +0.000 OA
ATOM     23  C   UNL     1      -4.438   4.041 134.071  0.00  0.00    +0.000 C 
ENDBRANCH  19  22
ENDBRANCH   5  16
BRANCH   4  24
ATOM     24  C   UNL     1     -10.900   6.653 131.194  0.00  0.00    +0.000 C 
BRANCH  24  25
ATOM     25  N   UNL     1     -10.994   7.571 130.059  0.00  0.00    +0.000 N 
ATOM     26  N   UNL     1     -12.141   8.225 129.756  0.00  0.00    +0.000 NA
ATOM     27  C   UNL     1     -11.840   8.736 128.554  0.00  0.00    +0.000 A 
ATOM     28  C   UNL     1     -10.509   8.443 128.225  0.00  0.00    +0.000 A 
ATOM     29  N   UNL     1      -9.940   7.760 129.226  0.00  0.00    +0.000 NA
ENDBRANCH  24  25
ENDBRANCH   4  24
TORSDOF 7
ENDMDL
MODEL 5
REMARK VINA RESULT:      -7.0      3.613      6.112
REMARK  Name = CHEMBL489387
REMARK  10 active torsions:
REMARK  status: ('A' for Active; 'I' for Inactive)
REMARK    1  A    between atoms: C_1  and  C_2
REMARK    2  A    between atoms: C_2  and  O_3
REMARK    3  A    between atoms: O_3  and  C_4
REMARK    4  A    between atoms: C_7  and  C_8
REMARK    5  A    between atoms: C_11  and  C_12
REMARK    6  A    between atoms: C_12  and  N_13
REMARK    7  A    between atoms: N_18  and  C_19
REMARK    8  A    between atoms: C_22  and  O_23
REMARK    9  A    between atoms: O_23  and  C_24
REMARK   10  A    between atoms: C_28  and  C_29
REMARK                            x       y       z     vdW  Elec       q    Type
REMARK                         _______ _______ _______ _____ _____    ______ ____
ROOT
ATOM      1  C   UNL     1      -6.209   1.389 126.790  0.00  0.00    +0.000 A 
ATOM      2  N   UNL     1      -5.534   2.435 127.239  0.00  0.00    +0.000 NA
ATOM      3  N   UNL     1      -5.641   3.455 126.315  0.00  0.00    +0.000 NA
ATOM      4  C   UNL     1      -6.408   3.053 125.307  0.00  0.00    +0.000 A 
ATOM      5  N   UNL     1      -6.749   1.735 125.561  0.00  0.00    +0.000 N 
ENDROOT
BRANCH   1   9
ATOM      6  C   UNL     1      -6.426  -2.445 128.796  0.00  0.00    +0.000 A 
ATOM      7  C   UNL     1      -5.569  -2.250 127.697  0.00  0.00    +0.000 A 
ATOM      8  C   UNL     1      -5.525  -1.025 126.998  0.00  0.00    +0.000 A 
ATOM      9  C   UNL     1      -6.324   0.047 127.399  0.00  0.00    +0.000 A 
ATOM     10  C   UNL     1      -7.170  -0.154 128.506  0.00  0.00    +0.000 A 
ATOM     11  C   UNL     1      -7.213  -1.369 129.228  0.00  0.00    +0.000 A 
ATOM     12  C   UNL     1      -8.077  -1.402 130.456  0.00  0.00    +0.000 C 
BRANCH   6  13
ATOM     13  O   UNL     1      -6.319  -3.666 129.425  0.00  0.00    +0.000 OA
BRANCH  13  15
ATOM     14  C   UNL     1      -5.395  -4.902 131.307  0.00  0.00    +0.000 C 
ATOM     15  C   UNL     1      -5.146  -3.868 130.222  0.00  0.00    +0.000 C 
ENDBRANCH  13  15
ENDBRANCH   6  13
ENDBRANCH   1   9
BRANCH   5  16
ATOM     16  C   UNL     1      -7.523   0.873 124.774  0.00  0.00    +0.000 A 
ATOM     17  C   UNL     1      -6.893   0.063 123.838  0.00  0.00    +0.000 A 
ATOM     18  C   UNL     1      -7.644  -0.955 123.261  0.00  0.00    +0.000 A 
ATOM     19  C   UNL     1      -8.989  -1.068 123.594  0.00  0.00    +0.000 A 
ATOM     20  N   UNL     1      -9.631  -0.176 124.385  0.00  0.00    +0.000 NA
ATOM     21  C   UNL     1      -8.878   0.765 124.996  0.00  0.00    +0.000 A 
BRANCH  19  22
ATOM     22  O   UNL     1      -9.745  -2.189 123.365  0.00  0.00    +0.000 OA
ATOM     23  C   UNL     1      -9.312  -3.387 123.991  0.00  0.00    +0.000 C 
ENDBRANCH  19  22
ENDBRANCH   5  16
BRANCH   4  24
ATOM     24  C   UNL     1      -6.845   3.963 124.179  0.00  0.00    +0.000 C 
BRANCH  24  25
ATOM     25  N   UNL     1      -6.109   3.900 122.916  0.00  0.00    +0.000 N 
ATOM     26  N   UNL     1      -5.063   4.720 122.650  0.00  0.00    +0.000 NA
ATOM     27  C   UNL     1      -4.870   4.480 121.345  0.00  0.00    +0.000 A 
ATOM     28  C   UNL     1      -5.741   3.473 120.906  0.00  0.00    +0.000 A 
ATOM     29  N   UNL     1      -6.485   3.045 121.932  0.00  0.00    +0.000 NA
ENDBRANCH  24  25
ENDBRANCH   4  24
TORSDOF 7
ENDMDL
MODEL 6
REMARK VINA RESULT:      -7.0      3.311      6.727
REMARK  Name = CHEMBL489387
REMARK  10 active torsions:
REMARK  status: ('A' for Active; 'I' for Inactive)
REMARK    1  A    between atoms: C_1  and  C_2
REMARK    2  A    between atoms: C_2  and  O_3
REMARK    3  A    between atoms: O_3  and  C_4
REMARK    4  A    between atoms: C_7  and  C_8
REMARK    5  A    between atoms: C_11  and  C_12
REMARK    6  A    between atoms: C_12  and  N_13
REMARK    7  A    between atoms: N_18  and  C_19
REMARK    8  A    between atoms: C_22  and  O_23
REMARK    9  A    between atoms: O_23  and  C_24
REMARK   10  A    between atoms: C_28  and  C_29
REMARK                            x       y       z     vdW  Elec       q    Type
REMARK                         _______ _______ _______ _____ _____    ______ ____
ROOT
ATOM      1  C   UNL     1      -7.503   0.962 127.355  0.00  0.00    +0.000 A 
ATOM      2  N   UNL     1      -7.679   0.844 128.661  0.00  0.00    +0.000 NA
ATOM      3  N   UNL     1      -7.885   2.102 129.191  0.00  0.00    +0.000 NA
ATOM      4  C   UNL     1      -7.868   2.998 128.210  0.00  0.00    +0.000 A 
ATOM      5  N   UNL     1      -7.588   2.310 127.041  0.00  0.00    +0.000 N 
ENDROOT
BRANCH   1   9
ATOM      6  C   UNL     1      -6.618  -2.332 124.684  0.00  0.00    +0.000 A 
ATOM      7  C   UNL     1      -5.597  -1.488 125.156  0.00  0.00    +0.000 A 
ATOM      8  C   UNL     1      -5.873  -0.379 125.984  0.00  0.00    +0.000 A 
ATOM      9  C   UNL     1      -7.182  -0.100 126.378  0.00  0.00    +0.000 A 
ATOM     10  C   UNL     1      -8.196  -0.956 125.909  0.00  0.00    +0.000 A 
ATOM     11  C   UNL     1      -7.935  -2.081 125.095  0.00  0.00    +0.000 A 
ATOM     12  C   UNL     1      -9.100  -2.970 124.765  0.00  0.00    +0.000 C 
BRANCH   6  13
ATOM     13  O   UNL     1      -6.201  -3.414 123.940  0.00  0.00    +0.000 OA
BRANCH  13  15
ATOM     14  C   UNL     1      -4.217  -4.750 123.495  0.00  0.00    +0.000 C 
ATOM     15  C   UNL     1      -4.852  -3.371 123.460  0.00  0.00    +0.000 C 
ENDBRANCH  13  15
ENDBRANCH   6  13
ENDBRANCH   1   9
BRANCH   5  16
ATOM     16  C   UNL     1      -7.440   2.823 125.747  0.00  0.00    +0.000 A 
ATOM     17  C   UNL     1      -6.171   3.159 125.292  0.00  0.00    +0.000 A 
ATOM     18  C   UNL     1      -6.022   3.418 123.935  0.00  0.00    +0.000 A 
ATOM     19  C   UNL     1      -7.150   3.395 123.120  0.00  0.00    +0.000 A 
ATOM     20  N   UNL     1      -8.404   3.225 123.601  0.00  0.00    +0.000 NA
ATOM     21  C   UNL     1      -8.529   2.903 124.907  0.00  0.00    +0.000 A 
BRANCH  19  22
ATOM     22  O   UNL     1      -7.106   3.307 121.753  0.00  0.00    +0.000 OA
ATOM     23  C   UNL     1      -5.872   3.633 121.133  0.00  0.00    +0.000 C 
ENDBRANCH  19  22
ENDBRANCH   5  16
BRANCH   4  24
ATOM     24  C   UNL     1      -8.190   4.463 128.414  0.00  0.00    +0.000 C 
BRANCH  24  25
ATOM     25  N   UNL     1      -8.948   4.844 129.606  0.00  0.00    +0.000 N 
ATOM     26  N   UNL     1     -10.260   4.538 129.753  0.00  0.00    +0.000 NA
ATOM     27  C   UNL     1     -10.577   5.266 130.833  0.00  0.00    +0.000 A 
ATOM     28  C   UNL     1      -9.435   5.904 131.337  0.00  0.00    +0.000 A 
ATOM     29  N   UNL     1      -8.372   5.573 130.595  0.00  0.00    +0.000 NA
ENDBRANCH  24  25
ENDBRANCH   4  24
TORSDOF 7
ENDMDL
MODEL 7
REMARK VINA RESULT:      -6.9      5.833      7.986
REMARK  Name = CHEMBL489387
REMARK  10 active torsions:
REMARK  status: ('A' for Active; 'I' for Inactive)
REMARK    1  A    between atoms: C_1  and  C_2
REMARK    2  A    between atoms: C_2  and  O_3
REMARK    3  A    between atoms: O_3  and  C_4
REMARK    4  A    between atoms: C_7  and  C_8
REMARK    5  A    between atoms: C_11  and  C_12
REMARK    6  A    between atoms: C_12  and  N_13
REMARK    7  A    between atoms: N_18  and  C_19
REMARK    8  A    between atoms: C_22  and  O_23
REMARK    9  A    between atoms: O_23  and  C_24
REMARK   10  A    between atoms: C_28  and  C_29
REMARK                            x       y       z     vdW  Elec       q    Type
REMARK                         _______ _______ _______ _____ _____    ______ ____
ROOT
ATOM      1  C   UNL     1      -7.790   6.424 130.830  0.00  0.00    +0.000 A 
ATOM      2  N   UNL     1      -8.166   7.576 130.298  0.00  0.00    +0.000 NA
ATOM      3  N   UNL     1      -9.467   7.450 129.853  0.00  0.00    +0.000 NA
ATOM      4  C   UNL     1      -9.910   6.229 130.137  0.00  0.00    +0.000 A 
ATOM      5  N   UNL     1      -8.856   5.544 130.720  0.00  0.00    +0.000 N 
ENDROOT
BRANCH   1   9
ATOM      6  C   UNL     1      -3.963   5.096 132.365  0.00  0.00    +0.000 A 
ATOM      7  C   UNL     1      -4.957   5.591 133.228  0.00  0.00    +0.000 A 
ATOM      8  C   UNL     1      -6.189   6.077 132.741  0.00  0.00    +0.000 A 
ATOM      9  C   UNL     1      -6.465   6.059 131.373  0.00  0.00    +0.000 A 
ATOM     10  C   UNL     1      -5.469   5.552 130.518  0.00  0.00    +0.000 A 
ATOM     11  C   UNL     1      -4.237   5.044 130.992  0.00  0.00    +0.000 A 
ATOM     12  C   UNL     1      -3.317   4.429 129.975  0.00  0.00    +0.000 C 
BRANCH   6  13
ATOM     13  O   UNL     1      -2.837   4.591 132.979  0.00  0.00    +0.000 OA
BRANCH  13  15
ATOM     14  C   UNL     1      -2.990   2.165 133.075  0.00  0.00    +0.000 C 
ATOM     15  C   UNL     1      -3.039   3.471 133.849  0.00  0.00    +0.000 C 
ENDBRANCH  13  15
ENDBRANCH   6  13
ENDBRANCH   1   9
BRANCH   5  16
ATOM     16  C   UNL     1      -8.826   4.218 131.167  0.00  0.00    +0.000 A 
ATOM     17  C   UNL     1      -9.221   3.932 132.467  0.00  0.00    +0.000 A 
ATOM     18  C   UNL     1      -9.426   2.597 132.798  0.00  0.00    +0.000 A 
ATOM     19  C   UNL     1      -9.163   1.621 131.843  0.00  0.00    +0.000 A 
ATOM     20  N   UNL     1      -8.626   1.900 130.631  0.00  0.00    +0.000 NA
ATOM     21  C   UNL     1      -8.499   3.203 130.295  0.00  0.00    +0.000 A 
BRANCH  19  22
ATOM     22  O   UNL     1      -9.621   0.332 131.918  0.00  0.00    +0.000 OA
ATOM     23  C   UNL     1      -8.639  -0.694 131.915  0.00  0.00    +0.000 C 
ENDBRANCH  19  22
ENDBRANCH   5  16
BRANCH   4  24
ATOM     24  C   UNL     1     -11.340   5.787 129.909  0.00  0.00    +0.000 C 
BRANCH  24  25
ATOM     25  N   UNL     1     -12.169   6.577 128.998  0.00  0.00    +0.000 N 
ATOM     26  N   UNL     1     -12.034   6.499 127.652  0.00  0.00    +0.000 NA
ATOM     27  C   UNL     1     -12.794   7.530 127.255  0.00  0.00    +0.000 A 
ATOM     28  C   UNL     1     -13.416   8.126 128.361  0.00  0.00    +0.000 A 
ATOM     29  N   UNL     1     -13.076   7.466 129.475  0.00  0.00    +0.000 NA
ENDBRANCH  24  25
ENDBRANCH   4  24
TORSDOF 7
ENDMDL
MODEL 8
REMARK VINA RESULT:      -6.9      4.239      6.434
REMARK  Name = CHEMBL489387
REMARK  10 active torsions:
REMARK  status: ('A' for Active; 'I' for Inactive)
REMARK    1  A    between atoms: C_1  and  C_2
REMARK    2  A    between atoms: C_2  and  O_3
REMARK    3  A    between atoms: O_3  and  C_4
REMARK    4  A    between atoms: C_7  and  C_8
REMARK    5  A    between atoms: C_11  and  C_12
REMARK    6  A    between atoms: C_12  and  N_13
REMARK    7  A    between atoms: N_18  and  C_19
REMARK    8  A    between atoms: C_22  and  O_23
REMARK    9  A    between atoms: O_23  and  C_24
REMARK   10  A    between atoms: C_28  and  C_29
REMARK                            x       y       z     vdW  Elec       q    Type
REMARK                         _______ _______ _______ _____ _____    ______ ____
ROOT
ATOM      1  C   UNL     1      -7.794  -0.201 127.649  0.00  0.00    +0.000 A 
ATOM      2  N   UNL     1      -8.379   0.901 128.090  0.00  0.00    +0.000 NA
ATOM      3  N   UNL     1      -8.718   1.683 127.003  0.00  0.00    +0.000 NA
ATOM      4  C   UNL     1      -8.372   1.052 125.886  0.00  0.00    +0.000 A 
ATOM      5  N   UNL     1      -7.748  -0.125 126.265  0.00  0.00    +0.000 N 
ENDROOT
BRANCH   1   9
ATOM      6  C   UNL     1      -5.911  -3.488 129.751  0.00  0.00    +0.000 A 
ATOM      7  C   UNL     1      -7.275  -3.531 129.413  0.00  0.00    +0.000 A 
ATOM      8  C   UNL     1      -7.918  -2.448 128.776  0.00  0.00    +0.000 A 
ATOM      9  C   UNL     1      -7.201  -1.299 128.441  0.00  0.00    +0.000 A 
ATOM     10  C   UNL     1      -5.834  -1.269 128.772  0.00  0.00    +0.000 A 
ATOM     11  C   UNL     1      -5.171  -2.352 129.394  0.00  0.00    +0.000 A 
ATOM     12  C   UNL     1      -3.686  -2.225 129.584  0.00  0.00    +0.000 C 
BRANCH   6  13
ATOM     13  O   UNL     1      -5.397  -4.639 130.308  0.00  0.00    +0.000 OA
BRANCH  13  15
ATOM     14  C   UNL     1      -4.306  -4.603 132.482  0.00  0.00    +0.000 C 
ATOM     15  C   UNL     1      -5.602  -4.806 131.716  0.00  0.00    +0.000 C 
ENDBRANCH  13  15
ENDBRANCH   6  13
ENDBRANCH   1   9
BRANCH   5  16
ATOM     16  C   UNL     1      -7.187  -1.111 125.445  0.00  0.00    +0.000 A 
ATOM     17  C   UNL     1      -5.846  -1.017 125.093  0.00  0.00    +0.000 A 
ATOM     18  C   UNL     1      -5.257  -2.129 124.502  0.00  0.00    +0.000 A 
ATOM     19  C   UNL     1      -6.046  -3.243 124.233  0.00  0.00    +0.000 A 
ATOM     20  N   UNL     1      -7.384  -3.265 124.434  0.00  0.00    +0.000 NA
ATOM     21  C   UNL     1      -7.932  -2.208 125.074  0.00  0.00    +0.000 A 
BRANCH  19  22
ATOM     22  O   UNL     1      -5.545  -4.490 123.966  0.00  0.00    +0.000 OA
ATOM     23  C   UNL     1      -4.182  -4.560 123.576  0.00  0.00    +0.000 C 
ENDBRANCH  19  22
ENDBRANCH   5  16
BRANCH   4  24
ATOM     24  C   UNL     1      -8.713   1.561 124.502  0.00  0.00    +0.000 C 
BRANCH  24  25
ATOM     25  N   UNL     1      -7.689   2.303 123.767  0.00  0.00    +0.000 N 
ATOM     26  N   UNL     1      -6.543   2.723 124.356  0.00  0.00    +0.000 NA
ATOM     27  C   UNL     1      -6.046   3.533 123.410  0.00  0.00    +0.000 A 
ATOM     28  C   UNL     1      -6.860   3.499 122.269  0.00  0.00    +0.000 A 
ATOM     29  N   UNL     1      -7.875   2.650 122.468  0.00  0.00    +0.000 NA
ENDBRANCH  24  25
ENDBRANCH   4  24
TORSDOF 7
ENDMDL
MODEL 9
REMARK VINA RESULT:      -6.9      4.419      7.832
REMARK  Name = CHEMBL489387
REMARK  10 active torsions:
REMARK  status: ('A' for Active; 'I' for Inactive)
REMARK    1  A    between atoms: C_1  and  C_2
REMARK    2  A    between atoms: C_2  and  O_3
REMARK    3  A    between atoms: O_3  and  C_4
REMARK    4  A    between atoms: C_7  and  C_8
REMARK    5  A    between atoms: C_11  and  C_12
REMARK    6  A    between atoms: C_12  and  N_13
REMARK    7  A    between atoms: N_18  and  C_19
REMARK    8  A    between atoms: C_22  and  O_23
REMARK    9  A    between atoms: O_23  and  C_24
REMARK   10  A    between atoms: C_28  and  C_29
REMARK                            x       y       z     vdW  Elec       q    Type
REMARK                         _______ _______ _______ _____ _____    ______ ____
ROOT
ATOM      1  C   UNL     1      -9.297   2.877 129.835  0.00  0.00    +0.000 A 
ATOM      2  N   UNL     1     -10.581   3.068 130.095  0.00  0.00    +0.000 NA
ATOM      3  N   UNL     1     -10.803   4.424 130.229  0.00  0.00    +0.000 NA
ATOM      4  C   UNL     1      -9.664   5.077 130.022  0.00  0.00    +0.000 A 
ATOM      5  N   UNL     1      -8.685   4.121 129.810  0.00  0.00    +0.000 N 
ENDROOT
BRANCH   1   9
ATOM      6  C   UNL     1      -7.412  -0.982 129.263  0.00  0.00    +0.000 A 
ATOM      7  C   UNL     1      -7.777  -0.537 130.547  0.00  0.00    +0.000 A 
ATOM      8  C   UNL     1      -8.343   0.738 130.758  0.00  0.00    +0.000 A 
ATOM      9  C   UNL     1      -8.579   1.594 129.681  0.00  0.00    +0.000 A 
ATOM     10  C   UNL     1      -8.221   1.136 128.400  0.00  0.00    +0.000 A 
ATOM     11  C   UNL     1      -7.670  -0.145 128.169  0.00  0.00    +0.000 A 
ATOM     12  C   UNL     1      -7.444  -0.542 126.737  0.00  0.00    +0.000 C 
BRANCH   6  13
ATOM     13  O   UNL     1      -6.933  -2.272 129.193  0.00  0.00    +0.000 OA
BRANCH  13  15
ATOM     14  C   UNL     1      -8.637  -3.758 128.292  0.00  0.00    +0.000 C 
ATOM     15  C   UNL     1      -7.863  -3.311 129.521  0.00  0.00    +0.000 C 
ENDBRANCH  13  15
ENDBRANCH   6  13
ENDBRANCH   1   9
BRANCH   5  16
ATOM     16  C   UNL     1      -7.319   4.316 129.574  0.00  0.00    +0.000 A 
ATOM     17  C   UNL     1      -6.425   4.194 130.631  0.00  0.00    +0.000 A 
ATOM     18  C   UNL     1      -5.070   4.138 130.323  0.00  0.00    +0.000 A 
ATOM     19  C   UNL     1      -4.677   4.273 128.996  0.00  0.00    +0.000 A 
ATOM     20  N   UNL     1      -5.545   4.551 127.994  0.00  0.00    +0.000 NA
ATOM     21  C   UNL     1      -6.863   4.532 128.293  0.00  0.00    +0.000 A 
BRANCH  19  22
ATOM     22  O   UNL     1      -3.442   3.917 128.522  0.00  0.00    +0.000 OA
ATOM     23  C   UNL     1      -2.682   4.938 127.893  0.00  0.00    +0.000 C 
ENDBRANCH  19  22
ENDBRANCH   5  16
BRANCH   4  24
ATOM     24  C   UNL     1      -9.568   6.587 129.962  0.00  0.00    +0.000 C 
BRANCH  24  25
ATOM     25  N   UNL     1     -10.232   7.277 128.857  0.00  0.00    +0.000 N 
ATOM     26  N   UNL     1     -11.098   8.300 129.064  0.00  0.00    +0.000 NA
ATOM     27  C   UNL     1     -11.620   8.450 127.838  0.00  0.00    +0.000 A 
ATOM     28  C   UNL     1     -10.993   7.580 126.936  0.00  0.00    +0.000 A 
ATOM     29  N   UNL     1     -10.047   6.879 127.573  0.00  0.00    +0.000 NA
ENDBRANCH  24  25
ENDBRANCH   4  24
TORSDOF 7
ENDMDL
