MODEL 1
REMARK VINA RESULT:      -9.7      0.000      0.000
REMARK  Name = CHEMBL2369838
REMARK  19 active torsions:
REMARK  status: ('A' for Active; 'I' for Inactive)
REMARK    1  A    between atoms: C_2  and  C_4
REMARK    2  A    between atoms: C_4  and  N_5
REMARK    3  A    between atoms: C_6  and  C_8
REMARK    4  A    between atoms: C_8  and  C_9
REMARK    5  A    between atoms: C_8  and  N_16
REMARK    6  A    between atoms: C_9  and  C_10
REMARK    7  A    between atoms: C_10  and  C_11
REMARK    8  A    between atoms: C_11  and  N_12
REMARK    9  A    between atoms: C_17  and  C_19
REMARK   10  A    between atoms: C_24  and  C_26
REMARK   11  A    between atoms: CA_35  and  CB_36
REMARK   12  A    between atoms: CB_36  and  CG_37
REMARK   13  A    between atoms: CZ_40  and  OH_41
REMARK   14  A    between atoms: CA_47  and  CB_48
REMARK   15  A    between atoms: CB_48  and  CG_49
REMARK   16  A    between atoms: C_58  and  C_59
REMARK   17  A    between atoms: C_59  and  O_60
REMARK   18  A    between atoms: C_64  and  C_65
REMARK   19  A    between atoms: C_65  and  C_66
REMARK                            x       y       z     vdW  Elec       q    Type
REMARK                         _______ _______ _______ _____ _____    ______ ____
ROOT
ATOM      1  C   UNK A   3      -6.539  -2.692 133.485  0.00  0.00    +0.000 C 
ATOM      2  C   UNK A   3      -6.965  -3.006 131.097  0.00  0.00    +0.000 C 
ATOM      3  S   UNK A   3      -6.890  -2.715 128.522  0.00  0.00    +0.000 S 
ATOM      4  S   UNK A   3      -7.325  -2.311 125.865  0.00  0.00    +0.000 S 
ATOM      5  C   UNK A   3      -6.817  -0.479 124.683  0.00  0.00    +0.000 C 
ATOM      6  C   UNK A   0      -7.325   0.890 123.961  0.00  0.00    +0.000 C 
ATOM      7  C   UNK A   0      -6.963   2.323 124.471  0.00  0.00    +0.000 C 
ATOM      8  O   UNK A   0      -7.108   3.368 123.851  0.00  0.00    +0.000 OA
ATOM      9  N   TYR A   1      -6.476   2.417 125.691  0.00  0.00    +0.000 N 
ATOM     10  CA  TYR A   1      -6.303   1.186 126.328  0.00  0.00    +0.000 C 
ATOM     11  C   TYR A   1      -7.786   0.624 126.939  0.00  0.00    +0.000 C 
ATOM     12  O   TYR A   1      -8.741   0.362 126.201  0.00  0.00    +0.000 OA
ATOM     13  N   PHE A   2      -8.042   0.056 128.076  0.00  0.00    +0.000 N 
ATOM     14  CA  PHE A   2      -7.384   0.353 129.159  0.00  0.00    +0.000 C 
ATOM     15  C   PHE A   2      -5.586  -0.533 129.097  0.00  0.00    +0.000 C 
ATOM     16  O   PHE A   2      -4.652  -0.458 128.286  0.00  0.00    +0.000 OA
ATOM     17  N   UNK A   3      -4.998  -0.915 130.322  0.00  0.00    +0.000 N 
ATOM     18  C   UNK A   3      -5.559  -0.822 131.609  0.00  0.00    +0.000 C 
ATOM     19  C   UNK A   3      -5.598   0.980 132.542  0.00  0.00    +0.000 C 
ATOM     20  O   UNK A   3      -6.115   2.180 132.368  0.00  0.00    +0.000 OA
ATOM     21  N   UNK A   3      -5.621   0.983 133.814  0.00  0.00    +0.000 N 
ATOM     22  C   UNK A   3      -5.505  -0.290 134.311  0.00  0.00    +0.000 C 
ATOM     23  C   UNK A   3      -7.213  -1.557 134.049  0.00  0.00    +0.000 C 
ATOM     24  O   UNK A   3      -8.129  -1.888 133.138  0.00  0.00    +0.000 OA
ATOM     25  N   UNK A   3      -7.402  -2.697 134.672  0.00  0.00    +0.000 N 
ATOM     26  H   TYR A   1      -6.181   3.332 126.083  0.00  0.00    +0.000 HD
ATOM     27  H   PHE A   2      -8.964  -0.234 128.294  0.00  0.00    +0.000 HD
ATOM     28  H   UNK A   3      -4.121  -1.344 130.429  0.00  0.00    +0.000 HD
ATOM     29  H   UNK A   3      -6.311   1.643 134.160  0.00  0.00    +0.000 HD
ATOM     30  H   UNK A   3      -7.474  -2.863 135.786  0.00  0.00    +0.000 HD
ENDROOT
BRANCH   1  36
ATOM     31  C   UNK A   3      -7.578  -2.244 138.570  0.00  0.00    +0.000 C 
ATOM     32  C   UNK A   3      -8.938  -1.499 138.980  0.00  0.00    +0.000 C 
ATOM     33  C   UNK A   3      -8.523  -0.638 140.077  0.00  0.00    +0.000 C 
ATOM     34  C   UNK A   3      -6.782  -0.366 139.231  0.00  0.00    +0.000 C 
ATOM     35  N   UNK A   3      -6.329  -1.447 137.549  0.00  0.00    +0.000 N 
ATOM     36  C   UNK A   3      -6.085  -1.669 135.484  0.00  0.00    +0.000 C 
ATOM     37  O   UNK A   3      -5.051  -1.043 135.995  0.00  0.00    +0.000 OA
BRANCH  31  39
ATOM     38  N   UNK A   3      -7.401  -4.215 137.118  0.00  0.00    +0.000 N 
ATOM     39  C   UNK A   3      -7.765  -3.128 137.586  0.00  0.00    +0.000 C 
ATOM     40  O   UNK A   3      -8.658  -2.836 136.903  0.00  0.00    +0.000 OA
ATOM     41  H   UNK A   3      -6.555  -4.483 137.419  0.00  0.00    +0.000 HD
BRANCH  38  42
ATOM     42  C   UNK A   3      -7.882  -4.701 135.903  0.00  0.00    +0.000 C 
BRANCH  42  44
ATOM     43  N   UNK A   3     -10.220  -5.411 136.527  0.00  0.00    +0.000 N 
ATOM     44  C   UNK A   3      -8.937  -5.475 136.471  0.00  0.00    +0.000 C 
ATOM     45  O   UNK A   3      -8.821  -6.572 136.894  0.00  0.00    +0.000 OA
ATOM     46  H   UNK A   3     -10.574  -4.626 136.203  0.00  0.00    +0.000 HD
BRANCH  43  47
ATOM     47  C   UNK A   3     -11.538  -6.460 137.458  0.00  0.00    +0.000 C 
BRANCH  47  49
ATOM     48  N   UNK A   3     -12.764  -6.433 139.607  0.00  0.00    +0.000 N 
ATOM     49  C   UNK A   3     -12.417  -5.636 138.548  0.00  0.00    +0.000 C 
ATOM     50  O   UNK A   3     -12.402  -4.323 138.575  0.00  0.00    +0.000 OA
ATOM     51  H   UNK A   3     -12.947  -5.764 140.634  0.00  0.00    +0.000 HD
ATOM     52  H   UNK A   3     -11.787  -7.082 139.710  0.00  0.00    +0.000 HD
ENDBRANCH  47  49
ENDBRANCH  43  47
ENDBRANCH  42  44
BRANCH  42  53
ATOM     53  C   UNK A   3      -7.207  -5.767 135.266  0.00  0.00    +0.000 C 
BRANCH  53  54
ATOM     54  C   UNK A   3      -5.692  -5.723 135.473  0.00  0.00    +0.000 C 
BRANCH  54  55
ATOM     55  C   UNK A   3      -4.857  -5.873 134.211  0.00  0.00    +0.000 C 
BRANCH  55  56
ATOM     56  N   UNK A   3      -3.752  -4.888 133.943  0.00  0.00    +0.000 NA
ATOM     57  C   UNK A   3      -2.500  -5.234 133.947  0.00  0.00    +0.000 C 
ATOM     58  N   UNK A   3      -1.964  -6.493 134.113  0.00  0.00    +0.000 N 
ATOM     59  N   UNK A   3      -1.605  -4.214 133.955  0.00  0.00    +0.000 N 
ATOM     60  H   UNK A   3      -2.510  -7.357 134.121  0.00  0.00    +0.000 HD
ATOM     61  H   UNK A   3      -0.996  -6.744 134.127  0.00  0.00    +0.000 HD
ATOM     62  H   UNK A   3      -1.938  -3.248 133.915  0.00  0.00    +0.000 HD
ATOM     63  H   UNK A   3      -0.628  -4.319 134.158  0.00  0.00    +0.000 HD
ENDBRANCH  55  56
ENDBRANCH  54  55
ENDBRANCH  53  54
ENDBRANCH  42  53
ENDBRANCH  38  42
ENDBRANCH  31  39
ENDBRANCH   1  36
BRANCH  10  64
ATOM     64  CB  TYR A   1      -5.832   1.699 127.452  0.00  0.00    +0.000 C 
BRANCH  64  65
ATOM     65  CG  TYR A   1      -4.663   3.087 127.137  0.00  0.00    +0.000 A 
ATOM     66  CD1 TYR A   1      -5.032   4.155 127.840  0.00  0.00    +0.000 A 
ATOM     67  CE1 TYR A   1      -4.121   5.143 128.041  0.00  0.00    +0.000 A 
ATOM     68  CZ  TYR A   1      -2.768   5.041 127.709  0.00  0.00    +0.000 A 
ATOM     69  CE2 TYR A   1      -2.218   3.907 127.191  0.00  0.00    +0.000 A 
ATOM     70  CD2 TYR A   1      -3.111   2.925 126.900  0.00  0.00    +0.000 A 
BRANCH  68  71
ATOM     71  OH  TYR A   1      -1.906   6.076 127.867  0.00  0.00    +0.000 OA
ATOM     72  HH  TYR A   1      -1.878   6.386 128.784  0.00  0.00    +0.000 HD
ENDBRANCH  68  71
ENDBRANCH  64  65
ENDBRANCH  10  64
BRANCH  14  73
ATOM     73  CB  PHE A   2      -8.188  -0.029 130.284  0.00  0.00    +0.000 C 
BRANCH  73  74
ATOM     74  CG  PHE A   2      -8.824   1.427 130.815  0.00  0.00    +0.000 A 
ATOM     75  CD1 PHE A   2      -9.257   1.124 131.948  0.00  0.00    +0.000 A 
ATOM     76  CE1 PHE A   2      -9.703   2.222 132.612  0.00  0.00    +0.000 A 
ATOM     77  CZ  PHE A   2      -9.632   3.543 132.343  0.00  0.00    +0.000 A 
ATOM     78  CE2 PHE A   2      -9.486   3.767 131.046  0.00  0.00    +0.000 A 
ATOM     79  CD2 PHE A   2      -9.089   2.762 130.254  0.00  0.00    +0.000 A 
ENDBRANCH  73  74
ENDBRANCH  14  73
BRANCH  18  80
ATOM     80  C   UNK A   3      -4.880  -1.890 132.349  0.00  0.00    +0.000 C 
BRANCH  80  81
ATOM     81  O   UNK A   3      -3.540  -2.279 132.143  0.00  0.00    +0.000 OA
ATOM     82  H   UNK A   3      -3.171  -2.939 132.765  0.00  0.00    +0.000 HD
ENDBRANCH  80  81
ENDBRANCH  18  80
BRANCH  22  83
ATOM     83  C   UNK A   3      -4.681   0.169 135.618  0.00  0.00    +0.000 C 
BRANCH  83  84
ATOM     84  C   UNK A   3      -4.281   1.508 135.957  0.00  0.00    +0.000 C 
ATOM     85  N   UNK A   3      -4.635   1.747 137.216  0.00  0.00    +0.000 N 
ATOM     86  O   UNK A   3      -3.605   2.253 135.281  0.00  0.00    +0.000 OA
ATOM     87  H   UNK A   3      -5.004   0.995 137.782  0.00  0.00    +0.000 HD
ATOM     88  H   UNK A   3      -4.387   2.599 137.620  0.00  0.00    +0.000 HD
ENDBRANCH  83  84
ENDBRANCH  22  83
TORSDOF 19
ENDMDL
MODEL 2
REMARK VINA RESULT:      -9.7      3.635     10.449
REMARK  Name = CHEMBL2369838
REMARK  19 active torsions:
REMARK  status: ('A' for Active; 'I' for Inactive)
REMARK    1  A    between atoms: C_2  and  C_4
REMARK    2  A    between atoms: C_4  and  N_5
REMARK    3  A    between atoms: C_6  and  C_8
REMARK    4  A    between atoms: C_8  and  C_9
REMARK    5  A    between atoms: C_8  and  N_16
REMARK    6  A    between atoms: C_9  and  C_10
REMARK    7  A    between atoms: C_10  and  C_11
REMARK    8  A    between atoms: C_11  and  N_12
REMARK    9  A    between atoms: C_17  and  C_19
REMARK   10  A    between atoms: C_24  and  C_26
REMARK   11  A    between atoms: CA_35  and  CB_36
REMARK   12  A    between atoms: CB_36  and  CG_37
REMARK   13  A    between atoms: CZ_40  and  OH_41
REMARK   14  A    between atoms: CA_47  and  CB_48
REMARK   15  A    between atoms: CB_48  and  CG_49
REMARK   16  A    between atoms: C_58  and  C_59
REMARK   17  A    between atoms: C_59  and  O_60
REMARK   18  A    between atoms: C_64  and  C_65
REMARK   19  A    between atoms: C_65  and  C_66
REMARK                            x       y       z     vdW  Elec       q    Type
REMARK                         _______ _______ _______ _____ _____    ______ ____
ROOT
ATOM      1  C   UNK A   3      -7.475   0.347 131.554  0.00  0.00    +0.000 C 
ATOM      2  C   UNK A   3      -6.704   1.263 133.687  0.00  0.00    +0.000 C 
ATOM      3  S   UNK A   3      -5.228   1.791 135.751  0.00  0.00    +0.000 S 
ATOM      4  S   UNK A   3      -4.068   2.123 138.192  0.00  0.00    +0.000 S 
ATOM      5  C   UNK A   3      -2.409   0.903 139.069  0.00  0.00    +0.000 C 
ATOM      6  C   UNK A   0      -1.944  -0.261 140.109  0.00  0.00    +0.000 C 
ATOM      7  C   UNK A   0      -1.405  -1.658 139.660  0.00  0.00    +0.000 C 
ATOM      8  O   UNK A   0      -0.826  -2.470 140.369  0.00  0.00    +0.000 OA
ATOM      9  N   TYR A   1      -1.612  -2.004 138.407  0.00  0.00    +0.000 N 
ATOM     10  CA  TYR A   1      -2.246  -1.018 137.645  0.00  0.00    +0.000 C 
ATOM     11  C   TYR A   1      -3.918  -1.022 137.947  0.00  0.00    +0.000 C 
ATOM     12  O   TYR A   1      -4.382  -0.775 139.065  0.00  0.00    +0.000 OA
ATOM     13  N   PHE A   2      -4.902  -0.900 137.113  0.00  0.00    +0.000 N 
ATOM     14  CA  PHE A   2      -4.834  -1.352 135.894  0.00  0.00    +0.000 C 
ATOM     15  C   PHE A   2      -3.716  -0.102 134.794  0.00  0.00    +0.000 C 
ATOM     16  O   PHE A   2      -2.546   0.288 134.913  0.00  0.00    +0.000 OA
ATOM     17  N   UNK A   3      -4.020   0.014 133.420  0.00  0.00    +0.000 N 
ATOM     18  C   UNK A   3      -5.080  -0.590 132.720  0.00  0.00    +0.000 C 
ATOM     19  C   UNK A   3      -4.937  -2.549 132.208  0.00  0.00    +0.000 C 
ATOM     20  O   UNK A   3      -4.819  -3.724 132.792  0.00  0.00    +0.000 OA
ATOM     21  N   UNK A   3      -5.602  -2.942 131.197  0.00  0.00    +0.000 N 
ATOM     22  C   UNK A   3      -6.223  -1.889 130.578  0.00  0.00    +0.000 C 
ATOM     23  C   UNK A   3      -7.880  -1.028 131.628  0.00  0.00    +0.000 C 
ATOM     24  O   UNK A   3      -8.251  -0.656 132.854  0.00  0.00    +0.000 OA
ATOM     25  N   UNK A   3      -8.757  -0.205 131.099  0.00  0.00    +0.000 N 
ATOM     26  H   TYR A   1      -1.252  -2.901 138.030  0.00  0.00    +0.000 HD
ATOM     27  H   PHE A   2      -5.839  -0.910 137.437  0.00  0.00    +0.000 HD
ATOM     28  H   UNK A   3      -3.543   0.580 132.773  0.00  0.00    +0.000 HD
ATOM     29  H   UNK A   3      -6.080  -3.815 131.399  0.00  0.00    +0.000 HD
ATOM     30  H   UNK A   3      -9.440  -0.406 130.223  0.00  0.00    +0.000 HD
ENDROOT
BRANCH   1  36
ATOM     31  C   UNK A   3      -7.777  -0.376 126.404  0.00  0.00    +0.000 C 
ATOM     32  C   UNK A   3      -9.113   0.120 125.668  0.00  0.00    +0.000 C 
ATOM     33  C   UNK A   3      -9.420  -0.980 124.766  0.00  0.00    +0.000 C 
ATOM     34  C   UNK A   3      -8.734  -2.265 126.070  0.00  0.00    +0.000 C 
ATOM     35  N   UNK A   3      -7.823  -1.555 127.763  0.00  0.00    +0.000 N 
ATOM     36  C   UNK A   3      -7.771  -1.102 129.803  0.00  0.00    +0.000 C 
ATOM     37  O   UNK A   3      -7.604  -2.390 129.624  0.00  0.00    +0.000 OA
BRANCH  31  39
ATOM     38  N   UNK A   3      -7.611   1.428 128.059  0.00  0.00    +0.000 N 
ATOM     39  C   UNK A   3      -7.305   0.535 127.259  0.00  0.00    +0.000 C 
ATOM     40  O   UNK A   3      -6.152   0.458 127.383  0.00  0.00    +0.000 OA
ATOM     41  H   UNK A   3      -8.477   1.763 127.927  0.00  0.00    +0.000 HD
BRANCH  38  42
ATOM     42  C   UNK A   3      -6.656   2.228 128.685  0.00  0.00    +0.000 C 
BRANCH  42  44
ATOM     43  N   UNK A   3      -7.508   3.702 130.546  0.00  0.00    +0.000 N 
ATOM     44  C   UNK A   3      -7.577   2.895 129.547  0.00  0.00    +0.000 C 
ATOM     45  O   UNK A   3      -8.738   2.989 129.355  0.00  0.00    +0.000 OA
ATOM     46  H   UNK A   3      -6.656   3.831 130.870  0.00  0.00    +0.000 HD
BRANCH  43  47
ATOM     47  C   UNK A   3      -8.842   4.430 131.727  0.00  0.00    +0.000 C 
BRANCH  47  49
ATOM     48  N   UNK A   3      -9.767   3.998 133.981  0.00  0.00    +0.000 N 
ATOM     49  C   UNK A   3      -9.446   3.375 132.803  0.00  0.00    +0.000 C 
ATOM     50  O   UNK A   3      -9.929   2.216 132.416  0.00  0.00    +0.000 OA
ATOM     51  H   UNK A   3     -10.664   3.391 134.582  0.00  0.00    +0.000 HD
ATOM     52  H   UNK A   3     -10.173   5.025 133.570  0.00  0.00    +0.000 HD
ENDBRANCH  47  49
ENDBRANCH  43  47
ENDBRANCH  42  44
BRANCH  42  53
ATOM     53  C   UNK A   3      -6.171   3.379 128.024  0.00  0.00    +0.000 C 
BRANCH  53  54
ATOM     54  C   UNK A   3      -4.661   3.565 128.179  0.00  0.00    +0.000 C 
BRANCH  54  55
ATOM     55  C   UNK A   3      -4.053   4.688 127.352  0.00  0.00    +0.000 C 
BRANCH  55  56
ATOM     56  N   UNK A   3      -4.294   6.114 127.765  0.00  0.00    +0.000 NA
ATOM     57  C   UNK A   3      -3.340   6.874 128.213  0.00  0.00    +0.000 C 
ATOM     58  N   UNK A   3      -1.999   6.582 128.327  0.00  0.00    +0.000 N 
ATOM     59  N   UNK A   3      -3.735   8.037 128.793  0.00  0.00    +0.000 N 
ATOM     60  H   UNK A   3      -1.554   5.749 127.936  0.00  0.00    +0.000 HD
ATOM     61  H   UNK A   3      -1.277   7.173 128.687  0.00  0.00    +0.000 HD
ATOM     62  H   UNK A   3      -4.728   8.279 128.815  0.00  0.00    +0.000 HD
ATOM     63  H   UNK A   3      -3.141   8.620 129.353  0.00  0.00    +0.000 HD
ENDBRANCH  55  56
ENDBRANCH  54  55
ENDBRANCH  53  54
ENDBRANCH  42  53
ENDBRANCH  38  42
ENDBRANCH  31  39
ENDBRANCH   1  36
BRANCH  10  64
ATOM     64  CB  TYR A   1      -2.265  -1.725 136.529  0.00  0.00    +0.000 C 
BRANCH  64  65
ATOM     65  CG  TYR A   1      -0.568  -2.090 135.915  0.00  0.00    +0.000 A 
ATOM     66  CD1 TYR A   1      -0.304  -3.386 136.064  0.00  0.00    +0.000 A 
ATOM     67  CE1 TYR A   1       0.720  -3.923 135.351  0.00  0.00    +0.000 A 
ATOM     68  CZ  TYR A   1       1.411  -3.248 134.340  0.00  0.00    +0.000 A 
ATOM     69  CE2 TYR A   1       1.082  -1.989 133.935  0.00  0.00    +0.000 A 
ATOM     70  CD2 TYR A   1       0.116  -1.388 134.678  0.00  0.00    +0.000 A 
BRANCH  68  71
ATOM     71  OH  TYR A   1       2.470  -3.799 133.698  0.00  0.00    +0.000 OA
ATOM     72  HH  TYR A   1       2.743  -3.272 132.932  0.00  0.00    +0.000 HD
ENDBRANCH  68  71
ENDBRANCH  64  65
ENDBRANCH  10  64
BRANCH  14  73
ATOM     73  CB  PHE A   2      -6.173  -1.524 135.409  0.00  0.00    +0.000 C 
BRANCH  73  74
ATOM     74  CG  PHE A   2      -6.446  -3.165 135.605  0.00  0.00    +0.000 A 
ATOM     75  CD1 PHE A   2      -7.569  -3.307 135.075  0.00  0.00    +0.000 A 
ATOM     76  CE1 PHE A   2      -7.919  -4.619 135.011  0.00  0.00    +0.000 A 
ATOM     77  CZ  PHE A   2      -7.242  -5.757 135.271  0.00  0.00    +0.000 A 
ATOM     78  CE2 PHE A   2      -6.241  -5.546 136.111  0.00  0.00    +0.000 A 
ATOM     79  CD2 PHE A   2      -5.811  -4.292 136.307  0.00  0.00    +0.000 A 
ENDBRANCH  73  74
ENDBRANCH  14  73
BRANCH  18  80
ATOM     80  C   UNK A   3      -5.311   0.329 131.602  0.00  0.00    +0.000 C 
BRANCH  80  81
ATOM     81  O   UNK A   3      -4.298   1.045 130.932  0.00  0.00    +0.000 OA
ATOM     82  H   UNK A   3      -4.063   1.924 131.296  0.00  0.00    +0.000 HD
ENDBRANCH  80  81
ENDBRANCH  18  80
BRANCH  22  83
ATOM     83  C   UNK A   3      -6.080  -2.520 129.101  0.00  0.00    +0.000 C 
BRANCH  83  84
ATOM     84  C   UNK A   3      -4.858  -2.889 128.438  0.00  0.00    +0.000 C 
ATOM     85  N   UNK A   3      -4.794  -2.241 127.280  0.00  0.00    +0.000 N 
ATOM     86  O   UNK A   3      -3.958  -3.556 128.902  0.00  0.00    +0.000 OA
ATOM     87  H   UNK A   3      -5.486  -1.535 127.065  0.00  0.00    +0.000 HD
ATOM     88  H   UNK A   3      -3.996  -2.340 126.729  0.00  0.00    +0.000 HD
ENDBRANCH  83  84
ENDBRANCH  22  83
TORSDOF 19
ENDMDL
MODEL 3
REMARK VINA RESULT:      -9.6      3.617      5.705
REMARK  Name = CHEMBL2369838
REMARK  19 active torsions:
REMARK  status: ('A' for Active; 'I' for Inactive)
REMARK    1  A    between atoms: C_2  and  C_4
REMARK    2  A    between atoms: C_4  and  N_5
REMARK    3  A    between atoms: C_6  and  C_8
REMARK    4  A    between atoms: C_8  and  C_9
REMARK    5  A    between atoms: C_8  and  N_16
REMARK    6  A    between atoms: C_9  and  C_10
REMARK    7  A    between atoms: C_10  and  C_11
REMARK    8  A    between atoms: C_11  and  N_12
REMARK    9  A    between atoms: C_17  and  C_19
REMARK   10  A    between atoms: C_24  and  C_26
REMARK   11  A    between atoms: CA_35  and  CB_36
REMARK   12  A    between atoms: CB_36  and  CG_37
REMARK   13  A    between atoms: CZ_40  and  OH_41
REMARK   14  A    between atoms: CA_47  and  CB_48
REMARK   15  A    between atoms: CB_48  and  CG_49
REMARK   16  A    between atoms: C_58  and  C_59
REMARK   17  A    between atoms: C_59  and  O_60
REMARK   18  A    between atoms: C_64  and  C_65
REMARK   19  A    between atoms: C_65  and  C_66
REMARK                            x       y       z     vdW  Elec       q    Type
REMARK                         _______ _______ _______ _____ _____    ______ ____
ROOT
ATOM      1  C   UNK A   3      -5.339  -1.265 133.036  0.00  0.00    +0.000 C 
ATOM      2  C   UNK A   3      -4.684  -0.012 131.040  0.00  0.00    +0.000 C 
ATOM      3  S   UNK A   3      -3.705   1.826 129.496  0.00  0.00    +0.000 S 
ATOM      4  S   UNK A   3      -3.172   3.807 127.706  0.00  0.00    +0.000 S 
ATOM      5  C   UNK A   3      -2.827   5.972 128.160  0.00  0.00    +0.000 C 
ATOM      6  C   UNK A   0      -3.404   7.495 128.170  0.00  0.00    +0.000 C 
ATOM      7  C   UNK A   0      -3.723   8.291 129.477  0.00  0.00    +0.000 C 
ATOM      8  O   UNK A   0      -3.927   9.494 129.558  0.00  0.00    +0.000 OA
ATOM      9  N   TYR A   1      -3.804   7.597 130.594  0.00  0.00    +0.000 N 
ATOM     10  CA  TYR A   1      -3.527   6.237 130.437  0.00  0.00    +0.000 C 
ATOM     11  C   TYR A   1      -4.883   5.427 129.809  0.00  0.00    +0.000 C 
ATOM     12  O   TYR A   1      -5.347   5.692 128.695  0.00  0.00    +0.000 OA
ATOM     13  N   PHE A   2      -5.376   4.275 130.140  0.00  0.00    +0.000 N 
ATOM     14  CA  PHE A   2      -5.316   3.823 131.360  0.00  0.00    +0.000 C 
ATOM     15  C   PHE A   2      -3.459   3.158 131.721  0.00  0.00    +0.000 C 
ATOM     16  O   PHE A   2      -2.354   3.718 131.676  0.00  0.00    +0.000 OA
ATOM     17  N   UNK A   3      -3.309   2.089 132.631  0.00  0.00    +0.000 N 
ATOM     18  C   UNK A   3      -4.326   1.360 133.275  0.00  0.00    +0.000 C 
ATOM     19  C   UNK A   3      -5.271   2.183 134.872  0.00  0.00    +0.000 C 
ATOM     20  O   UNK A   3      -6.017   3.231 135.155  0.00  0.00    +0.000 OA
ATOM     21  N   UNK A   3      -5.787   1.389 135.722  0.00  0.00    +0.000 N 
ATOM     22  C   UNK A   3      -5.493   0.085 135.419  0.00  0.00    +0.000 C 
ATOM     23  C   UNK A   3      -6.490  -0.727 133.705  0.00  0.00    +0.000 C 
ATOM     24  O   UNK A   3      -6.831  -0.409 132.455  0.00  0.00    +0.000 OA
ATOM     25  N   UNK A   3      -6.550  -2.006 133.409  0.00  0.00    +0.000 N 
ATOM     26  H   TYR A   1      -3.978   8.064 131.505  0.00  0.00    +0.000 HD
ATOM     27  H   PHE A   2      -6.175   3.919 129.674  0.00  0.00    +0.000 HD
ATOM     28  H   UNK A   3      -2.457   1.682 132.902  0.00  0.00    +0.000 HD
ATOM     29  H   UNK A   3      -6.722   1.692 135.975  0.00  0.00    +0.000 HD
ATOM     30  H   UNK A   3      -6.996  -2.831 134.036  0.00  0.00    +0.000 HD
ENDROOT
BRANCH   1  36
ATOM     31  C   UNK A   3      -4.975  -4.288 137.264  0.00  0.00    +0.000 C 
ATOM     32  C   UNK A   3      -5.644  -5.743 137.187  0.00  0.00    +0.000 C 
ATOM     33  C   UNK A   3      -6.322  -5.862 138.469  0.00  0.00    +0.000 C 
ATOM     34  C   UNK A   3      -6.727  -3.950 138.453  0.00  0.00    +0.000 C 
ATOM     35  N   UNK A   3      -5.926  -2.789 136.966  0.00  0.00    +0.000 N 
ATOM     36  C   UNK A   3      -6.034  -1.721 135.172  0.00  0.00    +0.000 C 
ATOM     37  O   UNK A   3      -6.572  -1.023 136.144  0.00  0.00    +0.000 OA
BRANCH  31  39
ATOM     38  N   UNK A   3      -4.074  -4.281 134.980  0.00  0.00    +0.000 N 
ATOM     39  C   UNK A   3      -4.258  -4.004 136.173  0.00  0.00    +0.000 C 
ATOM     40  O   UNK A   3      -3.549  -3.100 136.343  0.00  0.00    +0.000 OA
ATOM     41  H   UNK A   3      -4.409  -5.123 134.740  0.00  0.00    +0.000 HD
BRANCH  38  42
ATOM     42  C   UNK A   3      -3.040  -3.718 134.235  0.00  0.00    +0.000 C 
BRANCH  42  44
ATOM     43  N   UNK A   3      -3.335  -3.751 131.730  0.00  0.00    +0.000 N 
ATOM     44  C   UNK A   3      -3.625  -3.985 132.962  0.00  0.00    +0.000 C 
ATOM     45  O   UNK A   3      -4.512  -4.740 132.769  0.00  0.00    +0.000 OA
ATOM     46  H   UNK A   3      -2.617  -3.189 131.611  0.00  0.00    +0.000 HD
BRANCH  43  47
ATOM     47  C   UNK A   3      -4.294  -4.047 130.088  0.00  0.00    +0.000 C 
BRANCH  47  49
ATOM     48  N   UNK A   3      -5.821  -2.612 128.772  0.00  0.00    +0.000 N 
ATOM     49  C   UNK A   3      -5.710  -3.260 129.975  0.00  0.00    +0.000 C 
ATOM     50  O   UNK A   3      -6.722  -3.576 130.750  0.00  0.00    +0.000 OA
ATOM     51  H   UNK A   3      -7.008  -2.469 128.447  0.00  0.00    +0.000 HD
ATOM     52  H   UNK A   3      -5.295  -3.393 128.065  0.00  0.00    +0.000 HD
ENDBRANCH  47  49
ENDBRANCH  43  47
ENDBRANCH  42  44
BRANCH  42  53
ATOM     53  C   UNK A   3      -1.847  -4.450 134.036  0.00  0.00    +0.000 C 
BRANCH  53  54
ATOM     54  C   UNK A   3      -1.309  -5.075 135.325  0.00  0.00    +0.000 C 
BRANCH  54  55
ATOM     55  C   UNK A   3      -0.273  -4.245 136.068  0.00  0.00    +0.000 C 
BRANCH  55  56
ATOM     56  N   UNK A   3       0.396  -3.101 135.357  0.00  0.00    +0.000 NA
ATOM     57  C   UNK A   3       0.008  -1.871 135.508  0.00  0.00    +0.000 C 
ATOM     58  N   UNK A   3      -0.976  -1.384 136.342  0.00  0.00    +0.000 N 
ATOM     59  N   UNK A   3       0.514  -0.978 134.620  0.00  0.00    +0.000 N 
ATOM     60  H   UNK A   3      -1.445  -1.933 137.065  0.00  0.00    +0.000 HD
ATOM     61  H   UNK A   3      -1.275  -0.434 136.438  0.00  0.00    +0.000 HD
ATOM     62  H   UNK A   3       1.190  -1.289 133.919  0.00  0.00    +0.000 HD
ATOM     63  H   UNK A   3       0.159  -0.049 134.486  0.00  0.00    +0.000 HD
ENDBRANCH  55  56
ENDBRANCH  54  55
ENDBRANCH  53  54
ENDBRANCH  42  53
ENDBRANCH  38  42
ENDBRANCH  31  39
ENDBRANCH   1  36
BRANCH  10  64
ATOM     64  CB  TYR A   1      -3.711   5.931 131.709  0.00  0.00    +0.000 C 
BRANCH  64  65
ATOM     65  CG  TYR A   1      -2.520   6.806 132.806  0.00  0.00    +0.000 A 
ATOM     66  CD1 TYR A   1      -2.855   6.613 134.080  0.00  0.00    +0.000 A 
ATOM     67  CE1 TYR A   1      -1.921   6.852 135.037  0.00  0.00    +0.000 A 
ATOM     68  CZ  TYR A   1      -0.576   7.120 134.771  0.00  0.00    +0.000 A 
ATOM     69  CE2 TYR A   1      -0.058   7.118 133.511  0.00  0.00    +0.000 A 
ATOM     70  CD2 TYR A   1      -0.976   6.964 132.521  0.00  0.00    +0.000 A 
BRANCH  68  71
ATOM     71  OH  TYR A   1       0.310   7.416 135.754  0.00  0.00    +0.000 OA
ATOM     72  HH  TYR A   1      -0.068   7.281 136.635  0.00  0.00    +0.000 HD
ENDBRANCH  68  71
ENDBRANCH  64  65
ENDBRANCH  10  64
BRANCH  14  73
ATOM     73  CB  PHE A   2      -6.337   2.827 131.514  0.00  0.00    +0.000 C 
BRANCH  73  74
ATOM     74  CG  PHE A   2      -7.537   3.633 132.361  0.00  0.00    +0.000 A 
ATOM     75  CD1 PHE A   2      -8.314   2.702 132.661  0.00  0.00    +0.000 A 
ATOM     76  CE1 PHE A   2      -9.307   3.136 133.481  0.00  0.00    +0.000 A 
ATOM     77  CZ  PHE A   2      -9.514   4.306 134.122  0.00  0.00    +0.000 A 
ATOM     78  CE2 PHE A   2      -8.885   5.306 133.525  0.00  0.00    +0.000 A 
ATOM     79  CD2 PHE A   2      -7.904   5.028 132.654  0.00  0.00    +0.000 A 
ENDBRANCH  73  74
ENDBRANCH  14  73
BRANCH  18  80
ATOM     80  C   UNK A   3      -3.698   0.060 133.526  0.00  0.00    +0.000 C 
BRANCH  80  81
ATOM     81  O   UNK A   3      -2.353  -0.119 133.909  0.00  0.00    +0.000 OA
ATOM     82  H   UNK A   3      -1.990   0.516 134.561  0.00  0.00    +0.000 HD
ENDBRANCH  80  81
ENDBRANCH  18  80
BRANCH  22  83
ATOM     83  C   UNK A   3      -5.424  -0.382 136.960  0.00  0.00    +0.000 C 
BRANCH  83  84
ATOM     84  C   UNK A   3      -4.644   0.221 138.008  0.00  0.00    +0.000 C 
ATOM     85  N   UNK A   3      -3.732  -0.656 138.413  0.00  0.00    +0.000 N 
ATOM     86  O   UNK A   3      -4.693   1.378 138.370  0.00  0.00    +0.000 OA
ATOM     87  H   UNK A   3      -3.617  -1.525 137.908  0.00  0.00    +0.000 HD
ATOM     88  H   UNK A   3      -3.083  -0.382 139.087  0.00  0.00    +0.000 HD
ENDBRANCH  83  84
ENDBRANCH  22  83
TORSDOF 19
ENDMDL
MODEL 4
REMARK VINA RESULT:      -9.4      4.839     10.221
REMARK  Name = CHEMBL2369838
REMARK  19 active torsions:
REMARK  status: ('A' for Active; 'I' for Inactive)
REMARK    1  A    between atoms: C_2  and  C_4
REMARK    2  A    between atoms: C_4  and  N_5
REMARK    3  A    between atoms: C_6  and  C_8
REMARK    4  A    between atoms: C_8  and  C_9
REMARK    5  A    between atoms: C_8  and  N_16
REMARK    6  A    between atoms: C_9  and  C_10
REMARK    7  A    between atoms: C_10  and  C_11
REMARK    8  A    between atoms: C_11  and  N_12
REMARK    9  A    between atoms: C_17  and  C_19
REMARK   10  A    between atoms: C_24  and  C_26
REMARK   11  A    between atoms: CA_35  and  CB_36
REMARK   12  A    between atoms: CB_36  and  CG_37
REMARK   13  A    between atoms: CZ_40  and  OH_41
REMARK   14  A    between atoms: CA_47  and  CB_48
REMARK   15  A    between atoms: CB_48  and  CG_49
REMARK   16  A    between atoms: C_58  and  C_59
REMARK   17  A    between atoms: C_59  and  O_60
REMARK   18  A    between atoms: C_64  and  C_65
REMARK   19  A    between atoms: C_65  and  C_66
REMARK                            x       y       z     vdW  Elec       q    Type
REMARK                         _______ _______ _______ _____ _____    ______ ____
ROOT
ATOM      1  C   UNK A   3      -4.762   2.181 131.270  0.00  0.00    +0.000 C 
ATOM      2  C   UNK A   3      -3.883   2.094 133.551  0.00  0.00    +0.000 C 
ATOM      3  S   UNK A   3      -3.562   2.533 136.085  0.00  0.00    +0.000 S 
ATOM      4  S   UNK A   3      -2.750   3.171 138.605  0.00  0.00    +0.000 S 
ATOM      5  C   UNK A   3      -3.353   4.968 139.796  0.00  0.00    +0.000 C 
ATOM      6  C   UNK A   0      -2.970   6.445 140.367  0.00  0.00    +0.000 C 
ATOM      7  C   UNK A   0      -3.655   7.764 139.883  0.00  0.00    +0.000 C 
ATOM      8  O   UNK A   0      -3.586   8.856 140.430  0.00  0.00    +0.000 OA
ATOM      9  N   TYR A   1      -4.353   7.700 138.768  0.00  0.00    +0.000 N 
ATOM     10  CA  TYR A   1      -4.420   6.419 138.215  0.00  0.00    +0.000 C 
ATOM     11  C   TYR A   1      -2.991   6.067 137.366  0.00  0.00    +0.000 C 
ATOM     12  O   TYR A   1      -1.892   6.012 137.928  0.00  0.00    +0.000 OA
ATOM     13  N   PHE A   2      -2.841   5.477 136.222  0.00  0.00    +0.000 N 
ATOM     14  CA  PHE A   2      -3.717   5.593 135.265  0.00  0.00    +0.000 C 
ATOM     15  C   PHE A   2      -5.298   4.433 135.682  0.00  0.00    +0.000 C 
ATOM     16  O   PHE A   2      -6.078   4.407 136.645  0.00  0.00    +0.000 OA
ATOM     17  N   UNK A   3      -6.015   3.882 134.597  0.00  0.00    +0.000 N 
ATOM     18  C   UNK A   3      -5.708   3.983 133.227  0.00  0.00    +0.000 C 
ATOM     19  C   UNK A   3      -6.140   5.705 132.242  0.00  0.00    +0.000 C 
ATOM     20  O   UNK A   3      -5.814   6.981 132.279  0.00  0.00    +0.000 OA
ATOM     21  N   UNK A   3      -6.338   5.630 130.987  0.00  0.00    +0.000 N 
ATOM     22  C   UNK A   3      -6.318   4.326 130.563  0.00  0.00    +0.000 C 
ATOM     23  C   UNK A   3      -4.399   3.372 130.555  0.00  0.00    +0.000 C 
ATOM     24  O   UNK A   3      -3.296   3.253 131.296  0.00  0.00    +0.000 OA
ATOM     25  N   UNK A   3      -4.128   2.240 129.947  0.00  0.00    +0.000 N 
ATOM     26  H   TYR A   1      -4.864   8.528 138.406  0.00  0.00    +0.000 HD
ATOM     27  H   PHE A   2      -1.934   5.328 135.850  0.00  0.00    +0.000 HD
ATOM     28  H   UNK A   3      -6.810   3.311 134.665  0.00  0.00    +0.000 HD
ATOM     29  H   UNK A   3      -5.841   6.369 130.500  0.00  0.00    +0.000 HD
ATOM     30  H   UNK A   3      -4.222   2.017 128.845  0.00  0.00    +0.000 HD
ENDROOT
BRANCH   1  36
ATOM     31  C   UNK A   3      -7.984   1.384 127.254  0.00  0.00    +0.000 C 
ATOM     32  C   UNK A   3      -7.477   0.407 126.088  0.00  0.00    +0.000 C 
ATOM     33  C   UNK A   3      -7.860   1.116 124.876  0.00  0.00    +0.000 C 
ATOM     34  C   UNK A   3      -7.508   2.831 125.746  0.00  0.00    +0.000 C 
ATOM     35  N   UNK A   3      -7.050   2.843 127.744  0.00  0.00    +0.000 N 
ATOM     36  C   UNK A   3      -5.722   2.987 129.352  0.00  0.00    +0.000 C 
ATOM     37  O   UNK A   3      -5.976   4.180 128.869  0.00  0.00    +0.000 OA
BRANCH  31  39
ATOM     38  N   UNK A   3      -7.015   0.149 129.142  0.00  0.00    +0.000 N 
ATOM     39  C   UNK A   3      -7.757   0.877 128.470  0.00  0.00    +0.000 C 
ATOM     40  O   UNK A   3      -8.485   1.311 129.264  0.00  0.00    +0.000 OA
ATOM     41  H   UNK A   3      -6.507  -0.443 128.622  0.00  0.00    +0.000 HD
BRANCH  38  42
ATOM     42  C   UNK A   3      -7.288  -0.168 130.472  0.00  0.00    +0.000 C 
BRANCH  42  44
ATOM     43  N   UNK A   3      -5.341  -1.026 131.827  0.00  0.00    +0.000 N 
ATOM     44  C   UNK A   3      -5.959  -0.579 130.791  0.00  0.00    +0.000 C 
ATOM     45  O   UNK A   3      -5.107  -0.790 130.001  0.00  0.00    +0.000 OA
ATOM     46  H   UNK A   3      -5.835  -1.001 132.602  0.00  0.00    +0.000 HD
BRANCH  43  47
ATOM     47  C   UNK A   3      -3.487  -1.416 132.170  0.00  0.00    +0.000 C 
BRANCH  47  49
ATOM     48  N   UNK A   3      -1.945  -2.399 133.836  0.00  0.00    +0.000 N 
ATOM     49  C   UNK A   3      -3.227  -2.489 133.361  0.00  0.00    +0.000 C 
ATOM     50  O   UNK A   3      -4.231  -3.029 134.014  0.00  0.00    +0.000 OA
ATOM     51  H   UNK A   3      -1.874  -2.782 135.013  0.00  0.00    +0.000 HD
ATOM     52  H   UNK A   3      -1.781  -1.235 133.775  0.00  0.00    +0.000 HD
ENDBRANCH  47  49
ENDBRANCH  43  47
ENDBRANCH  42  44
BRANCH  42  53
ATOM     53  C   UNK A   3      -7.927  -1.391 130.777  0.00  0.00    +0.000 C 
BRANCH  53  54
ATOM     54  C   UNK A   3      -8.177  -2.259 129.543  0.00  0.00    +0.000 C 
BRANCH  54  55
ATOM     55  C   UNK A   3      -7.295  -3.492 129.422  0.00  0.00    +0.000 C 
BRANCH  55  56
ATOM     56  N   UNK A   3      -6.658  -4.061 130.661  0.00  0.00    +0.000 NA
ATOM     57  C   UNK A   3      -5.380  -4.279 130.743  0.00  0.00    +0.000 C 
ATOM     58  N   UNK A   3      -4.404  -3.992 129.814  0.00  0.00    +0.000 N 
ATOM     59  N   UNK A   3      -4.977  -5.031 131.799  0.00  0.00    +0.000 N 
ATOM     60  H   UNK A   3      -4.554  -3.432 128.973  0.00  0.00    +0.000 HD
ATOM     61  H   UNK A   3      -3.424  -4.179 129.885  0.00  0.00    +0.000 HD
ATOM     62  H   UNK A   3      -5.664  -5.348 132.487  0.00  0.00    +0.000 HD
ATOM     63  H   UNK A   3      -4.067  -5.445 131.885  0.00  0.00    +0.000 HD
ENDBRANCH  55  56
ENDBRANCH  54  55
ENDBRANCH  53  54
ENDBRANCH  42  53
ENDBRANCH  38  42
ENDBRANCH  31  39
ENDBRANCH   1  36
BRANCH  10  64
ATOM     64  CB  TYR A   1      -5.159   6.776 137.179  0.00  0.00    +0.000 C 
BRANCH  64  65
ATOM     65  CG  TYR A   1      -6.758   7.525 137.699  0.00  0.00    +0.000 A 
ATOM     66  CD1 TYR A   1      -6.723   8.841 137.508  0.00  0.00    +0.000 A 
ATOM     67  CE1 TYR A   1      -7.898   9.522 137.474  0.00  0.00    +0.000 A 
ATOM     68  CZ  TYR A   1      -9.156   8.914 137.453  0.00  0.00    +0.000 A 
ATOM     69  CE2 TYR A   1      -9.322   7.562 137.413  0.00  0.00    +0.000 A 
ATOM     70  CD2 TYR A   1      -8.173   6.846 137.527  0.00  0.00    +0.000 A 
BRANCH  68  71
ATOM     71  OH  TYR A   1     -10.306   9.632 137.484  0.00  0.00    +0.000 OA
ATOM     72  HH  TYR A   1     -10.355  10.203 138.265  0.00  0.00    +0.000 HD
ENDBRANCH  68  71
ENDBRANCH  64  65
ENDBRANCH  10  64
BRANCH  14  73
ATOM     73  CB  PHE A   2      -3.065   5.275 134.028  0.00  0.00    +0.000 C 
BRANCH  73  74
ATOM     74  CG  PHE A   2      -2.033   6.574 133.792  0.00  0.00    +0.000 A 
ATOM     75  CD1 PHE A   2      -2.808   7.443 133.338  0.00  0.00    +0.000 A 
ATOM     76  CE1 PHE A   2      -2.178   8.640 133.202  0.00  0.00    +0.000 A 
ATOM     77  CZ  PHE A   2      -0.961   9.079 133.588  0.00  0.00    +0.000 A 
ATOM     78  CE2 PHE A   2      -0.108   8.077 133.739  0.00  0.00    +0.000 A 
ATOM     79  CD2 PHE A   2      -0.585   6.829 133.846  0.00  0.00    +0.000 A 
ENDBRANCH  73  74
ENDBRANCH  14  73
BRANCH  18  80
ATOM     80  C   UNK A   3      -6.312   2.774 132.659  0.00  0.00    +0.000 C 
BRANCH  80  81
ATOM     81  O   UNK A   3      -7.466   2.141 133.166  0.00  0.00    +0.000 OA
ATOM     82  H   UNK A   3      -7.336   1.288 133.629  0.00  0.00    +0.000 HD
ENDBRANCH  80  81
ENDBRANCH  18  80
BRANCH  22  83
ATOM     83  C   UNK A   3      -7.422   4.560 129.412  0.00  0.00    +0.000 C 
BRANCH  83  84
ATOM     84  C   UNK A   3      -8.740   5.108 129.583  0.00  0.00    +0.000 C 
ATOM     85  N   UNK A   3      -9.544   4.145 130.022  0.00  0.00    +0.000 N 
ATOM     86  O   UNK A   3      -9.054   6.276 129.493  0.00  0.00    +0.000 OA
ATOM     87  H   UNK A   3      -9.153   3.248 130.278  0.00  0.00    +0.000 HD
ATOM     88  H   UNK A   3     -10.467   4.367 130.241  0.00  0.00    +0.000 HD
ENDBRANCH  83  84
ENDBRANCH  22  83
TORSDOF 19
ENDMDL
MODEL 5
REMARK VINA RESULT:      -9.1      5.827      8.562
REMARK  Name = CHEMBL2369838
REMARK  19 active torsions:
REMARK  status: ('A' for Active; 'I' for Inactive)
REMARK    1  A    between atoms: C_2  and  C_4
REMARK    2  A    between atoms: C_4  and  N_5
REMARK    3  A    between atoms: C_6  and  C_8
REMARK    4  A    between atoms: C_8  and  C_9
REMARK    5  A    between atoms: C_8  and  N_16
REMARK    6  A    between atoms: C_9  and  C_10
REMARK    7  A    between atoms: C_10  and  C_11
REMARK    8  A    between atoms: C_11  and  N_12
REMARK    9  A    between atoms: C_17  and  C_19
REMARK   10  A    between atoms: C_24  and  C_26
REMARK   11  A    between atoms: CA_35  and  CB_36
REMARK   12  A    between atoms: CB_36  and  CG_37
REMARK   13  A    between atoms: CZ_40  and  OH_41
REMARK   14  A    between atoms: CA_47  and  CB_48
REMARK   15  A    between atoms: CB_48  and  CG_49
REMARK   16  A    between atoms: C_58  and  C_59
REMARK   17  A    between atoms: C_59  and  O_60
REMARK   18  A    between atoms: C_64  and  C_65
REMARK   19  A    between atoms: C_65  and  C_66
REMARK                            x       y       z     vdW  Elec       q    Type
REMARK                         _______ _______ _______ _____ _____    ______ ____
ROOT
ATOM      1  C   UNK A   3      -4.249   5.325 135.629  0.00  0.00    +0.000 C 
ATOM      2  C   UNK A   3      -5.710   3.731 134.486  0.00  0.00    +0.000 C 
ATOM      3  S   UNK A   3      -6.764   2.233 132.652  0.00  0.00    +0.000 S 
ATOM      4  S   UNK A   3      -8.304   0.947 130.811  0.00  0.00    +0.000 S 
ATOM      5  C   UNK A   3      -8.250   1.216 128.589  0.00  0.00    +0.000 C 
ATOM      6  C   UNK A   0      -8.930   1.851 127.252  0.00  0.00    +0.000 C 
ATOM      7  C   UNK A   0      -8.283   3.001 126.415  0.00  0.00    +0.000 C 
ATOM      8  O   UNK A   0      -8.616   3.351 125.291  0.00  0.00    +0.000 OA
ATOM      9  N   TYR A   1      -7.300   3.672 126.980  0.00  0.00    +0.000 N 
ATOM     10  CA  TYR A   1      -6.947   3.198 128.246  0.00  0.00    +0.000 C 
ATOM     11  C   TYR A   1      -8.040   3.768 129.416  0.00  0.00    +0.000 C 
ATOM     12  O   TYR A   1      -9.239   3.472 129.392  0.00  0.00    +0.000 OA
ATOM     13  N   PHE A   2      -7.803   4.220 130.607  0.00  0.00    +0.000 N 
ATOM     14  CA  PHE A   2      -6.715   4.874 130.895  0.00  0.00    +0.000 C 
ATOM     15  C   PHE A   2      -5.196   3.575 131.061  0.00  0.00    +0.000 C 
ATOM     16  O   PHE A   2      -4.715   2.754 130.267  0.00  0.00    +0.000 OA
ATOM     17  N   UNK A   3      -4.153   3.894 131.958  0.00  0.00    +0.000 N 
ATOM     18  C   UNK A   3      -4.078   4.996 132.830  0.00  0.00    +0.000 C 
ATOM     19  C   UNK A   3      -3.576   6.815 132.081  0.00  0.00    +0.000 C 
ATOM     20  O   UNK A   3      -4.033   7.694 131.213  0.00  0.00    +0.000 OA
ATOM     21  N   UNK A   3      -3.032   7.647 132.875  0.00  0.00    +0.000 N 
ATOM     22  C   UNK A   3      -2.796   7.077 134.099  0.00  0.00    +0.000 C 
ATOM     23  C   UNK A   3      -4.524   6.697 135.306  0.00  0.00    +0.000 C 
ATOM     24  O   UNK A   3      -5.770   6.228 135.217  0.00  0.00    +0.000 OA
ATOM     25  N   UNK A   3      -4.494   6.409 136.588  0.00  0.00    +0.000 N 
ATOM     26  H   TYR A   1      -6.801   4.425 126.470  0.00  0.00    +0.000 HD
ATOM     27  H   PHE A   2      -8.551   4.511 131.190  0.00  0.00    +0.000 HD
ATOM     28  H   UNK A   3      -3.352   3.351 132.122  0.00  0.00    +0.000 HD
ATOM     29  H   UNK A   3      -3.451   8.567 132.774  0.00  0.00    +0.000 HD
ATOM     30  H   UNK A   3      -4.076   7.046 137.421  0.00  0.00    +0.000 HD
ENDROOT
BRANCH   1  36
ATOM     31  C   UNK A   3      -3.358   9.744 138.241  0.00  0.00    +0.000 C 
ATOM     32  C   UNK A   3      -4.239  11.024 137.844  0.00  0.00    +0.000 C 
ATOM     33  C   UNK A   3      -3.259  12.099 137.808  0.00  0.00    +0.000 C 
ATOM     34  C   UNK A   3      -1.900  10.865 137.139  0.00  0.00    +0.000 C 
ATOM     35  N   UNK A   3      -2.354   8.869 137.030  0.00  0.00    +0.000 N 
ATOM     36  C   UNK A   3      -2.887   7.131 135.997  0.00  0.00    +0.000 C 
ATOM     37  O   UNK A   3      -1.611   7.384 135.824  0.00  0.00    +0.000 OA
BRANCH  31  39
ATOM     38  N   UNK A   3      -5.210   8.136 138.154  0.00  0.00    +0.000 N 
ATOM     39  C   UNK A   3      -4.100   8.641 138.368  0.00  0.00    +0.000 C 
ATOM     40  O   UNK A   3      -3.485   7.749 138.786  0.00  0.00    +0.000 OA
ATOM     41  H   UNK A   3      -5.886   8.772 138.017  0.00  0.00    +0.000 HD
BRANCH  38  42
ATOM     42  C   UNK A   3      -5.550   6.862 138.607  0.00  0.00    +0.000 C 
BRANCH  42  44
ATOM     43  N   UNK A   3      -7.647   7.659 137.454  0.00  0.00    +0.000 N 
ATOM     44  C   UNK A   3      -6.930   6.953 138.256  0.00  0.00    +0.000 C 
ATOM     45  O   UNK A   3      -7.755   6.158 138.540  0.00  0.00    +0.000 OA
ATOM     46  H   UNK A   3      -7.196   8.354 137.056  0.00  0.00    +0.000 HD
BRANCH  43  47
ATOM     47  C   UNK A   3      -9.547   7.781 137.172  0.00  0.00    +0.000 C 
BRANCH  47  49
ATOM     48  N   UNK A   3     -11.576   9.154 137.516  0.00  0.00    +0.000 N 
ATOM     49  C   UNK A   3     -10.260   9.054 137.885  0.00  0.00    +0.000 C 
ATOM     50  O   UNK A   3      -9.741   9.606 138.958  0.00  0.00    +0.000 OA
ATOM     51  H   UNK A   3     -12.245   9.731 138.386  0.00  0.00    +0.000 HD
ATOM     52  H   UNK A   3     -11.867   8.015 137.466  0.00  0.00    +0.000 HD
ENDBRANCH  47  49
ENDBRANCH  43  47
ENDBRANCH  42  44
BRANCH  42  53
ATOM     53  C   UNK A   3      -5.736   6.644 139.991  0.00  0.00    +0.000 C 
BRANCH  53  54
ATOM     54  C   UNK A   3      -5.400   5.215 140.420  0.00  0.00    +0.000 C 
BRANCH  54  55
ATOM     55  C   UNK A   3      -4.414   4.480 139.524  0.00  0.00    +0.000 C 
BRANCH  55  56
ATOM     56  N   UNK A   3      -4.870   3.251 138.786  0.00  0.00    +0.000 NA
ATOM     57  C   UNK A   3      -4.062   2.545 138.053  0.00  0.00    +0.000 C 
ATOM     58  N   UNK A   3      -2.708   2.716 137.870  0.00  0.00    +0.000 N 
ATOM     59  N   UNK A   3      -4.650   1.631 137.240  0.00  0.00    +0.000 N 
ATOM     60  H   UNK A   3      -2.128   3.362 138.411  0.00  0.00    +0.000 HD
ATOM     61  H   UNK A   3      -2.099   2.173 137.292  0.00  0.00    +0.000 HD
ATOM     62  H   UNK A   3      -5.664   1.508 137.266  0.00  0.00    +0.000 HD
ATOM     63  H   UNK A   3      -4.184   1.162 136.485  0.00  0.00    +0.000 HD
ENDBRANCH  55  56
ENDBRANCH  54  55
ENDBRANCH  53  54
ENDBRANCH  42  53
ENDBRANCH  38  42
ENDBRANCH  31  39
ENDBRANCH   1  36
BRANCH  10  64
ATOM     64  CB  TYR A   1      -5.993   4.091 128.444  0.00  0.00    +0.000 C 
BRANCH  64  65
ATOM     65  CG  TYR A   1      -4.548   3.812 127.338  0.00  0.00    +0.000 A 
ATOM     66  CD1 TYR A   1      -3.534   4.586 127.717  0.00  0.00    +0.000 A 
ATOM     67  CE1 TYR A   1      -2.285   4.273 127.283  0.00  0.00    +0.000 A 
ATOM     68  CZ  TYR A   1      -1.963   3.095 126.605  0.00  0.00    +0.000 A 
ATOM     69  CE2 TYR A   1      -2.874   2.113 126.356  0.00  0.00    +0.000 A 
ATOM     70  CD2 TYR A   1      -4.151   2.423 126.703  0.00  0.00    +0.000 A 
BRANCH  68  71
ATOM     71  OH  TYR A   1      -0.715   2.852 126.132  0.00  0.00    +0.000 OA
ATOM     72  HH  TYR A   1      -0.112   3.590 126.305  0.00  0.00    +0.000 HD
ENDBRANCH  68  71
ENDBRANCH  64  65
ENDBRANCH  10  64
BRANCH  14  73
ATOM     73  CB  PHE A   2      -6.961   5.644 132.079  0.00  0.00    +0.000 C 
BRANCH  73  74
ATOM     74  CG  PHE A   2      -8.560   6.114 131.908  0.00  0.00    +0.000 A 
ATOM     75  CD1 PHE A   2      -8.500   6.890 130.929  0.00  0.00    +0.000 A 
ATOM     76  CE1 PHE A   2      -9.741   7.284 130.540  0.00  0.00    +0.000 A 
ATOM     77  CZ  PHE A   2     -10.979   6.894 130.907  0.00  0.00    +0.000 A 
ATOM     78  CE2 PHE A   2     -10.982   6.359 132.118  0.00  0.00    +0.000 A 
ATOM     79  CD2 PHE A   2      -9.820   5.958 132.652  0.00  0.00    +0.000 A 
ENDBRANCH  73  74
ENDBRANCH  14  73
BRANCH  18  80
ATOM     80  C   UNK A   3      -3.216   4.510 133.911  0.00  0.00    +0.000 C 
BRANCH  80  81
ATOM     81  O   UNK A   3      -2.235   3.506 133.763  0.00  0.00    +0.000 OA
ATOM     82  H   UNK A   3      -2.299   2.939 132.967  0.00  0.00    +0.000 HD
ENDBRANCH  80  81
ENDBRANCH  18  80
BRANCH  22  83
ATOM     83  C   UNK A   3      -1.448   7.921 134.363  0.00  0.00    +0.000 C 
BRANCH  83  84
ATOM     84  C   UNK A   3      -0.379   8.149 133.429  0.00  0.00    +0.000 C 
ATOM     85  N   UNK A   3       0.246   9.271 133.769  0.00  0.00    +0.000 N 
ATOM     86  O   UNK A   3       0.001   7.388 132.564  0.00  0.00    +0.000 OA
ATOM     87  H   UNK A   3       0.003   9.735 134.634  0.00  0.00    +0.000 HD
ATOM     88  H   UNK A   3       1.036   9.542 133.264  0.00  0.00    +0.000 HD
ENDBRANCH  83  84
ENDBRANCH  22  83
TORSDOF 19
ENDMDL
MODEL 6
REMARK VINA RESULT:      -9.1      4.877     10.043
REMARK  Name = CHEMBL2369838
REMARK  19 active torsions:
REMARK  status: ('A' for Active; 'I' for Inactive)
REMARK    1  A    between atoms: C_2  and  C_4
REMARK    2  A    between atoms: C_4  and  N_5
REMARK    3  A    between atoms: C_6  and  C_8
REMARK    4  A    between atoms: C_8  and  C_9
REMARK    5  A    between atoms: C_8  and  N_16
REMARK    6  A    between atoms: C_9  and  C_10
REMARK    7  A    between atoms: C_10  and  C_11
REMARK    8  A    between atoms: C_11  and  N_12
REMARK    9  A    between atoms: C_17  and  C_19
REMARK   10  A    between atoms: C_24  and  C_26
REMARK   11  A    between atoms: CA_35  and  CB_36
REMARK   12  A    between atoms: CB_36  and  CG_37
REMARK   13  A    between atoms: CZ_40  and  OH_41
REMARK   14  A    between atoms: CA_47  and  CB_48
REMARK   15  A    between atoms: CB_48  and  CG_49
REMARK   16  A    between atoms: C_58  and  C_59
REMARK   17  A    between atoms: C_59  and  O_60
REMARK   18  A    between atoms: C_64  and  C_65
REMARK   19  A    between atoms: C_65  and  C_66
REMARK                            x       y       z     vdW  Elec       q    Type
REMARK                         _______ _______ _______ _____ _____    ______ ____
ROOT
ATOM      1  C   UNK A   3      -4.728   1.823 131.825  0.00  0.00    +0.000 C 
ATOM      2  C   UNK A   3      -3.779   1.980 134.074  0.00  0.00    +0.000 C 
ATOM      3  S   UNK A   3      -3.402   2.663 136.546  0.00  0.00    +0.000 S 
ATOM      4  S   UNK A   3      -2.543   3.562 138.969  0.00  0.00    +0.000 S 
ATOM      5  C   UNK A   3      -3.186   5.435 140.012  0.00  0.00    +0.000 C 
ATOM      6  C   UNK A   0      -2.850   6.972 140.433  0.00  0.00    +0.000 C 
ATOM      7  C   UNK A   0      -3.603   8.213 139.855  0.00  0.00    +0.000 C 
ATOM      8  O   UNK A   0      -3.564   9.353 140.298  0.00  0.00    +0.000 OA
ATOM      9  N   TYR A   1      -4.331   8.020 138.774  0.00  0.00    +0.000 N 
ATOM     10  CA  TYR A   1      -4.360   6.691 138.342  0.00  0.00    +0.000 C 
ATOM     11  C   TYR A   1      -2.943   6.319 137.482  0.00  0.00    +0.000 C 
ATOM     12  O   TYR A   1      -1.827   6.360 138.009  0.00  0.00    +0.000 OA
ATOM     13  N   PHE A   2      -2.803   5.633 136.391  0.00  0.00    +0.000 N 
ATOM     14  CA  PHE A   2      -3.710   5.626 135.457  0.00  0.00    +0.000 C 
ATOM     15  C   PHE A   2      -5.228   4.447 136.030  0.00  0.00    +0.000 C 
ATOM     16  O   PHE A   2      -5.977   4.480 137.017  0.00  0.00    +0.000 OA
ATOM     17  N   UNK A   3      -5.952   3.772 135.024  0.00  0.00    +0.000 N 
ATOM     18  C   UNK A   3      -5.691   3.758 133.641  0.00  0.00    +0.000 C 
ATOM     19  C   UNK A   3      -6.225   5.363 132.519  0.00  0.00    +0.000 C 
ATOM     20  O   UNK A   3      -5.952   6.649 132.429  0.00  0.00    +0.000 OA
ATOM     21  N   UNK A   3      -6.456   5.166 131.284  0.00  0.00    +0.000 N 
ATOM     22  C   UNK A   3      -6.393   3.830 130.979  0.00  0.00    +0.000 C 
ATOM     23  C   UNK A   3      -4.437   2.956 130.994  0.00  0.00    +0.000 C 
ATOM     24  O   UNK A   3      -3.309   2.950 131.705  0.00  0.00    +0.000 OA
ATOM     25  N   UNK A   3      -4.137   1.784 130.482  0.00  0.00    +0.000 N 
ATOM     26  H   TYR A   1      -4.887   8.790 138.355  0.00  0.00    +0.000 HD
ATOM     27  H   PHE A   2      -1.902   5.486 136.004  0.00  0.00    +0.000 HD
ATOM     28  H   UNK A   3      -6.721   3.178 135.170  0.00  0.00    +0.000 HD
ATOM     29  H   UNK A   3      -6.005   5.876 130.715  0.00  0.00    +0.000 HD
ATOM     30  H   UNK A   3      -4.254   1.458 129.408  0.00  0.00    +0.000 HD
ENDROOT
BRANCH   1  36
ATOM     31  C   UNK A   3      -7.941   0.490 127.947  0.00  0.00    +0.000 C 
ATOM     32  C   UNK A   3      -7.379  -0.528 126.843  0.00  0.00    +0.000 C 
ATOM     33  C   UNK A   3      -7.834   0.059 125.592  0.00  0.00    +0.000 C 
ATOM     34  C   UNK A   3      -7.603   1.855 126.328  0.00  0.00    +0.000 C 
ATOM     35  N   UNK A   3      -7.116   2.048 128.310  0.00  0.00    +0.000 N 
ATOM     36  C   UNK A   3      -5.778   2.410 129.875  0.00  0.00    +0.000 C 
ATOM     37  O   UNK A   3      -6.130   3.542 129.313  0.00  0.00    +0.000 OA
BRANCH  31  39
ATOM     38  N   UNK A   3      -6.853  -0.530 129.896  0.00  0.00    +0.000 N 
ATOM     39  C   UNK A   3      -7.657   0.093 129.190  0.00  0.00    +0.000 C 
ATOM     40  O   UNK A   3      -8.399   0.533 129.968  0.00  0.00    +0.000 OA
ATOM     41  H   UNK A   3      -6.314  -1.122 129.409  0.00  0.00    +0.000 HD
BRANCH  38  42
ATOM     42  C   UNK A   3      -7.077  -0.765 131.252  0.00  0.00    +0.000 C 
BRANCH  42  44
ATOM     43  N   UNK A   3      -4.905  -1.159 132.472  0.00  0.00    +0.000 N 
ATOM     44  C   UNK A   3      -5.769  -1.264 131.525  0.00  0.00    +0.000 C 
ATOM     45  O   UNK A   3      -5.241  -2.140 130.934  0.00  0.00    +0.000 OA
ATOM     46  H   UNK A   3      -5.121  -0.535 133.112  0.00  0.00    +0.000 HD
BRANCH  43  47
ATOM     47  C   UNK A   3      -3.093  -1.780 132.658  0.00  0.00    +0.000 C 
BRANCH  47  49
ATOM     48  N   UNK A   3      -1.357  -0.811 134.130  0.00  0.00    +0.000 N 
ATOM     49  C   UNK A   3      -2.467  -1.615 134.147  0.00  0.00    +0.000 C 
ATOM     50  O   UNK A   3      -3.186  -1.874 135.215  0.00  0.00    +0.000 OA
ATOM     51  H   UNK A   3      -1.186  -0.258 135.226  0.00  0.00    +0.000 HD
ATOM     52  H   UNK A   3      -1.684  -0.021 133.321  0.00  0.00    +0.000 HD
ENDBRANCH  47  49
ENDBRANCH  43  47
ENDBRANCH  42  44
BRANCH  42  53
ATOM     53  C   UNK A   3      -7.791  -1.919 131.648  0.00  0.00    +0.000 C 
BRANCH  53  54
ATOM     54  C   UNK A   3      -8.054  -1.970 133.154  0.00  0.00    +0.000 C 
BRANCH  54  55
ATOM     55  C   UNK A   3      -7.781  -3.312 133.818  0.00  0.00    +0.000 C 
BRANCH  55  56
ATOM     56  N   UNK A   3      -6.419  -3.578 134.398  0.00  0.00    +0.000 NA
ATOM     57  C   UNK A   3      -5.525  -4.281 133.770  0.00  0.00    +0.000 C 
ATOM     58  N   UNK A   3      -5.603  -4.828 132.508  0.00  0.00    +0.000 N 
ATOM     59  N   UNK A   3      -4.451  -4.665 134.507  0.00  0.00    +0.000 N 
ATOM     60  H   UNK A   3      -6.347  -4.628 131.836  0.00  0.00    +0.000 HD
ATOM     61  H   UNK A   3      -4.911  -5.379 132.041  0.00  0.00    +0.000 HD
ATOM     62  H   UNK A   3      -4.370  -4.360 135.479  0.00  0.00    +0.000 HD
ATOM     63  H   UNK A   3      -3.792  -5.366 134.223  0.00  0.00    +0.000 HD
ENDBRANCH  55  56
ENDBRANCH  54  55
ENDBRANCH  53  54
ENDBRANCH  42  53
ENDBRANCH  38  42
ENDBRANCH  31  39
ENDBRANCH   1  36
BRANCH  10  64
ATOM     64  CB  TYR A   1      -5.144   6.922 137.303  0.00  0.00    +0.000 C 
BRANCH  64  65
ATOM     65  CG  TYR A   1      -6.763   7.637 137.807  0.00  0.00    +0.000 A 
ATOM     66  CD1 TYR A   1      -6.779   8.943 137.549  0.00  0.00    +0.000 A 
ATOM     67  CE1 TYR A   1      -7.980   9.577 137.498  0.00  0.00    +0.000 A 
ATOM     68  CZ  TYR A   1      -9.214   8.923 137.526  0.00  0.00    +0.000 A 
ATOM     69  CE2 TYR A   1      -9.330   7.565 137.557  0.00  0.00    +0.000 A 
ATOM     70  CD2 TYR A   1      -8.153   6.899 137.691  0.00  0.00    +0.000 A 
BRANCH  68  71
ATOM     71  OH  TYR A   1     -10.390   9.598 137.537  0.00  0.00    +0.000 OA
ATOM     72  HH  TYR A   1     -11.029   9.202 138.147  0.00  0.00    +0.000 HD
ENDBRANCH  68  71
ENDBRANCH  64  65
ENDBRANCH  10  64
BRANCH  14  73
ATOM     73  CB  PHE A   2      -3.083   5.222 134.233  0.00  0.00    +0.000 C 
BRANCH  73  74
ATOM     74  CG  PHE A   2      -2.092   6.521 133.861  0.00  0.00    +0.000 A 
ATOM     75  CD1 PHE A   2      -2.912   7.355 133.419  0.00  0.00    +0.000 A 
ATOM     76  CE1 PHE A   2      -2.313   8.551 133.180  0.00  0.00    +0.000 A 
ATOM     77  CZ  PHE A   2      -1.080   9.026 133.458  0.00  0.00    +0.000 A 
ATOM     78  CE2 PHE A   2      -0.202   8.046 133.599  0.00  0.00    +0.000 A 
ATOM     79  CD2 PHE A   2      -0.648   6.799 133.802  0.00  0.00    +0.000 A 
ENDBRANCH  73  74
ENDBRANCH  14  73
BRANCH  18  80
ATOM     80  C   UNK A   3      -6.260   2.479 133.206  0.00  0.00    +0.000 C 
BRANCH  80  81
ATOM     81  O   UNK A   3      -7.439   1.907 133.729  0.00  0.00    +0.000 OA
ATOM     82  H   UNK A   3      -8.187   2.516 133.900  0.00  0.00    +0.000 HD
ENDBRANCH  80  81
ENDBRANCH  18  80
BRANCH  22  83
ATOM     83  C   UNK A   3      -7.540   3.914 129.849  0.00  0.00    +0.000 C 
BRANCH  83  84
ATOM     84  C   UNK A   3      -8.886   4.388 130.022  0.00  0.00    +0.000 C 
ATOM     85  N   UNK A   3      -9.660   3.355 130.338  0.00  0.00    +0.000 N 
ATOM     86  O   UNK A   3      -9.248   5.546 130.033  0.00  0.00    +0.000 OA
ATOM     87  H   UNK A   3      -9.239   2.455 130.522  0.00  0.00    +0.000 HD
ATOM     88  H   UNK A   3     -10.599   3.517 130.543  0.00  0.00    +0.000 HD
ENDBRANCH  83  84
ENDBRANCH  22  83
TORSDOF 19
ENDMDL
MODEL 7
REMARK VINA RESULT:      -8.8      2.932      5.274
REMARK  Name = CHEMBL2369838
REMARK  19 active torsions:
REMARK  status: ('A' for Active; 'I' for Inactive)
REMARK    1  A    between atoms: C_2  and  C_4
REMARK    2  A    between atoms: C_4  and  N_5
REMARK    3  A    between atoms: C_6  and  C_8
REMARK    4  A    between atoms: C_8  and  C_9
REMARK    5  A    between atoms: C_8  and  N_16
REMARK    6  A    between atoms: C_9  and  C_10
REMARK    7  A    between atoms: C_10  and  C_11
REMARK    8  A    between atoms: C_11  and  N_12
REMARK    9  A    between atoms: C_17  and  C_19
REMARK   10  A    between atoms: C_24  and  C_26
REMARK   11  A    between atoms: CA_35  and  CB_36
REMARK   12  A    between atoms: CB_36  and  CG_37
REMARK   13  A    between atoms: CZ_40  and  OH_41
REMARK   14  A    between atoms: CA_47  and  CB_48
REMARK   15  A    between atoms: CB_48  and  CG_49
REMARK   16  A    between atoms: C_58  and  C_59
REMARK   17  A    between atoms: C_59  and  O_60
REMARK   18  A    between atoms: C_64  and  C_65
REMARK   19  A    between atoms: C_65  and  C_66
REMARK                            x       y       z     vdW  Elec       q    Type
REMARK                         _______ _______ _______ _____ _____    ______ ____
ROOT
ATOM      1  C   UNK A   3      -3.732   1.650 131.162  0.00  0.00    +0.000 C 
ATOM      2  C   UNK A   3      -4.433  -0.024 129.522  0.00  0.00    +0.000 C 
ATOM      3  S   UNK A   3      -5.299  -1.122 127.339  0.00  0.00    +0.000 S 
ATOM      4  S   UNK A   3      -6.596  -2.460 125.353  0.00  0.00    +0.000 S 
ATOM      5  C   UNK A   3      -7.912  -1.575 123.774  0.00  0.00    +0.000 C 
ATOM      6  C   UNK A   0      -9.418  -1.301 123.218  0.00  0.00    +0.000 C 
ATOM      7  C   UNK A   0     -10.077   0.115 123.164  0.00  0.00    +0.000 C 
ATOM      8  O   UNK A   0     -11.091   0.417 122.549  0.00  0.00    +0.000 OA
ATOM      9  N   TYR A   1      -9.500   1.069 123.865  0.00  0.00    +0.000 N 
ATOM     10  CA  TYR A   1      -8.330   0.667 124.513  0.00  0.00    +0.000 C 
ATOM     11  C   TYR A   1      -8.705  -0.183 125.936  0.00  0.00    +0.000 C 
ATOM     12  O   TYR A   1      -9.330  -1.248 125.917  0.00  0.00    +0.000 OA
ATOM     13  N   PHE A   2      -8.150  -0.110 127.105  0.00  0.00    +0.000 N 
ATOM     14  CA  PHE A   2      -7.646   0.999 127.563  0.00  0.00    +0.000 C 
ATOM     15  C   PHE A   2      -5.878   1.330 126.676  0.00  0.00    +0.000 C 
ATOM     16  O   PHE A   2      -5.557   1.458 125.486  0.00  0.00    +0.000 OA
ATOM     17  N   UNK A   3      -4.892   2.021 127.414  0.00  0.00    +0.000 N 
ATOM     18  C   UNK A   3      -4.965   2.452 128.751  0.00  0.00    +0.000 C 
ATOM     19  C   UNK A   3      -6.030   4.122 129.195  0.00  0.00    +0.000 C 
ATOM     20  O   UNK A   3      -7.270   4.561 129.119  0.00  0.00    +0.000 OA
ATOM     21  N   UNK A   3      -5.698   4.771 130.238  0.00  0.00    +0.000 N 
ATOM     22  C   UNK A   3      -4.573   4.236 130.812  0.00  0.00    +0.000 C 
ATOM     23  C   UNK A   3      -4.824   2.344 131.783  0.00  0.00    +0.000 C 
ATOM     24  O   UNK A   3      -5.421   1.163 131.616  0.00  0.00    +0.000 OA
ATOM     25  N   UNK A   3      -3.954   1.802 132.605  0.00  0.00    +0.000 N 
ATOM     26  H   TYR A   1      -9.862   2.042 123.849  0.00  0.00    +0.000 HD
ATOM     27  H   PHE A   2      -8.471  -0.682 127.848  0.00  0.00    +0.000 HD
ATOM     28  H   UNK A   3      -3.994   2.255 127.092  0.00  0.00    +0.000 HD
ATOM     29  H   UNK A   3      -6.518   5.024 130.780  0.00  0.00    +0.000 HD
ATOM     30  H   UNK A   3      -3.576   2.230 133.578  0.00  0.00    +0.000 HD
ENDROOT
BRANCH   1  36
ATOM     31  C   UNK A   3      -4.584   4.182 135.634  0.00  0.00    +0.000 C 
ATOM     32  C   UNK A   3      -6.105   4.531 136.004  0.00  0.00    +0.000 C 
ATOM     33  C   UNK A   3      -6.022   5.904 136.480  0.00  0.00    +0.000 C 
ATOM     34  C   UNK A   3      -4.596   6.282 135.197  0.00  0.00    +0.000 C 
ATOM     35  N   UNK A   3      -3.831   4.732 134.094  0.00  0.00    +0.000 N 
ATOM     36  C   UNK A   3      -3.630   3.612 132.340  0.00  0.00    +0.000 C 
ATOM     37  O   UNK A   3      -2.918   4.711 132.257  0.00  0.00    +0.000 OA
BRANCH  31  39
ATOM     38  N   UNK A   3      -5.042   1.876 134.931  0.00  0.00    +0.000 N 
ATOM     39  C   UNK A   3      -4.444   2.923 135.210  0.00  0.00    +0.000 C 
ATOM     40  O   UNK A   3      -3.347   2.685 134.910  0.00  0.00    +0.000 OA
ATOM     41  H   UNK A   3      -5.897   1.825 135.312  0.00  0.00    +0.000 HD
BRANCH  38  42
ATOM     42  C   UNK A   3      -4.370   0.701 134.596  0.00  0.00    +0.000 C 
BRANCH  42  44
ATOM     43  N   UNK A   3      -6.027  -0.942 133.639  0.00  0.00    +0.000 N 
ATOM     44  C   UNK A   3      -5.544  -0.103 134.485  0.00  0.00    +0.000 C 
ATOM     45  O   UNK A   3      -6.304  -0.316 135.363  0.00  0.00    +0.000 OA
ATOM     46  H   UNK A   3      -5.562  -0.991 132.847  0.00  0.00    +0.000 HD
BRANCH  43  47
ATOM     47  C   UNK A   3      -7.712  -1.867 133.538  0.00  0.00    +0.000 C 
BRANCH  47  49
ATOM     48  N   UNK A   3      -8.973  -3.773 134.486  0.00  0.00    +0.000 N 
ATOM     49  C   UNK A   3      -7.704  -3.365 134.167  0.00  0.00    +0.000 C 
ATOM     50  O   UNK A   3      -6.685  -4.171 133.980  0.00  0.00    +0.000 OA
ATOM     51  H   UNK A   3      -9.068  -5.008 134.457  0.00  0.00    +0.000 HD
ATOM     52  H   UNK A   3      -9.577  -3.296 133.595  0.00  0.00    +0.000 HD
ENDBRANCH  47  49
ENDBRANCH  43  47
ENDBRANCH  42  44
BRANCH  42  53
ATOM     53  C   UNK A   3      -3.738  -0.052 135.611  0.00  0.00    +0.000 C 
BRANCH  53  54
ATOM     54  C   UNK A   3      -2.739  -1.072 135.063  0.00  0.00    +0.000 C 
BRANCH  54  55
ATOM     55  C   UNK A   3      -2.892  -2.487 135.601  0.00  0.00    +0.000 C 
BRANCH  55  56
ATOM     56  N   UNK A   3      -2.179  -3.615 134.906  0.00  0.00    +0.000 NA
ATOM     57  C   UNK A   3      -2.694  -4.237 133.889  0.00  0.00    +0.000 C 
ATOM     58  N   UNK A   3      -3.878  -3.969 133.236  0.00  0.00    +0.000 N 
ATOM     59  N   UNK A   3      -2.078  -5.392 133.528  0.00  0.00    +0.000 N 
ATOM     60  H   UNK A   3      -4.450  -3.137 133.395  0.00  0.00    +0.000 HD
ATOM     61  H   UNK A   3      -4.270  -4.465 132.462  0.00  0.00    +0.000 HD
ATOM     62  H   UNK A   3      -1.238  -5.693 134.026  0.00  0.00    +0.000 HD
ATOM     63  H   UNK A   3      -2.471  -6.072 132.905  0.00  0.00    +0.000 HD
ENDBRANCH  55  56
ENDBRANCH  54  55
ENDBRANCH  53  54
ENDBRANCH  42  53
ENDBRANCH  38  42
ENDBRANCH  31  39
ENDBRANCH   1  36
BRANCH  10  64
ATOM     64  CB  TYR A   1      -8.090   1.843 125.066  0.00  0.00    +0.000 C 
BRANCH  64  65
ATOM     65  CG  TYR A   1      -7.370   3.036 123.863  0.00  0.00    +0.000 A 
ATOM     66  CD1 TYR A   1      -6.653   3.951 124.510  0.00  0.00    +0.000 A 
ATOM     67  CE1 TYR A   1      -5.753   4.685 123.805  0.00  0.00    +0.000 A 
ATOM     68  CZ  TYR A   1      -5.401   4.428 122.477  0.00  0.00    +0.000 A 
ATOM     69  CE2 TYR A   1      -5.897   3.373 121.772  0.00  0.00    +0.000 A 
ATOM     70  CD2 TYR A   1      -6.861   2.664 122.416  0.00  0.00    +0.000 A 
BRANCH  68  71
ATOM     71  OH  TYR A   1      -4.546   5.225 121.790  0.00  0.00    +0.000 OA
ATOM     72  HH  TYR A   1      -3.857   4.714 121.340  0.00  0.00    +0.000 HD
ENDBRANCH  68  71
ENDBRANCH  64  65
ENDBRANCH  10  64
BRANCH  14  73
ATOM     73  CB  PHE A   2      -7.577   0.898 128.992  0.00  0.00    +0.000 C 
BRANCH  73  74
ATOM     74  CG  PHE A   2      -8.775   1.948 129.510  0.00  0.00    +0.000 A 
ATOM     75  CD1 PHE A   2      -8.915   1.613 130.706  0.00  0.00    +0.000 A 
ATOM     76  CE1 PHE A   2      -9.767   2.451 131.354  0.00  0.00    +0.000 A 
ATOM     77  CZ  PHE A   2     -10.349   3.615 130.997  0.00  0.00    +0.000 A 
ATOM     78  CE2 PHE A   2     -10.438   3.730 129.681  0.00  0.00    +0.000 A 
ATOM     79  CD2 PHE A   2      -9.683   2.937 128.907  0.00  0.00    +0.000 A 
ENDBRANCH  73  74
ENDBRANCH  14  73
BRANCH  18  80
ATOM     80  C   UNK A   3      -3.560   2.481 129.171  0.00  0.00    +0.000 C 
BRANCH  80  81
ATOM     81  O   UNK A   3      -2.470   2.705 128.304  0.00  0.00    +0.000 OA
ATOM     82  H   UNK A   3      -1.864   1.951 128.151  0.00  0.00    +0.000 HD
ENDBRANCH  80  81
ENDBRANCH  18  80
BRANCH  22  83
ATOM     83  C   UNK A   3      -4.018   5.659 131.328  0.00  0.00    +0.000 C 
BRANCH  83  84
ATOM     84  C   UNK A   3      -3.980   6.889 130.583  0.00  0.00    +0.000 C 
ATOM     85  N   UNK A   3      -3.375   7.812 131.324  0.00  0.00    +0.000 N 
ATOM     86  O   UNK A   3      -4.301   7.042 129.424  0.00  0.00    +0.000 OA
ATOM     87  H   UNK A   3      -2.941   7.545 132.198  0.00  0.00    +0.000 HD
ATOM     88  H   UNK A   3      -3.219   8.695 130.940  0.00  0.00    +0.000 HD
ENDBRANCH  83  84
ENDBRANCH  22  83
TORSDOF 19
ENDMDL
MODEL 8
REMARK VINA RESULT:      -8.8      7.703     12.520
REMARK  Name = CHEMBL2369838
REMARK  19 active torsions:
REMARK  status: ('A' for Active; 'I' for Inactive)
REMARK    1  A    between atoms: C_2  and  C_4
REMARK    2  A    between atoms: C_4  and  N_5
REMARK    3  A    between atoms: C_6  and  C_8
REMARK    4  A    between atoms: C_8  and  C_9
REMARK    5  A    between atoms: C_8  and  N_16
REMARK    6  A    between atoms: C_9  and  C_10
REMARK    7  A    between atoms: C_10  and  C_11
REMARK    8  A    between atoms: C_11  and  N_12
REMARK    9  A    between atoms: C_17  and  C_19
REMARK   10  A    between atoms: C_24  and  C_26
REMARK   11  A    between atoms: CA_35  and  CB_36
REMARK   12  A    between atoms: CB_36  and  CG_37
REMARK   13  A    between atoms: CZ_40  and  OH_41
REMARK   14  A    between atoms: CA_47  and  CB_48
REMARK   15  A    between atoms: CB_48  and  CG_49
REMARK   16  A    between atoms: C_58  and  C_59
REMARK   17  A    between atoms: C_59  and  O_60
REMARK   18  A    between atoms: C_64  and  C_65
REMARK   19  A    between atoms: C_65  and  C_66
REMARK                            x       y       z     vdW  Elec       q    Type
REMARK                         _______ _______ _______ _____ _____    ______ ____
ROOT
ATOM      1  C   UNK A   3      -4.607   5.386 135.463  0.00  0.00    +0.000 C 
ATOM      2  C   UNK A   3      -4.452   7.365 136.891  0.00  0.00    +0.000 C 
ATOM      3  S   UNK A   3      -3.848   9.728 137.768  0.00  0.00    +0.000 S 
ATOM      4  S   UNK A   3      -2.975  11.949 139.079  0.00  0.00    +0.000 S 
ATOM      5  C   UNK A   3      -1.232  13.239 138.525  0.00  0.00    +0.000 C 
ATOM      6  C   UNK A   0       0.312  13.680 138.804  0.00  0.00    +0.000 C 
ATOM      7  C   UNK A   0       1.490  13.375 137.823  0.00  0.00    +0.000 C 
ATOM      8  O   UNK A   0       2.605  13.877 137.858  0.00  0.00    +0.000 OA
ATOM      9  N   TYR A   1       1.269  12.478 136.885  0.00  0.00    +0.000 N 
ATOM     10  CA  TYR A   1      -0.033  11.972 136.881  0.00  0.00    +0.000 C 
ATOM     11  C   TYR A   1      -0.211  10.788 138.087  0.00  0.00    +0.000 C 
ATOM     12  O   TYR A   1      -0.075  11.050 139.286  0.00  0.00    +0.000 OA
ATOM     13  N   PHE A   2      -0.827   9.649 138.033  0.00  0.00    +0.000 N 
ATOM     14  CA  PHE A   2      -0.888   8.948 136.938  0.00  0.00    +0.000 C 
ATOM     15  C   PHE A   2      -2.248   9.767 135.712  0.00  0.00    +0.000 C 
ATOM     16  O   PHE A   2      -2.342  10.898 135.214  0.00  0.00    +0.000 OA
ATOM     17  N   UNK A   3      -2.950   8.907 134.840  0.00  0.00    +0.000 N 
ATOM     18  C   UNK A   3      -2.872   7.504 134.772  0.00  0.00    +0.000 C 
ATOM     19  C   UNK A   3      -1.283   6.646 133.843  0.00  0.00    +0.000 C 
ATOM     20  O   UNK A   3       0.028   6.587 133.966  0.00  0.00    +0.000 OA
ATOM     21  N   UNK A   3      -1.447   5.486 133.350  0.00  0.00    +0.000 N 
ATOM     22  C   UNK A   3      -2.752   5.082 133.465  0.00  0.00    +0.000 C 
ATOM     23  C   UNK A   3      -3.411   4.591 135.444  0.00  0.00    +0.000 C 
ATOM     24  O   UNK A   3      -3.330   5.025 136.702  0.00  0.00    +0.000 OA
ATOM     25  N   UNK A   3      -4.519   3.944 135.725  0.00  0.00    +0.000 N 
ATOM     26  H   TYR A   1       1.994  12.251 136.178  0.00  0.00    +0.000 HD
ATOM     27  H   PHE A   2      -0.858   9.058 138.829  0.00  0.00    +0.000 HD
ATOM     28  H   UNK A   3      -3.629   9.182 134.186  0.00  0.00    +0.000 HD
ATOM     29  H   UNK A   3      -0.667   4.881 133.587  0.00  0.00    +0.000 HD
ATOM     30  H   UNK A   3      -4.806   2.905 135.392  0.00  0.00    +0.000 HD
ENDROOT
BRANCH   1  36
ATOM     31  C   UNK A   3      -6.006   2.474 131.375  0.00  0.00    +0.000 C 
ATOM     32  C   UNK A   3      -7.024   1.266 131.647  0.00  0.00    +0.000 C 
ATOM     33  C   UNK A   3      -6.452   0.172 130.876  0.00  0.00    +0.000 C 
ATOM     34  C   UNK A   3      -4.648   0.818 131.265  0.00  0.00    +0.000 C 
ATOM     35  N   UNK A   3      -4.435   2.606 132.245  0.00  0.00    +0.000 N 
ATOM     36  C   UNK A   3      -4.046   3.771 133.937  0.00  0.00    +0.000 C 
ATOM     37  O   UNK A   3      -2.922   3.316 133.435  0.00  0.00    +0.000 OA
BRANCH  31  39
ATOM     38  N   UNK A   3      -7.016   4.080 132.933  0.00  0.00    +0.000 N 
ATOM     39  C   UNK A   3      -6.391   3.603 131.976  0.00  0.00    +0.000 C 
ATOM     40  O   UNK A   3      -5.930   4.543 131.473  0.00  0.00    +0.000 OA
ATOM     41  H   UNK A   3      -7.623   3.476 133.316  0.00  0.00    +0.000 HD
BRANCH  38  42
ATOM     42  C   UNK A   3      -7.230   5.450 133.075  0.00  0.00    +0.000 C 
BRANCH  42  44
ATOM     43  N   UNK A   3      -7.875   6.232 135.385  0.00  0.00    +0.000 N 
ATOM     44  C   UNK A   3      -7.503   5.403 134.475  0.00  0.00    +0.000 C 
ATOM     45  O   UNK A   3      -7.638   4.414 135.106  0.00  0.00    +0.000 OA
ATOM     46  H   UNK A   3      -7.890   7.111 135.112  0.00  0.00    +0.000 HD
BRANCH  43  47
ATOM     47  C   UNK A   3      -8.075   6.071 137.292  0.00  0.00    +0.000 C 
BRANCH  47  49
ATOM     48  N   UNK A   3      -7.630   7.765 139.039  0.00  0.00    +0.000 N 
ATOM     49  C   UNK A   3      -8.518   7.439 138.048  0.00  0.00    +0.000 C 
ATOM     50  O   UNK A   3      -9.352   8.282 137.485  0.00  0.00    +0.000 OA
ATOM     51  H   UNK A   3      -7.625   8.985 139.256  0.00  0.00    +0.000 HD
ATOM     52  H   UNK A   3      -6.619   7.437 138.531  0.00  0.00    +0.000 HD
ENDBRANCH  47  49
ENDBRANCH  43  47
ENDBRANCH  42  44
BRANCH  42  53
ATOM     53  C   UNK A   3      -8.467   6.005 132.675  0.00  0.00    +0.000 C 
BRANCH  53  54
ATOM     54  C   UNK A   3      -8.400   6.685 131.307  0.00  0.00    +0.000 C 
BRANCH  54  55
ATOM     55  C   UNK A   3      -9.725   6.797 130.569  0.00  0.00    +0.000 C 
BRANCH  55  56
ATOM     56  N   UNK A   3      -9.794   7.611 129.305  0.00  0.00    +0.000 NA
ATOM     57  C   UNK A   3     -10.890   8.189 128.914  0.00  0.00    +0.000 C 
ATOM     58  N   UNK A   3     -12.106   8.236 129.559  0.00  0.00    +0.000 N 
ATOM     59  N   UNK A   3     -10.885   8.662 127.642  0.00  0.00    +0.000 N 
ATOM     60  H   UNK A   3     -12.264   7.923 130.519  0.00  0.00    +0.000 HD
ATOM     61  H   UNK A   3     -12.947   8.673 129.239  0.00  0.00    +0.000 HD
ATOM     62  H   UNK A   3     -10.037   8.587 127.077  0.00  0.00    +0.000 HD
ATOM     63  H   UNK A   3     -11.707   8.946 127.141  0.00  0.00    +0.000 HD
ENDBRANCH  55  56
ENDBRANCH  54  55
ENDBRANCH  53  54
ENDBRANCH  42  53
ENDBRANCH  38  42
ENDBRANCH  31  39
ENDBRANCH   1  36
BRANCH  10  64
ATOM     64  CB  TYR A   1       0.160  11.157 135.859  0.00  0.00    +0.000 C 
BRANCH  64  65
ATOM     65  CG  TYR A   1       0.530  12.075 134.306  0.00  0.00    +0.000 A 
ATOM     66  CD1 TYR A   1       1.420  11.398 133.584  0.00  0.00    +0.000 A 
ATOM     67  CE1 TYR A   1       1.548  11.701 132.266  0.00  0.00    +0.000 A 
ATOM     68  CZ  TYR A   1       0.688  12.557 131.571  0.00  0.00    +0.000 A 
ATOM     69  CE2 TYR A   1      -0.403  13.135 132.148  0.00  0.00    +0.000 A 
ATOM     70  CD2 TYR A   1      -0.518  12.921 133.485  0.00  0.00    +0.000 A 
BRANCH  68  71
ATOM     71  OH  TYR A   1       0.890  12.883 130.271  0.00  0.00    +0.000 OA
ATOM     72  HH  TYR A   1       1.233  12.136 129.759  0.00  0.00    +0.000 HD
ENDBRANCH  68  71
ENDBRANCH  64  65
ENDBRANCH  10  64
BRANCH  14  73
ATOM     73  CB  PHE A   2      -1.165   7.588 137.297  0.00  0.00    +0.000 C 
BRANCH  73  74
ATOM     74  CG  PHE A   2       0.359   6.899 137.403  0.00  0.00    +0.000 A 
ATOM     75  CD1 PHE A   2       0.238   6.152 138.398  0.00  0.00    +0.000 A 
ATOM     76  CE1 PHE A   2       1.348   5.389 138.576  0.00  0.00    +0.000 A 
ATOM     77  CZ  PHE A   2       2.450   5.192 137.821  0.00  0.00    +0.000 A 
ATOM     78  CE2 PHE A   2       2.668   6.211 137.005  0.00  0.00    +0.000 A 
ATOM     79  CD2 PHE A   2       1.673   7.075 136.764  0.00  0.00    +0.000 A 
ENDBRANCH  73  74
ENDBRANCH  14  73
BRANCH  18  80
ATOM     80  C   UNK A   3      -4.183   7.121 134.240  0.00  0.00    +0.000 C 
BRANCH  80  81
ATOM     81  O   UNK A   3      -4.539   7.169 132.876  0.00  0.00    +0.000 OA
ATOM     82  H   UNK A   3      -5.307   6.628 132.600  0.00  0.00    +0.000 HD
ENDBRANCH  80  81
ENDBRANCH  18  80
BRANCH  22  83
ATOM     83  C   UNK A   3      -2.741   4.251 132.084  0.00  0.00    +0.000 C 
BRANCH  83  84
ATOM     84  C   UNK A   3      -2.573   4.785 130.759  0.00  0.00    +0.000 C 
ATOM     85  N   UNK A   3      -3.187   3.980 129.899  0.00  0.00    +0.000 N 
ATOM     86  O   UNK A   3      -2.090   5.859 130.469  0.00  0.00    +0.000 OA
ATOM     87  H   UNK A   3      -3.754   3.217 130.247  0.00  0.00    +0.000 HD
ATOM     88  H   UNK A   3      -3.214   4.231 128.957  0.00  0.00    +0.000 HD
ENDBRANCH  83  84
ENDBRANCH  22  83
TORSDOF 19
ENDMDL
MODEL 9
REMARK VINA RESULT:      -8.7      2.943      6.645
REMARK  Name = CHEMBL2369838
REMARK  19 active torsions:
REMARK  status: ('A' for Active; 'I' for Inactive)
REMARK    1  A    between atoms: C_2  and  C_4
REMARK    2  A    between atoms: C_4  and  N_5
REMARK    3  A    between atoms: C_6  and  C_8
REMARK    4  A    between atoms: C_8  and  C_9
REMARK    5  A    between atoms: C_8  and  N_16
REMARK    6  A    between atoms: C_9  and  C_10
REMARK    7  A    between atoms: C_10  and  C_11
REMARK    8  A    between atoms: C_11  and  N_12
REMARK    9  A    between atoms: C_17  and  C_19
REMARK   10  A    between atoms: C_24  and  C_26
REMARK   11  A    between atoms: CA_35  and  CB_36
REMARK   12  A    between atoms: CB_36  and  CG_37
REMARK   13  A    between atoms: CZ_40  and  OH_41
REMARK   14  A    between atoms: CA_47  and  CB_48
REMARK   15  A    between atoms: CB_48  and  CG_49
REMARK   16  A    between atoms: C_58  and  C_59
REMARK   17  A    between atoms: C_59  and  O_60
REMARK   18  A    between atoms: C_64  and  C_65
REMARK   19  A    between atoms: C_65  and  C_66
REMARK                            x       y       z     vdW  Elec       q    Type
REMARK                         _______ _______ _______ _____ _____    ______ ____
ROOT
ATOM      1  C   UNK A   3      -4.081  -0.141 134.835  0.00  0.00    +0.000 C 
ATOM      2  C   UNK A   3      -5.328   1.961 134.756  0.00  0.00    +0.000 C 
ATOM      3  S   UNK A   3      -7.061   3.774 134.101  0.00  0.00    +0.000 S 
ATOM      4  S   UNK A   3      -8.460   5.959 133.276  0.00  0.00    +0.000 S 
ATOM      5  C   UNK A   3      -9.572   6.194 131.347  0.00  0.00    +0.000 C 
ATOM      6  C   UNK A   0      -9.627   6.823 129.845  0.00  0.00    +0.000 C 
ATOM      7  C   UNK A   0      -9.532   5.964 128.543  0.00  0.00    +0.000 C 
ATOM      8  O   UNK A   0      -9.801   6.339 127.410  0.00  0.00    +0.000 OA
ATOM      9  N   TYR A   1      -9.100   4.727 128.673  0.00  0.00    +0.000 N 
ATOM     10  CA  TYR A   1      -8.844   4.353 129.995  0.00  0.00    +0.000 C 
ATOM     11  C   TYR A   1      -7.337   4.957 130.499  0.00  0.00    +0.000 C 
ATOM     12  O   TYR A   1      -7.104   6.168 130.559  0.00  0.00    +0.000 OA
ATOM     13  N   PHE A   2      -6.414   4.376 131.199  0.00  0.00    +0.000 N 
ATOM     14  CA  PHE A   2      -6.195   3.095 131.127  0.00  0.00    +0.000 C 
ATOM     15  C   PHE A   2      -7.618   2.129 132.159  0.00  0.00    +0.000 C 
ATOM     16  O   PHE A   2      -8.853   2.113 132.054  0.00  0.00    +0.000 OA
ATOM     17  N   UNK A   3      -7.270   0.904 132.769  0.00  0.00    +0.000 N 
ATOM     18  C   UNK A   3      -6.002   0.296 132.812  0.00  0.00    +0.000 C 
ATOM     19  C   UNK A   3      -5.318  -0.681 131.169  0.00  0.00    +0.000 C 
ATOM     20  O   UNK A   3      -5.012  -0.423 129.914  0.00  0.00    +0.000 OA
ATOM     21  N   UNK A   3      -4.469  -1.611 131.349  0.00  0.00    +0.000 N 
ATOM     22  C   UNK A   3      -4.263  -1.836 132.686  0.00  0.00    +0.000 C 
ATOM     23  C   UNK A   3      -3.174  -0.318 133.735  0.00  0.00    +0.000 C 
ATOM     24  O   UNK A   3      -3.085   1.009 133.843  0.00  0.00    +0.000 OA
ATOM     25  N   UNK A   3      -2.651  -0.463 134.932  0.00  0.00    +0.000 N 
ATOM     26  H   TYR A   1      -9.044   4.088 127.857  0.00  0.00    +0.000 HD
ATOM     27  H   PHE A   2      -5.581   4.861 131.429  0.00  0.00    +0.000 HD
ATOM     28  H   UNK A   3      -7.874   0.331 133.289  0.00  0.00    +0.000 HD
ATOM     29  H   UNK A   3      -3.705  -1.533 130.685  0.00  0.00    +0.000 HD
ATOM     30  H   UNK A   3      -1.873  -1.215 135.250  0.00  0.00    +0.000 HD
ENDROOT
BRANCH   1  36
ATOM     31  C   UNK A   3      -3.250  -5.213 135.691  0.00  0.00    +0.000 C 
ATOM     32  C   UNK A   3      -2.241  -5.603 136.874  0.00  0.00    +0.000 C 
ATOM     33  C   UNK A   3      -1.436  -6.662 136.284  0.00  0.00    +0.000 C 
ATOM     34  C   UNK A   3      -1.539  -5.792 134.536  0.00  0.00    +0.000 C 
ATOM     35  N   UNK A   3      -2.749  -4.151 134.326  0.00  0.00    +0.000 N 
ATOM     36  C   UNK A   3      -3.091  -2.095 134.161  0.00  0.00    +0.000 C 
ATOM     37  O   UNK A   3      -2.660  -2.573 133.017  0.00  0.00    +0.000 OA
BRANCH  31  39
ATOM     38  N   UNK A   3      -4.282  -3.261 136.765  0.00  0.00    +0.000 N 
ATOM     39  C   UNK A   3      -4.117  -4.266 136.060  0.00  0.00    +0.000 C 
ATOM     40  O   UNK A   3      -5.112  -4.331 135.463  0.00  0.00    +0.000 OA
ATOM     41  H   UNK A   3      -3.660  -3.193 137.462  0.00  0.00    +0.000 HD
BRANCH  38  42
ATOM     42  C   UNK A   3      -5.519  -2.630 136.885  0.00  0.00    +0.000 C 
BRANCH  42  44
ATOM     43  N   UNK A   3      -5.571  -0.596 138.376  0.00  0.00    +0.000 N 
ATOM     44  C   UNK A   3      -5.048  -1.559 137.702  0.00  0.00    +0.000 C 
ATOM     45  O   UNK A   3      -3.949  -1.459 138.121  0.00  0.00    +0.000 OA
ATOM     46  H   UNK A   3      -6.476  -0.490 138.245  0.00  0.00    +0.000 HD
BRANCH  43  47
ATOM     47  C   UNK A   3      -4.808   0.887 139.337  0.00  0.00    +0.000 C 
BRANCH  47  49
ATOM     48  N   UNK A   3      -3.030   1.623 137.782  0.00  0.00    +0.000 N 
ATOM     49  C   UNK A   3      -4.176   2.052 138.398  0.00  0.00    +0.000 C 
ATOM     50  O   UNK A   3      -4.908   3.064 137.993  0.00  0.00    +0.000 OA
ATOM     51  H   UNK A   3      -2.833   2.233 136.722  0.00  0.00    +0.000 HD
ATOM     52  H   UNK A   3      -3.317   0.503 137.562  0.00  0.00    +0.000 HD
ENDBRANCH  47  49
ENDBRANCH  43  47
ENDBRANCH  42  44
BRANCH  42  53
ATOM     53  C   UNK A   3      -6.473  -3.139 137.796  0.00  0.00    +0.000 C 
BRANCH  53  54
ATOM     54  C   UNK A   3      -7.895  -3.132 137.235  0.00  0.00    +0.000 C 
BRANCH  54  55
ATOM     55  C   UNK A   3      -9.004  -3.277 138.267  0.00  0.00    +0.000 C 
BRANCH  55  56
ATOM     56  N   UNK A   3     -10.225  -2.405 138.157  0.00  0.00    +0.000 NA
ATOM     57  C   UNK A   3     -11.410  -2.897 137.959  0.00  0.00    +0.000 C 
ATOM     58  N   UNK A   3     -11.782  -4.222 137.884  0.00  0.00    +0.000 N 
ATOM     59  N   UNK A   3     -12.372  -2.001 137.618  0.00  0.00    +0.000 N 
ATOM     60  H   UNK A   3     -11.171  -5.008 138.117  0.00  0.00    +0.000 HD
ATOM     61  H   UNK A   3     -12.698  -4.587 137.717  0.00  0.00    +0.000 HD
ATOM     62  H   UNK A   3     -12.144  -1.006 137.575  0.00  0.00    +0.000 HD
ATOM     63  H   UNK A   3     -13.269  -2.249 137.244  0.00  0.00    +0.000 HD
ENDBRANCH  55  56
ENDBRANCH  54  55
ENDBRANCH  53  54
ENDBRANCH  42  53
ENDBRANCH  38  42
ENDBRANCH  31  39
ENDBRANCH   1  36
BRANCH  10  64
ATOM     64  CB  TYR A   1      -8.453   3.126 129.697  0.00  0.00    +0.000 C 
BRANCH  64  65
ATOM     65  CG  TYR A   1      -8.148   2.920 127.894  0.00  0.00    +0.000 A 
ATOM     66  CD1 TYR A   1      -6.883   3.223 127.613  0.00  0.00    +0.000 A 
ATOM     67  CE1 TYR A   1      -6.361   2.791 126.436  0.00  0.00    +0.000 A 
ATOM     68  CZ  TYR A   1      -7.004   1.900 125.572  0.00  0.00    +0.000 A 
ATOM     69  CE2 TYR A   1      -8.210   1.335 125.859  0.00  0.00    +0.000 A 
ATOM     70  CD2 TYR A   1      -8.802   1.805 126.988  0.00  0.00    +0.000 A 
BRANCH  68  71
ATOM     71  OH  TYR A   1      -6.474   1.544 124.376  0.00  0.00    +0.000 OA
ATOM     72  HH  TYR A   1      -5.507   1.500 124.407  0.00  0.00    +0.000 HD
ENDBRANCH  68  71
ENDBRANCH  64  65
ENDBRANCH  10  64
BRANCH  14  73
ATOM     73  CB  PHE A   2      -4.861   2.846 131.591  0.00  0.00    +0.000 C 
BRANCH  73  74
ATOM     74  CG  PHE A   2      -3.906   3.607 130.444  0.00  0.00    +0.000 A 
ATOM     75  CD1 PHE A   2      -3.866   2.754 129.531  0.00  0.00    +0.000 A 
ATOM     76  CE1 PHE A   2      -3.236   3.242 128.431  0.00  0.00    +0.000 A 
ATOM     77  CZ  PHE A   2      -2.793   4.475 128.105  0.00  0.00    +0.000 A 
ATOM     78  CE2 PHE A   2      -2.561   5.209 129.182  0.00  0.00    +0.000 A 
ATOM     79  CD2 PHE A   2      -3.088   4.827 130.354  0.00  0.00    +0.000 A 
ENDBRANCH  73  74
ENDBRANCH  14  73
BRANCH  18  80
ATOM     80  C   UNK A   3      -6.058  -0.510 134.035  0.00  0.00    +0.000 C 
BRANCH  80  81
ATOM     81  O   UNK A   3      -7.123  -1.368 134.381  0.00  0.00    +0.000 OA
ATOM     82  H   UNK A   3      -7.585  -1.818 133.644  0.00  0.00    +0.000 HD
ENDBRANCH  80  81
ENDBRANCH  18  80
BRANCH  22  83
ATOM     83  C   UNK A   3      -4.021  -3.419 132.502  0.00  0.00    +0.000 C 
BRANCH  83  84
ATOM     84  C   UNK A   3      -4.854  -4.338 131.776  0.00  0.00    +0.000 C 
ATOM     85  N   UNK A   3      -5.686  -4.921 132.632  0.00  0.00    +0.000 N 
ATOM     86  O   UNK A   3      -4.909  -4.466 130.571  0.00  0.00    +0.000 OA
ATOM     87  H   UNK A   3      -5.723  -4.598 133.590  0.00  0.00    +0.000 HD
ATOM     88  H   UNK A   3      -6.360  -5.536 132.289  0.00  0.00    +0.000 HD
ENDBRANCH  83  84
ENDBRANCH  22  83
TORSDOF 19
ENDMDL
