MODEL 1
REMARK VINA RESULT:      -6.5      0.000      0.000
REMARK  Name = CHEMBL489386
REMARK  10 active torsions:
REMARK  status: ('A' for Active; 'I' for Inactive)
REMARK    1  A    between atoms: C_1  and  C_2
REMARK    2  A    between atoms: C_2  and  O_3
REMARK    3  A    between atoms: O_3  and  C_4
REMARK    4  A    between atoms: C_7  and  C_8
REMARK    5  A    between atoms: C_11  and  C_12
REMARK    6  A    between atoms: C_12  and  O_13
REMARK    7  A    between atoms: O_13  and  C_14
REMARK    8  A    between atoms: N_15  and  C_16
REMARK    9  A    between atoms: C_19  and  O_20
REMARK   10  A    between atoms: O_20  and  C_21
REMARK                            x       y       z     vdW  Elec       q    Type
REMARK                         _______ _______ _______ _____ _____    ______ ____
ROOT
ATOM      1  C   UNL     1      -7.836  -2.716 125.955  0.00  0.00    +0.000 A 
ATOM      2  N   UNL     1      -8.059  -3.824 125.267  0.00  0.00    +0.000 NA
ATOM      3  N   UNL     1      -8.527  -3.479 124.010  0.00  0.00    +0.000 NA
ATOM      4  C   UNL     1      -8.570  -2.159 123.920  0.00  0.00    +0.000 A 
ATOM      5  N   UNL     1      -8.172  -1.643 125.142  0.00  0.00    +0.000 N 
ENDROOT
BRANCH   1   9
ATOM      6  C   UNL     1      -6.483  -2.532 130.075  0.00  0.00    +0.000 A 
ATOM      7  C   UNL     1      -7.842  -2.728 129.767  0.00  0.00    +0.000 A 
ATOM      8  C   UNL     1      -8.303  -2.753 128.431  0.00  0.00    +0.000 A 
ATOM      9  C   UNL     1      -7.412  -2.599 127.365  0.00  0.00    +0.000 A 
ATOM     10  C   UNL     1      -6.055  -2.425 127.679  0.00  0.00    +0.000 A 
ATOM     11  C   UNL     1      -5.586  -2.426 129.005  0.00  0.00    +0.000 A 
ATOM     12 CL   UNL     1      -3.864  -2.438 129.164  0.00  0.00    +0.000 Cl
BRANCH   6  13
ATOM     13  O   UNL     1      -6.161  -2.577 131.414  0.00  0.00    +0.000 OA
BRANCH  13  15
ATOM     14  C   UNL     1      -5.385  -4.871 131.639  0.00  0.00    +0.000 C 
ATOM     15  C   UNL     1      -6.405  -3.828 132.077  0.00  0.00    +0.000 C 
ENDBRANCH  13  15
ENDBRANCH   6  13
ENDBRANCH   1   9
BRANCH   5  16
ATOM     16  C   UNL     1      -8.056  -0.291 125.494  0.00  0.00    +0.000 A 
ATOM     17  C   UNL     1      -6.917   0.415 125.142  0.00  0.00    +0.000 A 
ATOM     18  C   UNL     1      -6.915   1.785 125.366  0.00  0.00    +0.000 A 
ATOM     19  C   UNL     1      -8.036   2.383 125.944  0.00  0.00    +0.000 A 
ATOM     20  N   UNL     1      -9.130   1.687 126.319  0.00  0.00    +0.000 NA
ATOM     21  C   UNL     1      -9.127   0.361 126.084  0.00  0.00    +0.000 A 
BRANCH  19  22
ATOM     22  O   UNL     1      -8.163   3.723 126.175  0.00  0.00    +0.000 OA
ATOM     23  C   UNL     1      -7.158   4.548 125.610  0.00  0.00    +0.000 C 
ENDBRANCH  19  22
ENDBRANCH   5  16
BRANCH   4  24
ATOM     24  C   UNL     1      -8.887  -1.363 122.672  0.00  0.00    +0.000 C 
BRANCH  24  25
ATOM     25  O   UNL     1     -10.158  -0.752 122.836  0.00  0.00    +0.000 OA
ATOM     26  C   UNL     1     -10.243   0.631 122.558  0.00  0.00    +0.000 C 
ENDBRANCH  24  25
ENDBRANCH   4  24
TORSDOF 7
ENDMDL
MODEL 2
REMARK VINA RESULT:      -6.4      4.144      5.755
REMARK  Name = CHEMBL489386
REMARK  10 active torsions:
REMARK  status: ('A' for Active; 'I' for Inactive)
REMARK    1  A    between atoms: C_1  and  C_2
REMARK    2  A    between atoms: C_2  and  O_3
REMARK    3  A    between atoms: O_3  and  C_4
REMARK    4  A    between atoms: C_7  and  C_8
REMARK    5  A    between atoms: C_11  and  C_12
REMARK    6  A    between atoms: C_12  and  O_13
REMARK    7  A    between atoms: O_13  and  C_14
REMARK    8  A    between atoms: N_15  and  C_16
REMARK    9  A    between atoms: C_19  and  O_20
REMARK   10  A    between atoms: O_20  and  C_21
REMARK                            x       y       z     vdW  Elec       q    Type
REMARK                         _______ _______ _______ _____ _____    ______ ____
ROOT
ATOM      1  C   UNL     1      -7.451   1.031 127.137  0.00  0.00    +0.000 A 
ATOM      2  N   UNL     1      -7.589   1.015 128.453  0.00  0.00    +0.000 NA
ATOM      3  N   UNL     1      -7.795   2.311 128.894  0.00  0.00    +0.000 NA
ATOM      4  C   UNL     1      -7.806   3.120 127.845  0.00  0.00    +0.000 A 
ATOM      5  N   UNL     1      -7.558   2.350 126.721  0.00  0.00    +0.000 N 
ENDROOT
BRANCH   1   9
ATOM      6  C   UNL     1      -6.587  -2.428 124.661  0.00  0.00    +0.000 A 
ATOM      7  C   UNL     1      -5.553  -1.604 125.141  0.00  0.00    +0.000 A 
ATOM      8  C   UNL     1      -5.821  -0.454 125.917  0.00  0.00    +0.000 A 
ATOM      9  C   UNL     1      -7.133  -0.106 126.249  0.00  0.00    +0.000 A 
ATOM     10  C   UNL     1      -8.159  -0.944 125.784  0.00  0.00    +0.000 A 
ATOM     11  C   UNL     1      -7.897  -2.105 125.035  0.00  0.00    +0.000 A 
ATOM     12 CL   UNL     1      -9.272  -3.119 124.768  0.00  0.00    +0.000 Cl
BRANCH   6  13
ATOM     13  O   UNL     1      -6.186  -3.544 123.959  0.00  0.00    +0.000 OA
BRANCH  13  15
ATOM     14  C   UNL     1      -4.216  -4.887 123.478  0.00  0.00    +0.000 C 
ATOM     15  C   UNL     1      -4.854  -3.504 123.425  0.00  0.00    +0.000 C 
ENDBRANCH  13  15
ENDBRANCH   6  13
ENDBRANCH   1   9
BRANCH   5  16
ATOM     16  C   UNL     1      -7.492   2.789 125.391  0.00  0.00    +0.000 A 
ATOM     17  C   UNL     1      -6.262   3.095 124.831  0.00  0.00    +0.000 A 
ATOM     18  C   UNL     1      -6.226   3.368 123.470  0.00  0.00    +0.000 A 
ATOM     19  C   UNL     1      -7.413   3.338 122.737  0.00  0.00    +0.000 A 
ATOM     20  N   UNL     1      -8.615   3.075 123.293  0.00  0.00    +0.000 NA
ATOM     21  C   UNL     1      -8.636   2.798 124.610  0.00  0.00    +0.000 A 
BRANCH  19  22
ATOM     22  O   UNL     1      -7.495   3.550 121.391  0.00  0.00    +0.000 OA
ATOM     23  C   UNL     1      -6.260   3.623 120.698  0.00  0.00    +0.000 C 
ENDBRANCH  19  22
ENDBRANCH   5  16
BRANCH   4  24
ATOM     24  C   UNL     1      -8.142   4.595 127.865  0.00  0.00    +0.000 C 
BRANCH  24  25
ATOM     25  O   UNL     1      -7.941   5.087 129.182  0.00  0.00    +0.000 OA
ATOM     26  C   UNL     1      -9.069   5.624 129.842  0.00  0.00    +0.000 C 
ENDBRANCH  24  25
ENDBRANCH   4  24
TORSDOF 7
ENDMDL
MODEL 3
REMARK VINA RESULT:      -6.3      3.544      6.144
REMARK  Name = CHEMBL489386
REMARK  10 active torsions:
REMARK  status: ('A' for Active; 'I' for Inactive)
REMARK    1  A    between atoms: C_1  and  C_2
REMARK    2  A    between atoms: C_2  and  O_3
REMARK    3  A    between atoms: O_3  and  C_4
REMARK    4  A    between atoms: C_7  and  C_8
REMARK    5  A    between atoms: C_11  and  C_12
REMARK    6  A    between atoms: C_12  and  O_13
REMARK    7  A    between atoms: O_13  and  C_14
REMARK    8  A    between atoms: N_15  and  C_16
REMARK    9  A    between atoms: C_19  and  O_20
REMARK   10  A    between atoms: O_20  and  C_21
REMARK                            x       y       z     vdW  Elec       q    Type
REMARK                         _______ _______ _______ _____ _____    ______ ____
ROOT
ATOM      1  C   UNL     1      -6.007   4.112 124.059  0.00  0.00    +0.000 A 
ATOM      2  N   UNL     1      -5.177   4.994 123.526  0.00  0.00    +0.000 NA
ATOM      3  N   UNL     1      -5.127   4.787 122.158  0.00  0.00    +0.000 NA
ATOM      4  C   UNL     1      -5.944   3.792 121.848  0.00  0.00    +0.000 A 
ATOM      5  N   UNL     1      -6.491   3.319 123.029  0.00  0.00    +0.000 N 
ENDROOT
BRANCH   1   9
ATOM      6  C   UNL     1      -6.902   3.312 128.230  0.00  0.00    +0.000 A 
ATOM      7  C   UNL     1      -7.775   4.079 127.436  0.00  0.00    +0.000 A 
ATOM      8  C   UNL     1      -7.479   4.379 126.087  0.00  0.00    +0.000 A 
ATOM      9  C   UNL     1      -6.307   3.904 125.490  0.00  0.00    +0.000 A 
ATOM     10  C   UNL     1      -5.452   3.122 126.282  0.00  0.00    +0.000 A 
ATOM     11  C   UNL     1      -5.754   2.798 127.616  0.00  0.00    +0.000 A 
ATOM     12 CL   UNL     1      -4.695   1.635 128.335  0.00  0.00    +0.000 Cl
BRANCH   6  13
ATOM     13  O   UNL     1      -7.333   3.053 129.513  0.00  0.00    +0.000 OA
BRANCH  13  15
ATOM     14  C   UNL     1      -8.088   0.747 129.681  0.00  0.00    +0.000 C 
ATOM     15  C   UNL     1      -8.493   2.214 129.628  0.00  0.00    +0.000 C 
ENDBRANCH  13  15
ENDBRANCH   6  13
ENDBRANCH   1   9
BRANCH   5  16
ATOM     16  C   UNL     1      -7.419   2.277 123.175  0.00  0.00    +0.000 A 
ATOM     17  C   UNL     1      -8.769   2.530 122.993  0.00  0.00    +0.000 A 
ATOM     18  C   UNL     1      -9.631   1.442 122.987  0.00  0.00    +0.000 A 
ATOM     19  C   UNL     1      -9.114   0.161 123.178  0.00  0.00    +0.000 A 
ATOM     20  N   UNL     1      -7.802  -0.080 123.391  0.00  0.00    +0.000 NA
ATOM     21  C   UNL     1      -6.973   0.981 123.380  0.00  0.00    +0.000 A 
BRANCH  19  22
ATOM     22  O   UNL     1      -9.858  -0.984 123.153  0.00  0.00    +0.000 OA
ATOM     23  C   UNL     1      -9.127  -2.200 123.167  0.00  0.00    +0.000 C 
ENDBRANCH  19  22
ENDBRANCH   5  16
BRANCH   4  24
ATOM     24  C   UNL     1      -6.297   3.334 120.450  0.00  0.00    +0.000 C 
BRANCH  24  25
ATOM     25  O   UNL     1      -7.459   4.032 120.026  0.00  0.00    +0.000 OA
ATOM     26  C   UNL     1      -7.450   4.550 118.712  0.00  0.00    +0.000 C 
ENDBRANCH  24  25
ENDBRANCH   4  24
TORSDOF 7
ENDMDL
MODEL 4
REMARK VINA RESULT:      -6.3      6.340      8.959
REMARK  Name = CHEMBL489386
REMARK  10 active torsions:
REMARK  status: ('A' for Active; 'I' for Inactive)
REMARK    1  A    between atoms: C_1  and  C_2
REMARK    2  A    between atoms: C_2  and  O_3
REMARK    3  A    between atoms: O_3  and  C_4
REMARK    4  A    between atoms: C_7  and  C_8
REMARK    5  A    between atoms: C_11  and  C_12
REMARK    6  A    between atoms: C_12  and  O_13
REMARK    7  A    between atoms: O_13  and  C_14
REMARK    8  A    between atoms: N_15  and  C_16
REMARK    9  A    between atoms: C_19  and  O_20
REMARK   10  A    between atoms: O_20  and  C_21
REMARK                            x       y       z     vdW  Elec       q    Type
REMARK                         _______ _______ _______ _____ _____    ______ ____
ROOT
ATOM      1  C   UNL     1      -7.803   6.326 130.811  0.00  0.00    +0.000 A 
ATOM      2  N   UNL     1      -8.163   7.506 130.332  0.00  0.00    +0.000 NA
ATOM      3  N   UNL     1      -9.489   7.440 129.941  0.00  0.00    +0.000 NA
ATOM      4  C   UNL     1      -9.950   6.226 130.201  0.00  0.00    +0.000 A 
ATOM      5  N   UNL     1      -8.902   5.485 130.720  0.00  0.00    +0.000 N 
ENDROOT
BRANCH   1   9
ATOM      6  C   UNL     1      -3.907   4.916 132.104  0.00  0.00    +0.000 A 
ATOM      7  C   UNL     1      -4.811   5.487 133.019  0.00  0.00    +0.000 A 
ATOM      8  C   UNL     1      -6.068   5.984 132.607  0.00  0.00    +0.000 A 
ATOM      9  C   UNL     1      -6.461   5.908 131.268  0.00  0.00    +0.000 A 
ATOM     10  C   UNL     1      -5.563   5.318 130.364  0.00  0.00    +0.000 A 
ATOM     11  C   UNL     1      -4.323   4.797 130.773  0.00  0.00    +0.000 A 
ATOM     12 CL   UNL     1      -3.477   3.906 129.557  0.00  0.00    +0.000 Cl
BRANCH   6  13
ATOM     13  O   UNL     1      -2.738   4.426 132.645  0.00  0.00    +0.000 OA
BRANCH  13  15
ATOM     14  C   UNL     1      -1.112   6.110 131.985  0.00  0.00    +0.000 C 
ATOM     15  C   UNL     1      -1.815   5.409 133.140  0.00  0.00    +0.000 C 
ENDBRANCH  13  15
ENDBRANCH   6  13
ENDBRANCH   1   9
BRANCH   5  16
ATOM     16  C   UNL     1      -8.938   4.149 131.147  0.00  0.00    +0.000 A 
ATOM     17  C   UNL     1      -9.275   3.857 132.459  0.00  0.00    +0.000 A 
ATOM     18  C   UNL     1      -9.457   2.522 132.793  0.00  0.00    +0.000 A 
ATOM     19  C   UNL     1      -9.280   1.544 131.815  0.00  0.00    +0.000 A 
ATOM     20  N   UNL     1      -8.916   1.828 130.546  0.00  0.00    +0.000 NA
ATOM     21  C   UNL     1      -8.757   3.127 130.229  0.00  0.00    +0.000 A 
BRANCH  19  22
ATOM     22  O   UNL     1      -9.469   0.206 132.017  0.00  0.00    +0.000 OA
ATOM     23  C   UNL     1      -8.294  -0.588 132.055  0.00  0.00    +0.000 C 
ENDBRANCH  19  22
ENDBRANCH   5  16
BRANCH   4  24
ATOM     24  C   UNL     1     -11.386   5.771 130.059  0.00  0.00    +0.000 C 
BRANCH  24  25
ATOM     25  O   UNL     1     -11.844   6.116 128.760  0.00  0.00    +0.000 OA
ATOM     26  C   UNL     1     -13.044   6.858 128.681  0.00  0.00    +0.000 C 
ENDBRANCH  24  25
ENDBRANCH   4  24
TORSDOF 7
ENDMDL
MODEL 5
REMARK VINA RESULT:      -6.3      3.387      6.894
REMARK  Name = CHEMBL489386
REMARK  10 active torsions:
REMARK  status: ('A' for Active; 'I' for Inactive)
REMARK    1  A    between atoms: C_1  and  C_2
REMARK    2  A    between atoms: C_2  and  O_3
REMARK    3  A    between atoms: O_3  and  C_4
REMARK    4  A    between atoms: C_7  and  C_8
REMARK    5  A    between atoms: C_11  and  C_12
REMARK    6  A    between atoms: C_12  and  O_13
REMARK    7  A    between atoms: O_13  and  C_14
REMARK    8  A    between atoms: N_15  and  C_16
REMARK    9  A    between atoms: C_19  and  O_20
REMARK   10  A    between atoms: O_20  and  C_21
REMARK                            x       y       z     vdW  Elec       q    Type
REMARK                         _______ _______ _______ _____ _____    ______ ____
ROOT
ATOM      1  C   UNL     1      -7.941   0.560 127.552  0.00  0.00    +0.000 A 
ATOM      2  N   UNL     1      -8.558   1.729 127.484  0.00  0.00    +0.000 NA
ATOM      3  N   UNL     1      -8.868   2.143 128.768  0.00  0.00    +0.000 NA
ATOM      4  C   UNL     1      -8.421   1.238 129.626  0.00  0.00    +0.000 A 
ATOM      5  N   UNL     1      -7.860   0.207 128.891  0.00  0.00    +0.000 N 
ENDROOT
BRANCH   1   9
ATOM      6  C   UNL     1      -6.683  -2.108 124.367  0.00  0.00    +0.000 A 
ATOM      7  C   UNL     1      -5.781  -1.196 124.946  0.00  0.00    +0.000 A 
ATOM      8  C   UNL     1      -6.186  -0.295 125.958  0.00  0.00    +0.000 A 
ATOM      9  C   UNL     1      -7.502  -0.295 126.430  0.00  0.00    +0.000 A 
ATOM     10  C   UNL     1      -8.390  -1.222 125.863  0.00  0.00    +0.000 A 
ATOM     11  C   UNL     1      -7.987  -2.139 124.875  0.00  0.00    +0.000 A 
ATOM     12 CL   UNL     1      -9.163  -3.345 124.484  0.00  0.00    +0.000 Cl
BRANCH   6  13
ATOM     13  O   UNL     1      -6.148  -2.961 123.427  0.00  0.00    +0.000 OA
BRANCH  13  15
ATOM     14  C   UNL     1      -4.462  -4.706 123.604  0.00  0.00    +0.000 C 
ATOM     15  C   UNL     1      -4.737  -3.210 123.535  0.00  0.00    +0.000 C 
ENDBRANCH  13  15
ENDBRANCH   6  13
ENDBRANCH   1   9
BRANCH   5  16
ATOM     16  C   UNL     1      -7.254  -0.956 129.387  0.00  0.00    +0.000 A 
ATOM     17  C   UNL     1      -7.989  -2.126 129.483  0.00  0.00    +0.000 A 
ATOM     18  C   UNL     1      -7.309  -3.287 129.824  0.00  0.00    +0.000 A 
ATOM     19  C   UNL     1      -5.937  -3.226 130.070  0.00  0.00    +0.000 A 
ATOM     20  N   UNL     1      -5.229  -2.078 130.011  0.00  0.00    +0.000 NA
ATOM     21  C   UNL     1      -5.896  -0.960 129.665  0.00  0.00    +0.000 A 
BRANCH  19  22
ATOM     22  O   UNL     1      -5.158  -4.305 130.374  0.00  0.00    +0.000 OA
ATOM     23  C   UNL     1      -4.664  -4.360 131.702  0.00  0.00    +0.000 C 
ENDBRANCH  19  22
ENDBRANCH   5  16
BRANCH   4  24
ATOM     24  C   UNL     1      -8.425   1.364 131.134  0.00  0.00    +0.000 C 
BRANCH  24  25
ATOM     25  O   UNL     1      -9.568   2.112 131.522  0.00  0.00    +0.000 OA
ATOM     26  C   UNL     1      -9.489   2.811 132.747  0.00  0.00    +0.000 C 
ENDBRANCH  24  25
ENDBRANCH   4  24
TORSDOF 7
ENDMDL
MODEL 6
REMARK VINA RESULT:      -6.1      3.554      5.597
REMARK  Name = CHEMBL489386
REMARK  10 active torsions:
REMARK  status: ('A' for Active; 'I' for Inactive)
REMARK    1  A    between atoms: C_1  and  C_2
REMARK    2  A    between atoms: C_2  and  O_3
REMARK    3  A    between atoms: O_3  and  C_4
REMARK    4  A    between atoms: C_7  and  C_8
REMARK    5  A    between atoms: C_11  and  C_12
REMARK    6  A    between atoms: C_12  and  O_13
REMARK    7  A    between atoms: O_13  and  C_14
REMARK    8  A    between atoms: N_15  and  C_16
REMARK    9  A    between atoms: C_19  and  O_20
REMARK   10  A    between atoms: O_20  and  C_21
REMARK                            x       y       z     vdW  Elec       q    Type
REMARK                         _______ _______ _______ _____ _____    ______ ____
ROOT
ATOM      1  C   UNL     1      -5.710  -0.042 128.088  0.00  0.00    +0.000 A 
ATOM      2  N   UNL     1      -4.976  -0.220 129.174  0.00  0.00    +0.000 NA
ATOM      3  N   UNL     1      -4.530   1.014 129.616  0.00  0.00    +0.000 NA
ATOM      4  C   UNL     1      -5.009   1.952 128.812  0.00  0.00    +0.000 A 
ATOM      5  N   UNL     1      -5.732   1.318 127.816  0.00  0.00    +0.000 N 
ENDROOT
BRANCH   1   9
ATOM      6  C   UNL     1      -7.486  -2.970 125.420  0.00  0.00    +0.000 A 
ATOM      7  C   UNL     1      -8.227  -2.408 126.476  0.00  0.00    +0.000 A 
ATOM      8  C   UNL     1      -7.652  -1.482 127.375  0.00  0.00    +0.000 A 
ATOM      9  C   UNL     1      -6.321  -1.079 127.231  0.00  0.00    +0.000 A 
ATOM     10  C   UNL     1      -5.594  -1.627 126.163  0.00  0.00    +0.000 A 
ATOM     11  C   UNL     1      -6.168  -2.528 125.249  0.00  0.00    +0.000 A 
ATOM     12 CL   UNL     1      -5.181  -2.896 123.878  0.00  0.00    +0.000 Cl
BRANCH   6  13
ATOM     13  O   UNL     1      -8.181  -3.821 124.589  0.00  0.00    +0.000 OA
BRANCH  13  15
ATOM     14  C   UNL     1      -8.847  -2.252 122.855  0.00  0.00    +0.000 C 
ATOM     15  C   UNL     1      -9.309  -3.252 123.906  0.00  0.00    +0.000 C 
ENDBRANCH  13  15
ENDBRANCH   6  13
ENDBRANCH   1   9
BRANCH   5  16
ATOM     16  C   UNL     1      -6.425   1.922 126.756  0.00  0.00    +0.000 A 
ATOM     17  C   UNL     1      -5.808   2.058 125.523  0.00  0.00    +0.000 A 
ATOM     18  C   UNL     1      -6.583   2.511 124.464  0.00  0.00    +0.000 A 
ATOM     19  C   UNL     1      -7.925   2.822 124.685  0.00  0.00    +0.000 A 
ATOM     20  N   UNL     1      -8.514   2.723 125.896  0.00  0.00    +0.000 NA
ATOM     21  C   UNL     1      -7.757   2.269 126.913  0.00  0.00    +0.000 A 
BRANCH  19  22
ATOM     22  O   UNL     1      -8.792   3.238 123.715  0.00  0.00    +0.000 OA
ATOM     23  C   UNL     1      -9.018   2.326 122.652  0.00  0.00    +0.000 C 
ENDBRANCH  19  22
ENDBRANCH   5  16
BRANCH   4  24
ATOM     24  C   UNL     1      -4.882   3.446 129.016  0.00  0.00    +0.000 C 
BRANCH  24  25
ATOM     25  O   UNL     1      -4.126   3.986 127.941  0.00  0.00    +0.000 OA
ATOM     26  C   UNL     1      -2.761   3.627 127.877  0.00  0.00    +0.000 C 
ENDBRANCH  24  25
ENDBRANCH   4  24
TORSDOF 7
ENDMDL
MODEL 7
REMARK VINA RESULT:      -6.1      5.709      7.240
REMARK  Name = CHEMBL489386
REMARK  10 active torsions:
REMARK  status: ('A' for Active; 'I' for Inactive)
REMARK    1  A    between atoms: C_1  and  C_2
REMARK    2  A    between atoms: C_2  and  O_3
REMARK    3  A    between atoms: O_3  and  C_4
REMARK    4  A    between atoms: C_7  and  C_8
REMARK    5  A    between atoms: C_11  and  C_12
REMARK    6  A    between atoms: C_12  and  O_13
REMARK    7  A    between atoms: O_13  and  C_14
REMARK    8  A    between atoms: N_15  and  C_16
REMARK    9  A    between atoms: C_19  and  O_20
REMARK   10  A    between atoms: O_20  and  C_21
REMARK                            x       y       z     vdW  Elec       q    Type
REMARK                         _______ _______ _______ _____ _____    ______ ____
ROOT
ATOM      1  C   UNL     1      -9.897   3.838 130.444  0.00  0.00    +0.000 A 
ATOM      2  N   UNL     1     -11.197   3.828 130.196  0.00  0.00    +0.000 NA
ATOM      3  N   UNL     1     -11.584   5.097 129.801  0.00  0.00    +0.000 NA
ATOM      4  C   UNL     1     -10.517   5.881 129.784  0.00  0.00    +0.000 A 
ATOM      5  N   UNL     1      -9.439   5.128 130.217  0.00  0.00    +0.000 N 
ENDROOT
BRANCH   1   9
ATOM      6  C   UNL     1      -7.603   0.469 131.935  0.00  0.00    +0.000 A 
ATOM      7  C   UNL     1      -8.068   1.470 132.807  0.00  0.00    +0.000 A 
ATOM      8  C   UNL     1      -8.785   2.592 132.331  0.00  0.00    +0.000 A 
ATOM      9  C   UNL     1      -9.069   2.734 130.970  0.00  0.00    +0.000 A 
ATOM     10  C   UNL     1      -8.619   1.721 130.109  0.00  0.00    +0.000 A 
ATOM     11  C   UNL     1      -7.930   0.589 130.579  0.00  0.00    +0.000 A 
ATOM     12 CL   UNL     1      -7.677  -0.647 129.396  0.00  0.00    +0.000 Cl
BRANCH   6  13
ATOM     13  O   UNL     1      -6.961  -0.593 132.534  0.00  0.00    +0.000 OA
BRANCH  13  15
ATOM     14  C   UNL     1      -7.312  -2.979 132.218  0.00  0.00    +0.000 C 
ATOM     15  C   UNL     1      -7.794  -1.705 132.899  0.00  0.00    +0.000 C 
ENDBRANCH  13  15
ENDBRANCH   6  13
ENDBRANCH   1   9
BRANCH   5  16
ATOM     16  C   UNL     1      -8.107   5.549 130.345  0.00  0.00    +0.000 A 
ATOM     17  C   UNL     1      -7.738   6.339 131.422  0.00  0.00    +0.000 A 
ATOM     18  C   UNL     1      -6.385   6.596 131.596  0.00  0.00    +0.000 A 
ATOM     19  C   UNL     1      -5.468   6.071 130.684  0.00  0.00    +0.000 A 
ATOM     20  N   UNL     1      -5.834   5.332 129.615  0.00  0.00    +0.000 NA
ATOM     21  C   UNL     1      -7.147   5.076 129.464  0.00  0.00    +0.000 A 
BRANCH  19  22
ATOM     22  O   UNL     1      -4.114   6.224 130.775  0.00  0.00    +0.000 OA
ATOM     23  C   UNL     1      -3.656   7.101 131.791  0.00  0.00    +0.000 C 
ENDBRANCH  19  22
ENDBRANCH   5  16
BRANCH   4  24
ATOM     24  C   UNL     1     -10.469   7.305 129.275  0.00  0.00    +0.000 C 
BRANCH  24  25
ATOM     25  O   UNL     1     -10.086   7.284 127.907  0.00  0.00    +0.000 OA
ATOM     26  C   UNL     1     -10.928   7.964 126.998  0.00  0.00    +0.000 C 
ENDBRANCH  24  25
ENDBRANCH   4  24
TORSDOF 7
ENDMDL
MODEL 8
REMARK VINA RESULT:      -6.1      6.077      7.992
REMARK  Name = CHEMBL489386
REMARK  10 active torsions:
REMARK  status: ('A' for Active; 'I' for Inactive)
REMARK    1  A    between atoms: C_1  and  C_2
REMARK    2  A    between atoms: C_2  and  O_3
REMARK    3  A    between atoms: O_3  and  C_4
REMARK    4  A    between atoms: C_7  and  C_8
REMARK    5  A    between atoms: C_11  and  C_12
REMARK    6  A    between atoms: C_12  and  O_13
REMARK    7  A    between atoms: O_13  and  C_14
REMARK    8  A    between atoms: N_15  and  C_16
REMARK    9  A    between atoms: C_19  and  O_20
REMARK   10  A    between atoms: O_20  and  C_21
REMARK                            x       y       z     vdW  Elec       q    Type
REMARK                         _______ _______ _______ _____ _____    ______ ____
ROOT
ATOM      1  C   UNL     1      -9.780   3.072 130.725  0.00  0.00    +0.000 A 
ATOM      2  N   UNL     1     -10.786   3.221 129.879  0.00  0.00    +0.000 NA
ATOM      3  N   UNL     1     -11.364   4.461 130.091  0.00  0.00    +0.000 NA
ATOM      4  C   UNL     1     -10.697   5.082 131.052  0.00  0.00    +0.000 A 
ATOM      5  N   UNL     1      -9.710   4.221 131.499  0.00  0.00    +0.000 N 
ENDROOT
BRANCH   1   9
ATOM      6  C   UNL     1      -7.327  -0.489 131.107  0.00  0.00    +0.000 A 
ATOM      7  C   UNL     1      -8.472  -0.309 131.905  0.00  0.00    +0.000 A 
ATOM      8  C   UNL     1      -9.259   0.861 131.818  0.00  0.00    +0.000 A 
ATOM      9  C   UNL     1      -8.931   1.878 130.917  0.00  0.00    +0.000 A 
ATOM     10  C   UNL     1      -7.800   1.682 130.109  0.00  0.00    +0.000 A 
ATOM     11  C   UNL     1      -7.028   0.508 130.172  0.00  0.00    +0.000 A 
ATOM     12 CL   UNL     1      -5.829   0.364 128.935  0.00  0.00    +0.000 Cl
BRANCH   6  13
ATOM     13  O   UNL     1      -6.679  -1.696 131.257  0.00  0.00    +0.000 OA
BRANCH  13  15
ATOM     14  C   UNL     1      -7.717  -3.152 129.609  0.00  0.00    +0.000 C 
ATOM     15  C   UNL     1      -7.488  -2.870 131.088  0.00  0.00    +0.000 C 
ENDBRANCH  13  15
ENDBRANCH   6  13
ENDBRANCH   1   9
BRANCH   5  16
ATOM     16  C   UNL     1      -8.760   4.467 132.501  0.00  0.00    +0.000 A 
ATOM     17  C   UNL     1      -9.013   4.063 133.802  0.00  0.00    +0.000 A 
ATOM     18  C   UNL     1      -7.982   4.181 134.724  0.00  0.00    +0.000 A 
ATOM     19  C   UNL     1      -6.757   4.707 134.313  0.00  0.00    +0.000 A 
ATOM     20  N   UNL     1      -6.524   5.133 133.053  0.00  0.00    +0.000 NA
ATOM     21  C   UNL     1      -7.526   5.002 132.164  0.00  0.00    +0.000 A 
BRANCH  19  22
ATOM     22  O   UNL     1      -5.662   4.834 135.119  0.00  0.00    +0.000 OA
ATOM     23  C   UNL     1      -5.923   5.137 136.479  0.00  0.00    +0.000 C 
ENDBRANCH  19  22
ENDBRANCH   5  16
BRANCH   4  24
ATOM     24  C   UNL     1     -10.907   6.513 131.497  0.00  0.00    +0.000 C 
BRANCH  24  25
ATOM     25  O   UNL     1     -12.260   6.668 131.899  0.00  0.00    +0.000 OA
ATOM     26  C   UNL     1     -13.029   7.623 131.197  0.00  0.00    +0.000 C 
ENDBRANCH  24  25
ENDBRANCH   4  24
TORSDOF 7
ENDMDL
MODEL 9
REMARK VINA RESULT:      -6.1      3.287      7.883
REMARK  Name = CHEMBL489386
REMARK  10 active torsions:
REMARK  status: ('A' for Active; 'I' for Inactive)
REMARK    1  A    between atoms: C_1  and  C_2
REMARK    2  A    between atoms: C_2  and  O_3
REMARK    3  A    between atoms: O_3  and  C_4
REMARK    4  A    between atoms: C_7  and  C_8
REMARK    5  A    between atoms: C_11  and  C_12
REMARK    6  A    between atoms: C_12  and  O_13
REMARK    7  A    between atoms: O_13  and  C_14
REMARK    8  A    between atoms: N_15  and  C_16
REMARK    9  A    between atoms: C_19  and  O_20
REMARK   10  A    between atoms: O_20  and  C_21
REMARK                            x       y       z     vdW  Elec       q    Type
REMARK                         _______ _______ _______ _____ _____    ______ ____
ROOT
ATOM      1  C   UNL     1      -7.985   2.265 126.576  0.00  0.00    +0.000 A 
ATOM      2  N   UNL     1      -8.293   3.131 127.528  0.00  0.00    +0.000 NA
ATOM      3  N   UNL     1      -8.381   2.455 128.733  0.00  0.00    +0.000 NA
ATOM      4  C   UNL     1      -8.105   1.176 128.524  0.00  0.00    +0.000 A 
ATOM      5  N   UNL     1      -7.883   1.013 127.167  0.00  0.00    +0.000 N 
ENDROOT
BRANCH   1   9
ATOM      6  C   UNL     1      -7.630   3.204 122.353  0.00  0.00    +0.000 A 
ATOM      7  C   UNL     1      -8.800   2.616 122.869  0.00  0.00    +0.000 A 
ATOM      8  C   UNL     1      -8.916   2.271 124.234  0.00  0.00    +0.000 A 
ATOM      9  C   UNL     1      -7.869   2.520 125.126  0.00  0.00    +0.000 A 
ATOM     10  C   UNL     1      -6.713   3.125 124.609  0.00  0.00    +0.000 A 
ATOM     11  C   UNL     1      -6.601   3.496 123.257  0.00  0.00    +0.000 A 
ATOM     12 CL   UNL     1      -5.202   4.438 122.878  0.00  0.00    +0.000 Cl
BRANCH   6  13
ATOM     13  O   UNL     1      -7.666   3.535 121.016  0.00  0.00    +0.000 OA
BRANCH  13  15
ATOM     14  C   UNL     1      -8.850   4.278 119.026  0.00  0.00    +0.000 C 
ATOM     15  C   UNL     1      -8.964   3.838 120.479  0.00  0.00    +0.000 C 
ENDBRANCH  13  15
ENDBRANCH   6  13
ENDBRANCH   1   9
BRANCH   5  16
ATOM     16  C   UNL     1      -7.548  -0.173 126.499  0.00  0.00    +0.000 A 
ATOM     17  C   UNL     1      -8.552  -1.013 126.045  0.00  0.00    +0.000 A 
ATOM     18  C   UNL     1      -8.181  -2.089 125.251  0.00  0.00    +0.000 A 
ATOM     19  C   UNL     1      -6.830  -2.288 124.960  0.00  0.00    +0.000 A 
ATOM     20  N   UNL     1      -5.850  -1.489 125.433  0.00  0.00    +0.000 NA
ATOM     21  C   UNL     1      -6.223  -0.440 126.191  0.00  0.00    +0.000 A 
BRANCH  19  22
ATOM     22  O   UNL     1      -6.351  -3.286 124.161  0.00  0.00    +0.000 OA
ATOM     23  C   UNL     1      -5.124  -3.018 123.503  0.00  0.00    +0.000 C 
ENDBRANCH  19  22
ENDBRANCH   5  16
BRANCH   4  24
ATOM     24  C   UNL     1      -7.951   0.114 129.591  0.00  0.00    +0.000 C 
BRANCH  24  25
ATOM     25  O   UNL     1      -6.575   0.008 129.928  0.00  0.00    +0.000 OA
ATOM     26  C   UNL     1      -5.981  -1.267 129.795  0.00  0.00    +0.000 C 
ENDBRANCH  24  25
ENDBRANCH   4  24
TORSDOF 7
ENDMDL
