MODEL 1
REMARK VINA RESULT:      -8.2      0.000      0.000
REMARK  Name = CHEMBL592494
REMARK  7 active torsions:
REMARK  status: ('A' for Active; 'I' for Inactive)
REMARK    1  A    between atoms: C_1  and  O_2
REMARK    2  A    between atoms: O_2  and  C_3
REMARK    3  A    between atoms: C_6  and  N_7
REMARK    4  A    between atoms: C_8  and  C_9
REMARK    5  A    between atoms: C_16  and  O_17
REMARK    6  A    between atoms: O_17  and  C_18
REMARK    7  A    between atoms: C_24  and  C_25
REMARK                            x       y       z     vdW  Elec       q    Type
REMARK                         _______ _______ _______ _____ _____    ______ ____
ROOT
ATOM      1  N   UNL     1      -5.265   3.575 127.924  0.00  0.00    +0.000 N 
ATOM      2  C   UNL     1      -3.940   3.469 128.352  0.00  0.00    +0.000 A 
ATOM      3  C   UNL     1      -2.715   3.145 127.569  0.00  0.00    +0.000 C 
ATOM      4  N   UNL     1      -3.879   3.829 129.623  0.00  0.00    +0.000 NA
ATOM      5  N   UNL     1      -5.129   4.169 130.046  0.00  0.00    +0.000 NA
ATOM      6  C   UNL     1      -5.990   3.946 129.061  0.00  0.00    +0.000 A 
ATOM      7  N   UNL     1      -7.335   4.102 129.120  0.00  0.00    +0.000 N 
ATOM      8  C   UNL     1      -7.898   5.309 129.680  0.00  0.00    +0.000 C 
ATOM      9  C   UNL     1      -8.708   4.981 130.943  0.00  0.00    +0.000 C 
ATOM     10  C   UNL     1      -9.897   4.125 130.575  0.00  0.00    +0.000 C 
ATOM     11  C   UNL     1      -9.267   2.831 129.991  0.00  0.00    +0.000 C 
ATOM     12  C   UNL     1      -8.331   3.086 128.785  0.00  0.00    +0.000 C 
ENDROOT
BRANCH   1  16
ATOM     13  C   UNL     1      -6.642   3.230 123.992  0.00  0.00    +0.000 A 
ATOM     14  C   UNL     1      -6.455   2.066 124.724  0.00  0.00    +0.000 A 
ATOM     15  C   UNL     1      -6.015   2.166 126.051  0.00  0.00    +0.000 A 
ATOM     16  C   UNL     1      -5.796   3.427 126.614  0.00  0.00    +0.000 A 
ATOM     17  C   UNL     1      -5.972   4.532 125.801  0.00  0.00    +0.000 A 
ATOM     18  N   UNL     1      -6.381   4.455 124.504  0.00  0.00    +0.000 NA
BRANCH  13  20
ATOM     19  C   UNL     1      -8.382   3.000 122.416  0.00  0.00    +0.000 C 
ATOM     20  O   UNL     1      -6.997   3.229 122.667  0.00  0.00    +0.000 OA
ENDBRANCH  13  20
ENDBRANCH   1  16
BRANCH  10  21
ATOM     21  O   UNL     1     -10.788   4.798 129.641  0.00  0.00    +0.000 OA
BRANCH  21  22
ATOM     22  C   UNL     1     -11.199   6.110 129.868  0.00  0.00    +0.000 A 
ATOM     23  C   UNL     1     -11.964   6.302 131.048  0.00  0.00    +0.000 A 
ATOM     24  C   UNL     1     -12.660   7.505 131.288  0.00  0.00    +0.000 A 
ATOM     25  C   UNL     1     -12.622   8.516 130.349  0.00  0.00    +0.000 A 
ATOM     26  F   UNL     1     -13.323   9.643 130.514  0.00  0.00    +0.000 F 
ATOM     27  C   UNL     1     -11.878   8.365 129.203  0.00  0.00    +0.000 A 
ATOM     28  C   UNL     1     -11.165   7.183 128.928  0.00  0.00    +0.000 A 
ATOM     29  C   UNL     1     -10.527   7.279 127.570  0.00  0.00    +0.000 C 
ENDBRANCH  21  22
ENDBRANCH  10  21
TORSDOF 4
ENDMDL
MODEL 2
REMARK VINA RESULT:      -8.0      3.504      5.326
REMARK  Name = CHEMBL592494
REMARK  7 active torsions:
REMARK  status: ('A' for Active; 'I' for Inactive)
REMARK    1  A    between atoms: C_1  and  O_2
REMARK    2  A    between atoms: O_2  and  C_3
REMARK    3  A    between atoms: C_6  and  N_7
REMARK    4  A    between atoms: C_8  and  C_9
REMARK    5  A    between atoms: C_16  and  O_17
REMARK    6  A    between atoms: O_17  and  C_18
REMARK    7  A    between atoms: C_24  and  C_25
REMARK                            x       y       z     vdW  Elec       q    Type
REMARK                         _______ _______ _______ _____ _____    ______ ____
ROOT
ATOM      1  N   UNL     1      -6.764   2.834 123.360  0.00  0.00    +0.000 N 
ATOM      2  C   UNL     1      -6.002   3.529 122.418  0.00  0.00    +0.000 A 
ATOM      3  C   UNL     1      -5.849   3.282 120.957  0.00  0.00    +0.000 C 
ATOM      4  N   UNL     1      -5.473   4.590 123.004  0.00  0.00    +0.000 NA
ATOM      5  N   UNL     1      -5.864   4.614 124.309  0.00  0.00    +0.000 NA
ATOM      6  C   UNL     1      -6.576   3.523 124.563  0.00  0.00    +0.000 A 
ATOM      7  N   UNL     1      -7.084   3.159 125.765  0.00  0.00    +0.000 N 
ATOM      8  C   UNL     1      -7.803   4.122 126.567  0.00  0.00    +0.000 C 
ATOM      9  C   UNL     1      -7.058   4.377 127.886  0.00  0.00    +0.000 C 
ATOM     10  C   UNL     1      -7.040   3.111 128.711  0.00  0.00    +0.000 C 
ATOM     11  C   UNL     1      -6.252   2.098 127.836  0.00  0.00    +0.000 C 
ATOM     12  C   UNL     1      -6.869   1.877 126.435  0.00  0.00    +0.000 C 
ENDROOT
BRANCH   1  16
ATOM     13  C   UNL     1      -9.243  -0.512 123.006  0.00  0.00    +0.000 A 
ATOM     14  C   UNL     1      -9.820   0.744 122.887  0.00  0.00    +0.000 A 
ATOM     15  C   UNL     1      -8.998   1.876 122.980  0.00  0.00    +0.000 A 
ATOM     16  C   UNL     1      -7.621   1.718 123.169  0.00  0.00    +0.000 A 
ATOM     17  C   UNL     1      -7.138   0.430 123.315  0.00  0.00    +0.000 A 
ATOM     18  N   UNL     1      -7.922  -0.681 123.245  0.00  0.00    +0.000 NA
BRANCH  13  20
ATOM     19  C   UNL     1      -9.254  -2.841 123.385  0.00  0.00    +0.000 C 
ATOM     20  O   UNL     1      -9.976  -1.672 123.003  0.00  0.00    +0.000 OA
ENDBRANCH  13  20
ENDBRANCH   1  16
BRANCH  10  21
ATOM     21  O   UNL     1      -8.382   2.656 129.043  0.00  0.00    +0.000 OA
BRANCH  21  22
ATOM     22  C   UNL     1      -8.877   2.781 130.339  0.00  0.00    +0.000 A 
ATOM     23  C   UNL     1      -9.107   4.116 130.765  0.00  0.00    +0.000 A 
ATOM     24  C   UNL     1      -9.365   4.424 132.117  0.00  0.00    +0.000 A 
ATOM     25  C   UNL     1      -9.372   3.415 133.059  0.00  0.00    +0.000 A 
ATOM     26  F   UNL     1      -9.547   3.680 134.359  0.00  0.00    +0.000 F 
ATOM     27  C   UNL     1      -9.167   2.112 132.675  0.00  0.00    +0.000 A 
ATOM     28  C   UNL     1      -8.912   1.761 131.335  0.00  0.00    +0.000 A 
ATOM     29  C   UNL     1      -8.640   0.285 131.240  0.00  0.00    +0.000 C 
ENDBRANCH  21  22
ENDBRANCH  10  21
TORSDOF 4
ENDMDL
MODEL 3
REMARK VINA RESULT:      -8.0      4.655      8.497
REMARK  Name = CHEMBL592494
REMARK  7 active torsions:
REMARK  status: ('A' for Active; 'I' for Inactive)
REMARK    1  A    between atoms: C_1  and  O_2
REMARK    2  A    between atoms: O_2  and  C_3
REMARK    3  A    between atoms: C_6  and  N_7
REMARK    4  A    between atoms: C_8  and  C_9
REMARK    5  A    between atoms: C_16  and  O_17
REMARK    6  A    between atoms: O_17  and  C_18
REMARK    7  A    between atoms: C_24  and  C_25
REMARK                            x       y       z     vdW  Elec       q    Type
REMARK                         _______ _______ _______ _____ _____    ______ ____
ROOT
ATOM      1  N   UNL     1      -7.430   3.188 129.985  0.00  0.00    +0.000 N 
ATOM      2  C   UNL     1      -7.374   4.496 130.472  0.00  0.00    +0.000 A 
ATOM      3  C   UNL     1      -7.598   5.002 131.854  0.00  0.00    +0.000 C 
ATOM      4  N   UNL     1      -6.953   5.289 129.500  0.00  0.00    +0.000 NA
ATOM      5  N   UNL     1      -6.732   4.539 128.383  0.00  0.00    +0.000 NA
ATOM      6  C   UNL     1      -7.089   3.285 128.632  0.00  0.00    +0.000 A 
ATOM      7  N   UNL     1      -7.077   2.258 127.748  0.00  0.00    +0.000 N 
ATOM      8  C   UNL     1      -5.914   2.030 126.922  0.00  0.00    +0.000 C 
ATOM      9  C   UNL     1      -6.272   2.216 125.439  0.00  0.00    +0.000 C 
ATOM     10  C   UNL     1      -7.267   1.159 125.021  0.00  0.00    +0.000 C 
ATOM     11  C   UNL     1      -8.510   1.433 125.911  0.00  0.00    +0.000 C 
ATOM     12  C   UNL     1      -8.208   1.389 127.428  0.00  0.00    +0.000 C 
ENDROOT
BRANCH   1  16
ATOM     13  C   UNL     1      -8.090  -0.276 132.229  0.00  0.00    +0.000 A 
ATOM     14  C   UNL     1      -9.193   0.465 131.831  0.00  0.00    +0.000 A 
ATOM     15  C   UNL     1      -8.990   1.617 131.058  0.00  0.00    +0.000 A 
ATOM     16  C   UNL     1      -7.692   1.983 130.689  0.00  0.00    +0.000 A 
ATOM     17  C   UNL     1      -6.648   1.207 131.162  0.00  0.00    +0.000 A 
ATOM     18  N   UNL     1      -6.824   0.095 131.928  0.00  0.00    +0.000 NA
BRANCH  13  20
ATOM     19  C   UNL     1      -7.312  -2.450 132.714  0.00  0.00    +0.000 C 
ATOM     20  O   UNL     1      -8.185  -1.373 133.048  0.00  0.00    +0.000 OA
ENDBRANCH  13  20
ENDBRANCH   1  16
BRANCH  10  21
ATOM     21  O   UNL     1      -6.735  -0.186 125.181  0.00  0.00    +0.000 OA
BRANCH  21  22
ATOM     22  C   UNL     1      -7.458  -1.295 124.747  0.00  0.00    +0.000 A 
ATOM     23  C   UNL     1      -7.708  -1.338 123.350  0.00  0.00    +0.000 A 
ATOM     24  C   UNL     1      -8.628  -2.249 122.793  0.00  0.00    +0.000 A 
ATOM     25  C   UNL     1      -9.325  -3.108 123.619  0.00  0.00    +0.000 A 
ATOM     26  F   UNL     1     -10.254  -3.939 123.131  0.00  0.00    +0.000 F 
ATOM     27  C   UNL     1      -9.095  -3.100 124.973  0.00  0.00    +0.000 A 
ATOM     28  C   UNL     1      -8.181  -2.210 125.569  0.00  0.00    +0.000 A 
ATOM     29  C   UNL     1      -8.212  -2.374 127.063  0.00  0.00    +0.000 C 
ENDBRANCH  21  22
ENDBRANCH  10  21
TORSDOF 4
ENDMDL
MODEL 4
REMARK VINA RESULT:      -7.9      4.850      5.569
REMARK  Name = CHEMBL592494
REMARK  7 active torsions:
REMARK  status: ('A' for Active; 'I' for Inactive)
REMARK    1  A    between atoms: C_1  and  O_2
REMARK    2  A    between atoms: O_2  and  C_3
REMARK    3  A    between atoms: C_6  and  N_7
REMARK    4  A    between atoms: C_8  and  C_9
REMARK    5  A    between atoms: C_16  and  O_17
REMARK    6  A    between atoms: O_17  and  C_18
REMARK    7  A    between atoms: C_24  and  C_25
REMARK                            x       y       z     vdW  Elec       q    Type
REMARK                         _______ _______ _______ _____ _____    ______ ____
ROOT
ATOM      1  N   UNL     1      -6.583  -2.546 130.663  0.00  0.00    +0.000 N 
ATOM      2  C   UNL     1      -5.912  -3.573 131.332  0.00  0.00    +0.000 A 
ATOM      3  C   UNL     1      -5.545  -4.933 130.851  0.00  0.00    +0.000 C 
ATOM      4  N   UNL     1      -5.510  -3.117 132.506  0.00  0.00    +0.000 NA
ATOM      5  N   UNL     1      -5.898  -1.816 132.632  0.00  0.00    +0.000 NA
ATOM      6  C   UNL     1      -6.615  -1.478 131.567  0.00  0.00    +0.000 A 
ATOM      7  N   UNL     1      -7.228  -0.289 131.358  0.00  0.00    +0.000 N 
ATOM      8  C   UNL     1      -6.508   0.944 131.579  0.00  0.00    +0.000 C 
ATOM      9  C   UNL     1      -7.161   1.744 132.717  0.00  0.00    +0.000 C 
ATOM     10  C   UNL     1      -8.551   2.167 132.306  0.00  0.00    +0.000 C 
ATOM     11  C   UNL     1      -9.308   0.828 132.088  0.00  0.00    +0.000 C 
ATOM     12  C   UNL     1      -8.643  -0.097 131.042  0.00  0.00    +0.000 C 
ENDROOT
BRANCH   1  16
ATOM     13  C   UNL     1      -7.842  -2.573 126.678  0.00  0.00    +0.000 A 
ATOM     14  C   UNL     1      -8.632  -3.220 127.617  0.00  0.00    +0.000 A 
ATOM     15  C   UNL     1      -8.236  -3.200 128.962  0.00  0.00    +0.000 A 
ATOM     16  C   UNL     1      -7.072  -2.517 129.330  0.00  0.00    +0.000 A 
ATOM     17  C   UNL     1      -6.326  -1.932 128.323  0.00  0.00    +0.000 A 
ATOM     18  N   UNL     1      -6.685  -1.955 127.009  0.00  0.00    +0.000 NA
BRANCH  13  20
ATOM     19  C   UNL     1      -8.056  -3.896 124.736  0.00  0.00    +0.000 C 
ATOM     20  O   UNL     1      -8.109  -2.602 125.332  0.00  0.00    +0.000 OA
ENDBRANCH  13  20
ENDBRANCH   1  16
BRANCH  10  21
ATOM     21  O   UNL     1      -8.537   3.014 131.122  0.00  0.00    +0.000 OA
BRANCH  21  22
ATOM     22  C   UNL     1      -9.191   4.245 131.119  0.00  0.00    +0.000 A 
ATOM     23  C   UNL     1     -10.487   4.233 130.539  0.00  0.00    +0.000 A 
ATOM     24  C   UNL     1     -11.170   5.428 130.234  0.00  0.00    +0.000 A 
ATOM     25  C   UNL     1     -10.562   6.643 130.477  0.00  0.00    +0.000 A 
ATOM     26  F   UNL     1     -11.153   7.795 130.138  0.00  0.00    +0.000 F 
ATOM     27  C   UNL     1      -9.314   6.688 131.050  0.00  0.00    +0.000 A 
ATOM     28  C   UNL     1      -8.601   5.518 131.375  0.00  0.00    +0.000 A 
ATOM     29  C   UNL     1      -7.239   5.882 131.899  0.00  0.00    +0.000 C 
ENDBRANCH  21  22
ENDBRANCH  10  21
TORSDOF 4
ENDMDL
MODEL 5
REMARK VINA RESULT:      -7.8      1.988      2.481
REMARK  Name = CHEMBL592494
REMARK  7 active torsions:
REMARK  status: ('A' for Active; 'I' for Inactive)
REMARK    1  A    between atoms: C_1  and  O_2
REMARK    2  A    between atoms: O_2  and  C_3
REMARK    3  A    between atoms: C_6  and  N_7
REMARK    4  A    between atoms: C_8  and  C_9
REMARK    5  A    between atoms: C_16  and  O_17
REMARK    6  A    between atoms: O_17  and  C_18
REMARK    7  A    between atoms: C_24  and  C_25
REMARK                            x       y       z     vdW  Elec       q    Type
REMARK                         _______ _______ _______ _____ _____    ______ ____
ROOT
ATOM      1  N   UNL     1      -6.640   3.053 127.788  0.00  0.00    +0.000 N 
ATOM      2  C   UNL     1      -5.250   3.187 127.814  0.00  0.00    +0.000 A 
ATOM      3  C   UNL     1      -4.212   2.416 127.075  0.00  0.00    +0.000 C 
ATOM      4  N   UNL     1      -4.942   4.241 128.550  0.00  0.00    +0.000 NA
ATOM      5  N   UNL     1      -6.092   4.808 129.013  0.00  0.00    +0.000 NA
ATOM      6  C   UNL     1      -7.121   4.061 128.631  0.00  0.00    +0.000 A 
ATOM      7  N   UNL     1      -8.422   4.263 128.952  0.00  0.00    +0.000 N 
ATOM      8  C   UNL     1      -9.002   5.580 128.819  0.00  0.00    +0.000 C 
ATOM      9  C   UNL     1      -9.437   6.110 130.194  0.00  0.00    +0.000 C 
ATOM     10  C   UNL     1     -10.545   5.244 130.744  0.00  0.00    +0.000 C 
ATOM     11  C   UNL     1      -9.894   3.841 130.891  0.00  0.00    +0.000 C 
ATOM     12  C   UNL     1      -9.315   3.284 129.569  0.00  0.00    +0.000 C 
ENDROOT
BRANCH   1  16
ATOM     13  C   UNL     1      -8.842   0.440 125.381  0.00  0.00    +0.000 A 
ATOM     14  C   UNL     1      -8.336  -0.044 126.579  0.00  0.00    +0.000 A 
ATOM     15  C   UNL     1      -7.615   0.826 127.408  0.00  0.00    +0.000 A 
ATOM     16  C   UNL     1      -7.439   2.160 127.025  0.00  0.00    +0.000 A 
ATOM     17  C   UNL     1      -7.945   2.547 125.797  0.00  0.00    +0.000 A 
ATOM     18  N   UNL     1      -8.633   1.712 124.970  0.00  0.00    +0.000 NA
BRANCH  13  20
ATOM     19  C   UNL     1      -9.426   0.096 123.121  0.00  0.00    +0.000 C 
ATOM     20  O   UNL     1      -9.495  -0.354 124.472  0.00  0.00    +0.000 OA
ENDBRANCH  13  20
ENDBRANCH   1  16
BRANCH  10  21
ATOM     21  O   UNL     1     -11.717   5.242 129.881  0.00  0.00    +0.000 OA
BRANCH  21  22
ATOM     22  C   UNL     1     -12.392   6.426 129.592  0.00  0.00    +0.000 A 
ATOM     23  C   UNL     1     -12.538   6.710 128.209  0.00  0.00    +0.000 A 
ATOM     24  C   UNL     1     -12.969   7.974 127.757  0.00  0.00    +0.000 A 
ATOM     25  C   UNL     1     -13.233   8.974 128.672  0.00  0.00    +0.000 A 
ATOM     26  F   UNL     1     -13.579  10.205 128.276  0.00  0.00    +0.000 F 
ATOM     27  C   UNL     1     -13.115   8.725 130.018  0.00  0.00    +0.000 A 
ATOM     28  C   UNL     1     -12.693   7.475 130.511  0.00  0.00    +0.000 A 
ATOM     29  C   UNL     1     -12.573   7.534 132.008  0.00  0.00    +0.000 C 
ENDBRANCH  21  22
ENDBRANCH  10  21
TORSDOF 4
ENDMDL
MODEL 6
REMARK VINA RESULT:      -7.8      4.757      8.219
REMARK  Name = CHEMBL592494
REMARK  7 active torsions:
REMARK  status: ('A' for Active; 'I' for Inactive)
REMARK    1  A    between atoms: C_1  and  O_2
REMARK    2  A    between atoms: O_2  and  C_3
REMARK    3  A    between atoms: C_6  and  N_7
REMARK    4  A    between atoms: C_8  and  C_9
REMARK    5  A    between atoms: C_16  and  O_17
REMARK    6  A    between atoms: O_17  and  C_18
REMARK    7  A    between atoms: C_24  and  C_25
REMARK                            x       y       z     vdW  Elec       q    Type
REMARK                         _______ _______ _______ _____ _____    ______ ____
ROOT
ATOM      1  N   UNL     1      -8.116   2.891 132.245  0.00  0.00    +0.000 N 
ATOM      2  C   UNL     1      -7.655   3.013 133.558  0.00  0.00    +0.000 A 
ATOM      3  C   UNL     1      -7.874   4.112 134.539  0.00  0.00    +0.000 C 
ATOM      4  N   UNL     1      -7.040   1.891 133.894  0.00  0.00    +0.000 NA
ATOM      5  N   UNL     1      -7.082   1.031 132.837  0.00  0.00    +0.000 NA
ATOM      6  C   UNL     1      -7.655   1.644 131.808  0.00  0.00    +0.000 A 
ATOM      7  N   UNL     1      -7.818   1.137 130.563  0.00  0.00    +0.000 N 
ATOM      8  C   UNL     1      -8.348  -0.196 130.389  0.00  0.00    +0.000 C 
ATOM      9  C   UNL     1      -7.300  -1.102 129.726  0.00  0.00    +0.000 C 
ATOM     10  C   UNL     1      -7.012  -0.606 128.328  0.00  0.00    +0.000 C 
ATOM     11  C   UNL     1      -6.432   0.819 128.542  0.00  0.00    +0.000 C 
ATOM     12  C   UNL     1      -7.380   1.765 129.317  0.00  0.00    +0.000 C 
ENDROOT
BRANCH   1  16
ATOM     13  C   UNL     1     -10.418   5.459 129.883  0.00  0.00    +0.000 A 
ATOM     14  C   UNL     1     -11.021   4.313 130.382  0.00  0.00    +0.000 A 
ATOM     15  C   UNL     1     -10.269   3.454 131.195  0.00  0.00    +0.000 A 
ATOM     16  C   UNL     1      -8.943   3.775 131.501  0.00  0.00    +0.000 A 
ATOM     17  C   UNL     1      -8.411   4.917 130.929  0.00  0.00    +0.000 A 
ATOM     18  N   UNL     1      -9.120   5.755 130.123  0.00  0.00    +0.000 NA
BRANCH  13  20
ATOM     19  C   UNL     1     -12.464   6.397 129.179  0.00  0.00    +0.000 C 
ATOM     20  O   UNL     1     -11.050   6.318 129.020  0.00  0.00    +0.000 OA
ENDBRANCH  13  20
ENDBRANCH   1  16
BRANCH  10  21
ATOM     21  O   UNL     1      -8.201  -0.619 127.489  0.00  0.00    +0.000 OA
BRANCH  21  22
ATOM     22  C   UNL     1      -8.297  -1.484 126.401  0.00  0.00    +0.000 A 
ATOM     23  C   UNL     1      -8.298  -0.850 125.130  0.00  0.00    +0.000 A 
ATOM     24  C   UNL     1      -8.637  -1.552 123.956  0.00  0.00    +0.000 A 
ATOM     25  C   UNL     1      -9.001  -2.881 124.035  0.00  0.00    +0.000 A 
ATOM     26  F   UNL     1      -9.392  -3.560 122.950  0.00  0.00    +0.000 F 
ATOM     27  C   UNL     1      -8.995  -3.526 125.248  0.00  0.00    +0.000 A 
ATOM     28  C   UNL     1      -8.658  -2.863 126.444  0.00  0.00    +0.000 A 
ATOM     29  C   UNL     1      -8.830  -3.797 127.609  0.00  0.00    +0.000 C 
ENDBRANCH  21  22
ENDBRANCH  10  21
TORSDOF 4
ENDMDL
MODEL 7
REMARK VINA RESULT:      -7.8      5.248      8.161
REMARK  Name = CHEMBL592494
REMARK  7 active torsions:
REMARK  status: ('A' for Active; 'I' for Inactive)
REMARK    1  A    between atoms: C_1  and  O_2
REMARK    2  A    between atoms: O_2  and  C_3
REMARK    3  A    between atoms: C_6  and  N_7
REMARK    4  A    between atoms: C_8  and  C_9
REMARK    5  A    between atoms: C_16  and  O_17
REMARK    6  A    between atoms: O_17  and  C_18
REMARK    7  A    between atoms: C_24  and  C_25
REMARK                            x       y       z     vdW  Elec       q    Type
REMARK                         _______ _______ _______ _____ _____    ______ ____
ROOT
ATOM      1  N   UNL     1      -7.853  -1.631 127.573  0.00  0.00    +0.000 N 
ATOM      2  C   UNL     1      -8.216  -2.925 127.954  0.00  0.00    +0.000 A 
ATOM      3  C   UNL     1      -7.899  -3.666 129.206  0.00  0.00    +0.000 C 
ATOM      4  N   UNL     1      -9.035  -3.419 127.040  0.00  0.00    +0.000 NA
ATOM      5  N   UNL     1      -9.223  -2.486 126.065  0.00  0.00    +0.000 NA
ATOM      6  C   UNL     1      -8.457  -1.433 126.326  0.00  0.00    +0.000 A 
ATOM      7  N   UNL     1      -8.321  -0.329 125.553  0.00  0.00    +0.000 N 
ATOM      8  C   UNL     1      -9.492   0.334 125.028  0.00  0.00    +0.000 C 
ATOM      9  C   UNL     1      -9.497   0.268 123.493  0.00  0.00    +0.000 C 
ATOM     10  C   UNL     1      -8.323   1.049 122.948  0.00  0.00    +0.000 C 
ATOM     11  C   UNL     1      -7.080   0.310 123.514  0.00  0.00    +0.000 C 
ATOM     12  C   UNL     1      -7.060   0.221 125.058  0.00  0.00    +0.000 C 
ENDROOT
BRANCH   1  16
ATOM     13  C   UNL     1      -5.750   1.147 129.881  0.00  0.00    +0.000 A 
ATOM     14  C   UNL     1      -5.023   0.190 129.188  0.00  0.00    +0.000 A 
ATOM     15  C   UNL     1      -5.713  -0.735 128.390  0.00  0.00    +0.000 A 
ATOM     16  C   UNL     1      -7.106  -0.662 128.294  0.00  0.00    +0.000 A 
ATOM     17  C   UNL     1      -7.752   0.300 129.050  0.00  0.00    +0.000 A 
ATOM     18  N   UNL     1      -7.102   1.195 129.844  0.00  0.00    +0.000 NA
BRANCH  13  20
ATOM     19  C   UNL     1      -6.074   2.693 131.634  0.00  0.00    +0.000 C 
ATOM     20  O   UNL     1      -5.170   2.043 130.743  0.00  0.00    +0.000 OA
ENDBRANCH  13  20
ENDBRANCH   1  16
BRANCH  10  21
ATOM     21  O   UNL     1      -8.376   2.452 123.330  0.00  0.00    +0.000 OA
BRANCH  21  22
ATOM     22  C   UNL     1      -7.322   3.313 123.031  0.00  0.00    +0.000 A 
ATOM     23  C   UNL     1      -6.996   3.403 121.652  0.00  0.00    +0.000 A 
ATOM     24  C   UNL     1      -5.810   4.026 121.214  0.00  0.00    +0.000 A 
ATOM     25  C   UNL     1      -4.926   4.543 122.141  0.00  0.00    +0.000 A 
ATOM     26  F   UNL     1      -3.761   5.081 121.764  0.00  0.00    +0.000 F 
ATOM     27  C   UNL     1      -5.221   4.484 123.482  0.00  0.00    +0.000 A 
ATOM     28  C   UNL     1      -6.397   3.875 123.960  0.00  0.00    +0.000 A 
ATOM     29  C   UNL     1      -6.398   3.883 125.464  0.00  0.00    +0.000 C 
ENDBRANCH  21  22
ENDBRANCH  10  21
TORSDOF 4
ENDMDL
MODEL 8
REMARK VINA RESULT:      -7.7      3.847      6.115
REMARK  Name = CHEMBL592494
REMARK  7 active torsions:
REMARK  status: ('A' for Active; 'I' for Inactive)
REMARK    1  A    between atoms: C_1  and  O_2
REMARK    2  A    between atoms: O_2  and  C_3
REMARK    3  A    between atoms: C_6  and  N_7
REMARK    4  A    between atoms: C_8  and  C_9
REMARK    5  A    between atoms: C_16  and  O_17
REMARK    6  A    between atoms: O_17  and  C_18
REMARK    7  A    between atoms: C_24  and  C_25
REMARK                            x       y       z     vdW  Elec       q    Type
REMARK                         _______ _______ _______ _____ _____    ______ ____
ROOT
ATOM      1  N   UNL     1      -6.093   2.790 133.457  0.00  0.00    +0.000 N 
ATOM      2  C   UNL     1      -5.979   1.544 134.077  0.00  0.00    +0.000 A 
ATOM      3  C   UNL     1      -4.927   1.041 135.002  0.00  0.00    +0.000 C 
ATOM      4  N   UNL     1      -7.067   0.840 133.810  0.00  0.00    +0.000 NA
ATOM      5  N   UNL     1      -7.896   1.588 133.029  0.00  0.00    +0.000 NA
ATOM      6  C   UNL     1      -7.293   2.735 132.739  0.00  0.00    +0.000 A 
ATOM      7  N   UNL     1      -7.773   3.712 131.933  0.00  0.00    +0.000 N 
ATOM      8  C   UNL     1      -9.133   4.174 132.089  0.00  0.00    +0.000 C 
ATOM      9  C   UNL     1      -9.947   3.869 130.822  0.00  0.00    +0.000 C 
ATOM     10  C   UNL     1      -9.392   4.659 129.660  0.00  0.00    +0.000 C 
ATOM     11  C   UNL     1      -7.939   4.135 129.504  0.00  0.00    +0.000 C 
ATOM     12  C   UNL     1      -7.082   4.291 130.782  0.00  0.00    +0.000 C 
ENDROOT
BRANCH   1  16
ATOM     13  C   UNL     1      -3.635   6.169 133.564  0.00  0.00    +0.000 A 
ATOM     14  C   UNL     1      -4.774   6.164 134.356  0.00  0.00    +0.000 A 
ATOM     15  C   UNL     1      -5.596   5.028 134.349  0.00  0.00    +0.000 A 
ATOM     16  C   UNL     1      -5.245   3.925 133.566  0.00  0.00    +0.000 A 
ATOM     17  C   UNL     1      -4.113   4.031 132.778  0.00  0.00    +0.000 A 
ATOM     18  N   UNL     1      -3.311   5.132 132.758  0.00  0.00    +0.000 NA
BRANCH  13  20
ATOM     19  C   UNL     1      -2.840   7.903 132.176  0.00  0.00    +0.000 C 
ATOM     20  O   UNL     1      -2.812   7.261 133.449  0.00  0.00    +0.000 OA
ENDBRANCH  13  20
ENDBRANCH   1  16
BRANCH  10  21
ATOM     21  O   UNL     1      -9.460   6.094 129.894  0.00  0.00    +0.000 OA
BRANCH  21  22
ATOM     22  C   UNL     1     -10.586   6.825 129.519  0.00  0.00    +0.000 A 
ATOM     23  C   UNL     1     -10.474   7.500 128.274  0.00  0.00    +0.000 A 
ATOM     24  C   UNL     1     -11.414   8.472 127.875  0.00  0.00    +0.000 A 
ATOM     25  C   UNL     1     -12.457   8.801 128.718  0.00  0.00    +0.000 A 
ATOM     26  F   UNL     1     -13.329   9.765 128.401  0.00  0.00    +0.000 F 
ATOM     27  C   UNL     1     -12.600   8.155 129.923  0.00  0.00    +0.000 A 
ATOM     28  C   UNL     1     -11.686   7.175 130.356  0.00  0.00    +0.000 A 
ATOM     29  C   UNL     1     -12.050   6.719 131.742  0.00  0.00    +0.000 C 
ENDBRANCH  21  22
ENDBRANCH  10  21
TORSDOF 4
ENDMDL
MODEL 9
REMARK VINA RESULT:      -7.7      3.289      4.430
REMARK  Name = CHEMBL592494
REMARK  7 active torsions:
REMARK  status: ('A' for Active; 'I' for Inactive)
REMARK    1  A    between atoms: C_1  and  O_2
REMARK    2  A    between atoms: O_2  and  C_3
REMARK    3  A    between atoms: C_6  and  N_7
REMARK    4  A    between atoms: C_8  and  C_9
REMARK    5  A    between atoms: C_16  and  O_17
REMARK    6  A    between atoms: O_17  and  C_18
REMARK    7  A    between atoms: C_24  and  C_25
REMARK                            x       y       z     vdW  Elec       q    Type
REMARK                         _______ _______ _______ _____ _____    ______ ____
ROOT
ATOM      1  N   UNL     1      -5.133   2.844 132.100  0.00  0.00    +0.000 N 
ATOM      2  C   UNL     1      -4.745   1.908 133.063  0.00  0.00    +0.000 A 
ATOM      3  C   UNL     1      -3.394   1.354 133.352  0.00  0.00    +0.000 C 
ATOM      4  N   UNL     1      -5.790   1.631 133.825  0.00  0.00    +0.000 NA
ATOM      5  N   UNL     1      -6.858   2.358 133.391  0.00  0.00    +0.000 NA
ATOM      6  C   UNL     1      -6.504   3.034 132.305  0.00  0.00    +0.000 A 
ATOM      7  N   UNL     1      -7.310   3.818 131.550  0.00  0.00    +0.000 N 
ATOM      8  C   UNL     1      -8.170   4.791 132.183  0.00  0.00    +0.000 C 
ATOM      9  C   UNL     1      -9.645   4.446 131.924  0.00  0.00    +0.000 C 
ATOM     10  C   UNL     1      -9.940   4.560 130.446  0.00  0.00    +0.000 C 
ATOM     11  C   UNL     1      -9.016   3.497 129.791  0.00  0.00    +0.000 C 
ATOM     12  C   UNL     1      -7.515   3.700 130.107  0.00  0.00    +0.000 C 
ENDROOT
BRANCH   1  16
ATOM     13  C   UNL     1      -2.948   4.882 129.177  0.00  0.00    +0.000 A 
ATOM     14  C   UNL     1      -3.205   5.534 130.375  0.00  0.00    +0.000 A 
ATOM     15  C   UNL     1      -3.917   4.856 131.374  0.00  0.00    +0.000 A 
ATOM     16  C   UNL     1      -4.332   3.538 131.155  0.00  0.00    +0.000 A 
ATOM     17  C   UNL     1      -4.065   2.979 129.918  0.00  0.00    +0.000 A 
ATOM     18  N   UNL     1      -3.391   3.628 128.928  0.00  0.00    +0.000 NA
BRANCH  13  20
ATOM     19  C   UNL     1      -2.312   6.915 128.163  0.00  0.00    +0.000 C 
ATOM     20  O   UNL     1      -2.326   5.490 128.116  0.00  0.00    +0.000 OA
ENDBRANCH  13  20
ENDBRANCH   1  16
BRANCH  10  21
ATOM     21  O   UNL     1      -9.707   5.906 129.945  0.00  0.00    +0.000 OA
BRANCH  21  22
ATOM     22  C   UNL     1     -10.768   6.702 129.517  0.00  0.00    +0.000 A 
ATOM     23  C   UNL     1     -10.597   7.290 128.236  0.00  0.00    +0.000 A 
ATOM     24  C   UNL     1     -11.454   8.308 127.772  0.00  0.00    +0.000 A 
ATOM     25  C   UNL     1     -12.471   8.769 128.585  0.00  0.00    +0.000 A 
ATOM     26  F   UNL     1     -13.261   9.780 128.203  0.00  0.00    +0.000 F 
ATOM     27  C   UNL     1     -12.670   8.210 129.824  0.00  0.00    +0.000 A 
ATOM     28  C   UNL     1     -11.841   7.187 130.323  0.00  0.00    +0.000 A 
ATOM     29  C   UNL     1     -12.246   6.844 131.729  0.00  0.00    +0.000 C 
ENDBRANCH  21  22
ENDBRANCH  10  21
TORSDOF 4
ENDMDL
