MODEL 1
REMARK VINA RESULT:      -8.8      0.000      0.000
REMARK  Name = CHEMBL602641
REMARK  7 active torsions:
REMARK  status: ('A' for Active; 'I' for Inactive)
REMARK    1  A    between atoms: C_1  and  O_2
REMARK    2  A    between atoms: O_2  and  C_3
REMARK    3  A    between atoms: C_6  and  N_7
REMARK    4  A    between atoms: C_8  and  C_9
REMARK    5  A    between atoms: C_15  and  O_16
REMARK    6  A    between atoms: O_16  and  C_17
REMARK    7  A    between atoms: C_23  and  C_24
REMARK                            x       y       z     vdW  Elec       q    Type
REMARK                         _______ _______ _______ _____ _____    ______ ____
ROOT
ATOM      1  N   UNL     1      -8.413  -1.386 124.497  0.00  0.00    +0.000 N 
ATOM      2  C   UNL     1      -8.990  -2.506 123.891  0.00  0.00    +0.000 A 
ATOM      3  C   UNL     1      -8.937  -3.934 124.347  0.00  0.00    +0.000 C 
ATOM      4  N   UNL     1      -9.759  -2.094 122.903  0.00  0.00    +0.000 NA
ATOM      5  N   UNL     1      -9.760  -0.712 122.885  0.00  0.00    +0.000 NA
ATOM      6  C   UNL     1      -8.984  -0.276 123.840  0.00  0.00    +0.000 A 
ATOM      7  N   UNL     1      -8.670   1.010 124.233  0.00  0.00    +0.000 N 
ATOM      8  C   UNL     1      -9.380   2.236 124.002  0.00  0.00    +0.000 C 
ATOM      9  C   UNL     1      -8.138   2.850 123.298  0.00  0.00    +0.000 C 
ATOM     10  C   UNL     1      -7.414   1.623 123.920  0.00  0.00    +0.000 C 
ENDROOT
BRANCH   1  14
ATOM     11  C   UNL     1      -5.832  -1.394 127.774  0.00  0.00    +0.000 A 
ATOM     12  C   UNL     1      -5.302  -1.582 126.509  0.00  0.00    +0.000 A 
ATOM     13  C   UNL     1      -6.160  -1.547 125.411  0.00  0.00    +0.000 A 
ATOM     14  C   UNL     1      -7.527  -1.324 125.599  0.00  0.00    +0.000 A 
ATOM     15  C   UNL     1      -7.981  -1.185 126.900  0.00  0.00    +0.000 A 
ATOM     16  N   UNL     1      -7.159  -1.223 127.985  0.00  0.00    +0.000 NA
BRANCH  11  18
ATOM     17  C   UNL     1      -4.344  -2.692 129.058  0.00  0.00    +0.000 C 
ATOM     18  O   UNL     1      -5.070  -1.471 128.911  0.00  0.00    +0.000 OA
ENDBRANCH  11  18
ENDBRANCH   1  14
BRANCH   9  19
ATOM     19  O   UNL     1      -8.247   3.051 121.849  0.00  0.00    +0.000 OA
BRANCH  19  20
ATOM     20  C   UNL     1      -7.206   3.667 121.165  0.00  0.00    +0.000 A 
ATOM     21  C   UNL     1      -5.987   3.882 121.823  0.00  0.00    +0.000 A 
ATOM     22  C   UNL     1      -4.979   4.635 121.199  0.00  0.00    +0.000 A 
ATOM     23  F   UNL     1      -3.810   4.840 121.822  0.00  0.00    +0.000 F 
ATOM     24  C   UNL     1      -5.161   5.192 119.940  0.00  0.00    +0.000 A 
ATOM     25  C   UNL     1      -6.364   4.992 119.291  0.00  0.00    +0.000 A 
ATOM     26  C   UNL     1      -7.384   4.244 119.897  0.00  0.00    +0.000 A 
ATOM     27  C   UNL     1      -8.638   4.094 119.120  0.00  0.00    +0.000 C 
ENDBRANCH  19  20
ENDBRANCH   9  19
TORSDOF 4
ENDMDL
MODEL 2
REMARK VINA RESULT:      -8.0      3.989      5.246
REMARK  Name = CHEMBL602641
REMARK  7 active torsions:
REMARK  status: ('A' for Active; 'I' for Inactive)
REMARK    1  A    between atoms: C_1  and  O_2
REMARK    2  A    between atoms: O_2  and  C_3
REMARK    3  A    between atoms: C_6  and  N_7
REMARK    4  A    between atoms: C_8  and  C_9
REMARK    5  A    between atoms: C_15  and  O_16
REMARK    6  A    between atoms: O_16  and  C_17
REMARK    7  A    between atoms: C_23  and  C_24
REMARK                            x       y       z     vdW  Elec       q    Type
REMARK                         _______ _______ _______ _____ _____    ______ ____
ROOT
ATOM      1  N   UNL     1      -6.686   1.833 127.681  0.00  0.00    +0.000 N 
ATOM      2  C   UNL     1      -5.684   0.940 128.073  0.00  0.00    +0.000 A 
ATOM      3  C   UNL     1      -5.166   0.682 129.456  0.00  0.00    +0.000 C 
ATOM      4  N   UNL     1      -5.353   0.203 127.030  0.00  0.00    +0.000 NA
ATOM      5  N   UNL     1      -6.168   0.543 125.967  0.00  0.00    +0.000 NA
ATOM      6  C   UNL     1      -6.980   1.494 126.344  0.00  0.00    +0.000 A 
ATOM      7  N   UNL     1      -7.979   2.154 125.655  0.00  0.00    +0.000 N 
ATOM      8  C   UNL     1      -8.702   1.752 124.483  0.00  0.00    +0.000 C 
ATOM      9  C   UNL     1      -8.241   3.031 123.731  0.00  0.00    +0.000 C 
ATOM     10  C   UNL     1      -7.814   3.486 125.154  0.00  0.00    +0.000 C 
ENDROOT
BRANCH   1  14
ATOM     11  C   UNL     1      -8.777   4.764 129.787  0.00  0.00    +0.000 A 
ATOM     12  C   UNL     1      -9.259   3.466 129.798  0.00  0.00    +0.000 A 
ATOM     13  C   UNL     1      -8.542   2.480 129.121  0.00  0.00    +0.000 A 
ATOM     14  C   UNL     1      -7.361   2.811 128.449  0.00  0.00    +0.000 A 
ATOM     15  C   UNL     1      -6.971   4.140 128.455  0.00  0.00    +0.000 A 
ATOM     16  N   UNL     1      -7.661   5.118 129.105  0.00  0.00    +0.000 NA
BRANCH  11  18
ATOM     17  C   UNL     1      -8.610   6.812 130.939  0.00  0.00    +0.000 C 
ATOM     18  O   UNL     1      -9.449   5.804 130.376  0.00  0.00    +0.000 OA
ENDBRANCH  11  18
ENDBRANCH   1  14
BRANCH   9  19
ATOM     19  O   UNL     1      -7.276   2.833 122.643  0.00  0.00    +0.000 OA
BRANCH  19  20
ATOM     20  C   UNL     1      -7.457   3.504 121.440  0.00  0.00    +0.000 A 
ATOM     21  C   UNL     1      -8.748   3.615 120.904  0.00  0.00    +0.000 A 
ATOM     22  C   UNL     1      -8.928   4.156 119.621  0.00  0.00    +0.000 A 
ATOM     23  F   UNL     1     -10.160   4.268 119.105  0.00  0.00    +0.000 F 
ATOM     24  C   UNL     1      -7.852   4.579 118.852  0.00  0.00    +0.000 A 
ATOM     25  C   UNL     1      -6.576   4.465 119.372  0.00  0.00    +0.000 A 
ATOM     26  C   UNL     1      -6.374   3.925 120.650  0.00  0.00    +0.000 A 
ATOM     27  C   UNL     1      -4.968   3.839 121.111  0.00  0.00    +0.000 C 
ENDBRANCH  19  20
ENDBRANCH   9  19
TORSDOF 4
ENDMDL
MODEL 3
REMARK VINA RESULT:      -7.9      2.446      3.312
REMARK  Name = CHEMBL602641
REMARK  7 active torsions:
REMARK  status: ('A' for Active; 'I' for Inactive)
REMARK    1  A    between atoms: C_1  and  O_2
REMARK    2  A    between atoms: O_2  and  C_3
REMARK    3  A    between atoms: C_6  and  N_7
REMARK    4  A    between atoms: C_8  and  C_9
REMARK    5  A    between atoms: C_15  and  O_16
REMARK    6  A    between atoms: O_16  and  C_17
REMARK    7  A    between atoms: C_23  and  C_24
REMARK                            x       y       z     vdW  Elec       q    Type
REMARK                         _______ _______ _______ _____ _____    ______ ____
ROOT
ATOM      1  N   UNL     1      -6.703  -2.400 124.353  0.00  0.00    +0.000 N 
ATOM      2  C   UNL     1      -5.623  -2.930 123.642  0.00  0.00    +0.000 A 
ATOM      3  C   UNL     1      -4.759  -4.098 124.011  0.00  0.00    +0.000 C 
ATOM      4  N   UNL     1      -5.565  -2.333 122.468  0.00  0.00    +0.000 NA
ATOM      5  N   UNL     1      -6.633  -1.463 122.357  0.00  0.00    +0.000 NA
ATOM      6  C   UNL     1      -7.332  -1.508 123.459  0.00  0.00    +0.000 A 
ATOM      7  N   UNL     1      -8.483  -0.841 123.825  0.00  0.00    +0.000 N 
ATOM      8  C   UNL     1      -9.481  -0.218 123.003  0.00  0.00    +0.000 C 
ATOM      9  C   UNL     1      -9.250   1.144 123.712  0.00  0.00    +0.000 C 
ATOM     10  C   UNL     1      -8.473   0.267 124.733  0.00  0.00    +0.000 C 
ENDROOT
BRANCH   1  14
ATOM     11  C   UNL     1      -8.174  -3.204 128.173  0.00  0.00    +0.000 A 
ATOM     12  C   UNL     1      -8.865  -3.693 127.078  0.00  0.00    +0.000 A 
ATOM     13  C   UNL     1      -8.357  -3.452 125.802  0.00  0.00    +0.000 A 
ATOM     14  C   UNL     1      -7.169  -2.730 125.648  0.00  0.00    +0.000 A 
ATOM     15  C   UNL     1      -6.561  -2.244 126.794  0.00  0.00    +0.000 A 
ATOM     16  N   UNL     1      -7.046  -2.463 128.047  0.00  0.00    +0.000 NA
BRANCH  11  18
ATOM     17  C   UNL     1      -7.679  -3.024 130.469  0.00  0.00    +0.000 C 
ATOM     18  O   UNL     1      -8.634  -3.345 129.457  0.00  0.00    +0.000 OA
ENDBRANCH  11  18
ENDBRANCH   1  14
BRANCH   9  19
ATOM     19  O   UNL     1      -8.599   2.190 122.914  0.00  0.00    +0.000 OA
BRANCH  19  20
ATOM     20  C   UNL     1      -7.652   3.014 123.510  0.00  0.00    +0.000 A 
ATOM     21  C   UNL     1      -7.937   3.598 124.753  0.00  0.00    +0.000 A 
ATOM     22  C   UNL     1      -7.058   4.548 125.296  0.00  0.00    +0.000 A 
ATOM     23  F   UNL     1      -7.323   5.106 126.485  0.00  0.00    +0.000 F 
ATOM     24  C   UNL     1      -5.907   4.941 124.626  0.00  0.00    +0.000 A 
ATOM     25  C   UNL     1      -5.625   4.375 123.397  0.00  0.00    +0.000 A 
ATOM     26  C   UNL     1      -6.491   3.426 122.836  0.00  0.00    +0.000 A 
ATOM     27  C   UNL     1      -6.102   2.886 121.511  0.00  0.00    +0.000 C 
ENDBRANCH  19  20
ENDBRANCH   9  19
TORSDOF 4
ENDMDL
MODEL 4
REMARK VINA RESULT:      -7.9      8.061      9.658
REMARK  Name = CHEMBL602641
REMARK  7 active torsions:
REMARK  status: ('A' for Active; 'I' for Inactive)
REMARK    1  A    between atoms: C_1  and  O_2
REMARK    2  A    between atoms: O_2  and  C_3
REMARK    3  A    between atoms: C_6  and  N_7
REMARK    4  A    between atoms: C_8  and  C_9
REMARK    5  A    between atoms: C_15  and  O_16
REMARK    6  A    between atoms: O_16  and  C_17
REMARK    7  A    between atoms: C_23  and  C_24
REMARK                            x       y       z     vdW  Elec       q    Type
REMARK                         _______ _______ _______ _____ _____    ______ ____
ROOT
ATOM      1  N   UNL     1      -5.043   5.096 129.305  0.00  0.00    +0.000 N 
ATOM      2  C   UNL     1      -4.272   5.132 128.139  0.00  0.00    +0.000 A 
ATOM      3  C   UNL     1      -2.780   5.207 128.020  0.00  0.00    +0.000 C 
ATOM      4  N   UNL     1      -5.067   4.920 127.109  0.00  0.00    +0.000 NA
ATOM      5  N   UNL     1      -6.345   4.672 127.575  0.00  0.00    +0.000 NA
ATOM      6  C   UNL     1      -6.342   4.750 128.879  0.00  0.00    +0.000 A 
ATOM      7  N   UNL     1      -7.359   4.572 129.796  0.00  0.00    +0.000 N 
ATOM      8  C   UNL     1      -8.602   3.869 129.658  0.00  0.00    +0.000 C 
ATOM      9  C   UNL     1      -9.396   5.157 130.011  0.00  0.00    +0.000 C 
ATOM     10  C   UNL     1      -7.998   5.671 130.455  0.00  0.00    +0.000 C 
ENDROOT
BRANCH   1  14
ATOM     11  C   UNL     1      -3.656   5.578 133.210  0.00  0.00    +0.000 A 
ATOM     12  C   UNL     1      -3.983   6.705 132.476  0.00  0.00    +0.000 A 
ATOM     13  C   UNL     1      -4.477   6.543 131.183  0.00  0.00    +0.000 A 
ATOM     14  C   UNL     1      -4.635   5.259 130.651  0.00  0.00    +0.000 A 
ATOM     15  C   UNL     1      -4.247   4.187 131.437  0.00  0.00    +0.000 A 
ATOM     16  N   UNL     1      -3.757   4.326 132.699  0.00  0.00    +0.000 NA
BRANCH  11  18
ATOM     17  C   UNL     1      -3.691   6.639 135.312  0.00  0.00    +0.000 C 
ATOM     18  O   UNL     1      -3.109   5.649 134.465  0.00  0.00    +0.000 OA
ENDBRANCH  11  18
ENDBRANCH   1  14
BRANCH   9  19
ATOM     19  O   UNL     1     -10.153   5.774 128.916  0.00  0.00    +0.000 OA
BRANCH  19  20
ATOM     20  C   UNL     1     -10.992   6.848 129.186  0.00  0.00    +0.000 A 
ATOM     21  C   UNL     1     -11.611   6.935 130.442  0.00  0.00    +0.000 A 
ATOM     22  C   UNL     1     -12.575   7.929 130.678  0.00  0.00    +0.000 A 
ATOM     23  F   UNL     1     -13.167   8.019 131.877  0.00  0.00    +0.000 F 
ATOM     24  C   UNL     1     -12.948   8.830 129.690  0.00  0.00    +0.000 A 
ATOM     25  C   UNL     1     -12.348   8.744 128.448  0.00  0.00    +0.000 A 
ATOM     26  C   UNL     1     -11.384   7.759 128.191  0.00  0.00    +0.000 A 
ATOM     27  C   UNL     1     -10.806   7.746 126.825  0.00  0.00    +0.000 C 
ENDBRANCH  19  20
ENDBRANCH   9  19
TORSDOF 4
ENDMDL
MODEL 5
REMARK VINA RESULT:      -7.8      6.747      8.208
REMARK  Name = CHEMBL602641
REMARK  7 active torsions:
REMARK  status: ('A' for Active; 'I' for Inactive)
REMARK    1  A    between atoms: C_1  and  O_2
REMARK    2  A    between atoms: O_2  and  C_3
REMARK    3  A    between atoms: C_6  and  N_7
REMARK    4  A    between atoms: C_8  and  C_9
REMARK    5  A    between atoms: C_15  and  O_16
REMARK    6  A    between atoms: O_16  and  C_17
REMARK    7  A    between atoms: C_23  and  C_24
REMARK                            x       y       z     vdW  Elec       q    Type
REMARK                         _______ _______ _______ _____ _____    ______ ____
ROOT
ATOM      1  N   UNL     1      -6.884   2.487 127.232  0.00  0.00    +0.000 N 
ATOM      2  C   UNL     1      -7.223   1.515 126.287  0.00  0.00    +0.000 A 
ATOM      3  C   UNL     1      -6.312   0.781 125.350  0.00  0.00    +0.000 C 
ATOM      4  N   UNL     1      -8.493   1.201 126.451  0.00  0.00    +0.000 NA
ATOM      5  N   UNL     1      -8.988   1.897 127.537  0.00  0.00    +0.000 NA
ATOM      6  C   UNL     1      -8.039   2.648 128.027  0.00  0.00    +0.000 A 
ATOM      7  N   UNL     1      -8.034   3.509 129.106  0.00  0.00    +0.000 N 
ATOM      8  C   UNL     1      -8.905   3.551 130.246  0.00  0.00    +0.000 C 
ATOM      9  C   UNL     1      -9.305   5.015 129.917  0.00  0.00    +0.000 C 
ATOM     10  C   UNL     1      -8.088   4.932 128.954  0.00  0.00    +0.000 C 
ENDROOT
BRANCH   1  14
ATOM     11  C   UNL     1      -3.301   4.476 128.014  0.00  0.00    +0.000 A 
ATOM     12  C   UNL     1      -3.576   3.306 128.701  0.00  0.00    +0.000 A 
ATOM     13  C   UNL     1      -4.758   2.624 128.417  0.00  0.00    +0.000 A 
ATOM     14  C   UNL     1      -5.639   3.124 127.452  0.00  0.00    +0.000 A 
ATOM     15  C   UNL     1      -5.307   4.321 126.840  0.00  0.00    +0.000 A 
ATOM     16  N   UNL     1      -4.161   5.004 127.109  0.00  0.00    +0.000 NA
BRANCH  11  18
ATOM     17  C   UNL     1      -2.351   6.176 129.338  0.00  0.00    +0.000 C 
ATOM     18  O   UNL     1      -2.192   5.240 128.273  0.00  0.00    +0.000 OA
ENDBRANCH  11  18
ENDBRANCH   1  14
BRANCH   9  19
ATOM     19  O   UNL     1     -10.677   5.222 129.438  0.00  0.00    +0.000 OA
BRANCH  19  20
ATOM     20  C   UNL     1     -11.282   6.460 129.616  0.00  0.00    +0.000 A 
ATOM     21  C   UNL     1     -11.984   6.716 130.803  0.00  0.00    +0.000 A 
ATOM     22  C   UNL     1     -12.725   7.901 130.935  0.00  0.00    +0.000 A 
ATOM     23  F   UNL     1     -13.393   8.153 132.069  0.00  0.00    +0.000 F 
ATOM     24  C   UNL     1     -12.797   8.832 129.907  0.00  0.00    +0.000 A 
ATOM     25  C   UNL     1     -12.115   8.581 128.731  0.00  0.00    +0.000 A 
ATOM     26  C   UNL     1     -11.370   7.403 128.579  0.00  0.00    +0.000 A 
ATOM     27  C   UNL     1     -10.683   7.225 127.277  0.00  0.00    +0.000 C 
ENDBRANCH  19  20
ENDBRANCH   9  19
TORSDOF 4
ENDMDL
MODEL 6
REMARK VINA RESULT:      -7.8      4.525      7.088
REMARK  Name = CHEMBL602641
REMARK  7 active torsions:
REMARK  status: ('A' for Active; 'I' for Inactive)
REMARK    1  A    between atoms: C_1  and  O_2
REMARK    2  A    between atoms: O_2  and  C_3
REMARK    3  A    between atoms: C_6  and  N_7
REMARK    4  A    between atoms: C_8  and  C_9
REMARK    5  A    between atoms: C_15  and  O_16
REMARK    6  A    between atoms: O_16  and  C_17
REMARK    7  A    between atoms: C_23  and  C_24
REMARK                            x       y       z     vdW  Elec       q    Type
REMARK                         _______ _______ _______ _____ _____    ______ ____
ROOT
ATOM      1  N   UNL     1      -6.630   2.644 123.627  0.00  0.00    +0.000 N 
ATOM      2  C   UNL     1      -6.356   3.533 122.584  0.00  0.00    +0.000 A 
ATOM      3  C   UNL     1      -6.946   3.552 121.206  0.00  0.00    +0.000 C 
ATOM      4  N   UNL     1      -5.588   4.498 123.052  0.00  0.00    +0.000 NA
ATOM      5  N   UNL     1      -5.404   4.304 124.408  0.00  0.00    +0.000 NA
ATOM      6  C   UNL     1      -6.036   3.219 124.769  0.00  0.00    +0.000 A 
ATOM      7  N   UNL     1      -6.164   2.618 126.005  0.00  0.00    +0.000 N 
ATOM      8  C   UNL     1      -6.000   3.179 127.317  0.00  0.00    +0.000 C 
ATOM      9  C   UNL     1      -4.900   2.135 127.652  0.00  0.00    +0.000 C 
ATOM     10  C   UNL     1      -5.431   1.442 126.366  0.00  0.00    +0.000 C 
ENDROOT
BRANCH   1  14
ATOM     11  C   UNL     1      -8.986  -0.791 123.398  0.00  0.00    +0.000 A 
ATOM     12  C   UNL     1      -7.627  -0.899 123.157  0.00  0.00    +0.000 A 
ATOM     13  C   UNL     1      -6.834   0.243 123.265  0.00  0.00    +0.000 A 
ATOM     14  C   UNL     1      -7.416   1.467 123.613  0.00  0.00    +0.000 A 
ATOM     15  C   UNL     1      -8.788   1.495 123.798  0.00  0.00    +0.000 A 
ATOM     16  N   UNL     1      -9.579   0.392 123.690  0.00  0.00    +0.000 NA
BRANCH  11  18
ATOM     17  C   UNL     1      -9.300  -3.113 123.633  0.00  0.00    +0.000 C 
ATOM     18  O   UNL     1      -9.846  -1.850 123.257  0.00  0.00    +0.000 OA
ENDBRANCH  11  18
ENDBRANCH   1  14
BRANCH   9  19
ATOM     19  O   UNL     1      -3.530   2.648 127.764  0.00  0.00    +0.000 OA
BRANCH  19  20
ATOM     20  C   UNL     1      -3.298   3.828 128.460  0.00  0.00    +0.000 A 
ATOM     21  C   UNL     1      -2.739   4.923 127.785  0.00  0.00    +0.000 A 
ATOM     22  C   UNL     1      -2.360   6.068 128.505  0.00  0.00    +0.000 A 
ATOM     23  F   UNL     1      -1.831   7.119 127.865  0.00  0.00    +0.000 F 
ATOM     24  C   UNL     1      -2.511   6.144 129.883  0.00  0.00    +0.000 A 
ATOM     25  C   UNL     1      -3.053   5.064 130.555  0.00  0.00    +0.000 A 
ATOM     26  C   UNL     1      -3.437   3.911 129.855  0.00  0.00    +0.000 A 
ATOM     27  C   UNL     1      -3.999   2.807 130.669  0.00  0.00    +0.000 C 
ENDBRANCH  19  20
ENDBRANCH   9  19
TORSDOF 4
ENDMDL
MODEL 7
REMARK VINA RESULT:      -7.7      4.845      7.540
REMARK  Name = CHEMBL602641
REMARK  7 active torsions:
REMARK  status: ('A' for Active; 'I' for Inactive)
REMARK    1  A    between atoms: C_1  and  O_2
REMARK    2  A    between atoms: O_2  and  C_3
REMARK    3  A    between atoms: C_6  and  N_7
REMARK    4  A    between atoms: C_8  and  C_9
REMARK    5  A    between atoms: C_15  and  O_16
REMARK    6  A    between atoms: O_16  and  C_17
REMARK    7  A    between atoms: C_23  and  C_24
REMARK                            x       y       z     vdW  Elec       q    Type
REMARK                         _______ _______ _______ _____ _____    ______ ____
ROOT
ATOM      1  N   UNL     1      -6.554   2.957 123.158  0.00  0.00    +0.000 N 
ATOM      2  C   UNL     1      -6.077   3.608 122.017  0.00  0.00    +0.000 A 
ATOM      3  C   UNL     1      -6.428   3.338 120.584  0.00  0.00    +0.000 C 
ATOM      4  N   UNL     1      -5.365   4.649 122.400  0.00  0.00    +0.000 NA
ATOM      5  N   UNL     1      -5.418   4.743 123.778  0.00  0.00    +0.000 NA
ATOM      6  C   UNL     1      -6.139   3.758 124.242  0.00  0.00    +0.000 A 
ATOM      7  N   UNL     1      -6.492   3.429 125.535  0.00  0.00    +0.000 N 
ATOM      8  C   UNL     1      -6.531   4.251 126.711  0.00  0.00    +0.000 C 
ATOM      9  C   UNL     1      -5.540   3.301 127.437  0.00  0.00    +0.000 C 
ATOM     10  C   UNL     1      -5.873   2.354 126.250  0.00  0.00    +0.000 C 
ENDROOT
BRANCH   1  14
ATOM     11  C   UNL     1      -8.953  -0.455 123.243  0.00  0.00    +0.000 A 
ATOM     12  C   UNL     1      -7.578  -0.606 123.313  0.00  0.00    +0.000 A 
ATOM     13  C   UNL     1      -6.778   0.535 123.317  0.00  0.00    +0.000 A 
ATOM     14  C   UNL     1      -7.367   1.802 123.253  0.00  0.00    +0.000 A 
ATOM     15  C   UNL     1      -8.746   1.863 123.145  0.00  0.00    +0.000 A 
ATOM     16  N   UNL     1      -9.544   0.759 123.133  0.00  0.00    +0.000 NA
BRANCH  11  18
ATOM     17  C   UNL     1      -9.175  -2.799 123.267  0.00  0.00    +0.000 C 
ATOM     18  O   UNL     1      -9.809  -1.524 123.174  0.00  0.00    +0.000 OA
ENDBRANCH  11  18
ENDBRANCH   1  14
BRANCH   9  19
ATOM     19  O   UNL     1      -4.191   3.826 127.673  0.00  0.00    +0.000 OA
BRANCH  19  20
ATOM     20  C   UNL     1      -3.721   3.939 128.976  0.00  0.00    +0.000 A 
ATOM     21  C   UNL     1      -4.195   3.053 129.954  0.00  0.00    +0.000 A 
ATOM     22  C   UNL     1      -3.846   3.248 131.301  0.00  0.00    +0.000 A 
ATOM     23  F   UNL     1      -4.293   2.403 132.239  0.00  0.00    +0.000 F 
ATOM     24  C   UNL     1      -3.048   4.312 131.699  0.00  0.00    +0.000 A 
ATOM     25  C   UNL     1      -2.584   5.193 130.740  0.00  0.00    +0.000 A 
ATOM     26  C   UNL     1      -2.922   5.018 129.391  0.00  0.00    +0.000 A 
ATOM     27  C   UNL     1      -2.381   6.021 128.443  0.00  0.00    +0.000 C 
ENDBRANCH  19  20
ENDBRANCH   9  19
TORSDOF 4
ENDMDL
MODEL 8
REMARK VINA RESULT:      -7.6      8.719      9.839
REMARK  Name = CHEMBL602641
REMARK  7 active torsions:
REMARK  status: ('A' for Active; 'I' for Inactive)
REMARK    1  A    between atoms: C_1  and  O_2
REMARK    2  A    between atoms: O_2  and  C_3
REMARK    3  A    between atoms: C_6  and  N_7
REMARK    4  A    between atoms: C_8  and  C_9
REMARK    5  A    between atoms: C_15  and  O_16
REMARK    6  A    between atoms: O_16  and  C_17
REMARK    7  A    between atoms: C_23  and  C_24
REMARK                            x       y       z     vdW  Elec       q    Type
REMARK                         _______ _______ _______ _____ _____    ______ ____
ROOT
ATOM      1  N   UNL     1      -6.568   3.043 132.703  0.00  0.00    +0.000 N 
ATOM      2  C   UNL     1      -6.825   1.703 133.009  0.00  0.00    +0.000 A 
ATOM      3  C   UNL     1      -5.840   0.633 133.369  0.00  0.00    +0.000 C 
ATOM      4  N   UNL     1      -8.130   1.540 133.097  0.00  0.00    +0.000 NA
ATOM      5  N   UNL     1      -8.746   2.766 132.926  0.00  0.00    +0.000 NA
ATOM      6  C   UNL     1      -7.830   3.673 132.714  0.00  0.00    +0.000 A 
ATOM      7  N   UNL     1      -7.939   5.032 132.500  0.00  0.00    +0.000 N 
ATOM      8  C   UNL     1      -9.008   5.929 132.836  0.00  0.00    +0.000 C 
ATOM      9  C   UNL     1      -9.157   6.347 131.347  0.00  0.00    +0.000 C 
ATOM     10  C   UNL     1      -7.791   5.619 131.202  0.00  0.00    +0.000 C 
ENDROOT
BRANCH   1  14
ATOM     11  C   UNL     1      -2.816   4.798 132.212  0.00  0.00    +0.000 A 
ATOM     12  C   UNL     1      -3.427   4.216 131.114  0.00  0.00    +0.000 A 
ATOM     13  C   UNL     1      -4.695   3.658 131.271  0.00  0.00    +0.000 A 
ATOM     14  C   UNL     1      -5.325   3.695 132.519  0.00  0.00    +0.000 A 
ATOM     15  C   UNL     1      -4.628   4.260 133.573  0.00  0.00    +0.000 A 
ATOM     16  N   UNL     1      -3.387   4.804 133.441  0.00  0.00    +0.000 NA
BRANCH  11  18
ATOM     17  C   UNL     1      -1.414   6.480 131.344  0.00  0.00    +0.000 C 
ATOM     18  O   UNL     1      -1.548   5.317 132.160  0.00  0.00    +0.000 OA
ENDBRANCH  11  18
ENDBRANCH   1  14
BRANCH   9  19
ATOM     19  O   UNL     1     -10.372   5.889 130.663  0.00  0.00    +0.000 OA
BRANCH  19  20
ATOM     20  C   UNL     1     -11.058   6.766 129.831  0.00  0.00    +0.000 A 
ATOM     21  C   UNL     1     -10.551   7.035 128.552  0.00  0.00    +0.000 A 
ATOM     22  C   UNL     1     -11.148   8.029 127.760  0.00  0.00    +0.000 A 
ATOM     23  F   UNL     1     -10.671   8.288 126.534  0.00  0.00    +0.000 F 
ATOM     24  C   UNL     1     -12.229   8.772 128.215  0.00  0.00    +0.000 A 
ATOM     25  C   UNL     1     -12.727   8.517 129.479  0.00  0.00    +0.000 A 
ATOM     26  C   UNL     1     -12.145   7.530 130.287  0.00  0.00    +0.000 A 
ATOM     27  C   UNL     1     -12.749   7.339 131.628  0.00  0.00    +0.000 C 
ENDBRANCH  19  20
ENDBRANCH   9  19
TORSDOF 4
ENDMDL
MODEL 9
REMARK VINA RESULT:      -7.4      6.408      8.023
REMARK  Name = CHEMBL602641
REMARK  7 active torsions:
REMARK  status: ('A' for Active; 'I' for Inactive)
REMARK    1  A    between atoms: C_1  and  O_2
REMARK    2  A    between atoms: O_2  and  C_3
REMARK    3  A    between atoms: C_6  and  N_7
REMARK    4  A    between atoms: C_8  and  C_9
REMARK    5  A    between atoms: C_15  and  O_16
REMARK    6  A    between atoms: O_16  and  C_17
REMARK    7  A    between atoms: C_23  and  C_24
REMARK                            x       y       z     vdW  Elec       q    Type
REMARK                         _______ _______ _______ _____ _____    ______ ____
ROOT
ATOM      1  N   UNL     1      -6.973   2.584 127.342  0.00  0.00    +0.000 N 
ATOM      2  C   UNL     1      -7.324   1.582 126.433  0.00  0.00    +0.000 A 
ATOM      3  C   UNL     1      -6.450   0.905 125.421  0.00  0.00    +0.000 C 
ATOM      4  N   UNL     1      -8.550   1.182 126.709  0.00  0.00    +0.000 NA
ATOM      5  N   UNL     1      -8.995   1.852 127.833  0.00  0.00    +0.000 NA
ATOM      6  C   UNL     1      -8.062   2.672 128.234  0.00  0.00    +0.000 A 
ATOM      7  N   UNL     1      -8.023   3.541 129.307  0.00  0.00    +0.000 N 
ATOM      8  C   UNL     1      -8.791   3.533 130.519  0.00  0.00    +0.000 C 
ATOM      9  C   UNL     1      -9.320   4.963 130.221  0.00  0.00    +0.000 C 
ATOM     10  C   UNL     1      -8.189   4.955 129.155  0.00  0.00    +0.000 C 
ENDROOT
BRANCH   1  14
ATOM     11  C   UNL     1      -3.483   4.823 127.799  0.00  0.00    +0.000 A 
ATOM     12  C   UNL     1      -3.607   3.635 128.499  0.00  0.00    +0.000 A 
ATOM     13  C   UNL     1      -4.760   2.870 128.321  0.00  0.00    +0.000 A 
ATOM     14  C   UNL     1      -5.761   3.308 127.449  0.00  0.00    +0.000 A 
ATOM     15  C   UNL     1      -5.575   4.527 126.819  0.00  0.00    +0.000 A 
ATOM     16  N   UNL     1      -4.459   5.291 126.985  0.00  0.00    +0.000 NA
BRANCH  11  18
ATOM     17  C   UNL     1      -2.704   6.873 128.658  0.00  0.00    +0.000 C 
ATOM     18  O   UNL     1      -2.411   5.664 127.960  0.00  0.00    +0.000 OA
ENDBRANCH  11  18
ENDBRANCH   1  14
BRANCH   9  19
ATOM     19  O   UNL     1     -10.740   5.069 129.866  0.00  0.00    +0.000 OA
BRANCH  19  20
ATOM     20  C   UNL     1     -11.238   6.280 129.402  0.00  0.00    +0.000 A 
ATOM     21  C   UNL     1     -10.908   6.708 128.108  0.00  0.00    +0.000 A 
ATOM     22  C   UNL     1     -11.278   7.993 127.681  0.00  0.00    +0.000 A 
ATOM     23  F   UNL     1     -10.969   8.405 126.444  0.00  0.00    +0.000 F 
ATOM     24  C   UNL     1     -11.958   8.870 128.516  0.00  0.00    +0.000 A 
ATOM     25  C   UNL     1     -12.278   8.458 129.796  0.00  0.00    +0.000 A 
ATOM     26  C   UNL     1     -11.917   7.179 130.243  0.00  0.00    +0.000 A 
ATOM     27  C   UNL     1     -12.300   6.837 131.633  0.00  0.00    +0.000 C 
ENDBRANCH  19  20
ENDBRANCH   9  19
TORSDOF 4
ENDMDL
