MODEL 1
REMARK VINA RESULT:      -7.6      0.000      0.000
REMARK  Name = CHEMBL1093366
REMARK  7 active torsions:
REMARK  status: ('A' for Active; 'I' for Inactive)
REMARK    1  A    between atoms: C_1  and  O_2
REMARK    2  A    between atoms: O_2  and  C_3
REMARK    3  A    between atoms: C_6  and  N_7
REMARK    4  A    between atoms: N_7  and  C_8
REMARK    5  A    between atoms: C_9  and  C_11
REMARK    6  A    between atoms: C_14  and  C_15
REMARK    7  A    between atoms: C_21  and  C_22
REMARK                            x       y       z     vdW  Elec       q    Type
REMARK                         _______ _______ _______ _____ _____    ______ ____
ROOT
ATOM      1  C   UNL     1      -7.126   0.121 125.150  0.00  0.00    +0.000 A 
ATOM      2  C   UNL     1      -8.253  -0.530 125.623  0.00  0.00    +0.000 A 
ATOM      3  N   UNL     1      -8.318  -1.098 126.855  0.00  0.00    +0.000 NA
ATOM      4  C   UNL     1      -7.174  -1.068 127.581  0.00  0.00    +0.000 A 
ATOM      5  C   UNL     1      -6.016  -0.488 127.065  0.00  0.00    +0.000 A 
ATOM      6  N   UNL     1      -5.966   0.127 125.859  0.00  0.00    +0.000 NA
ENDROOT
BRANCH   4   7
ATOM      7  C   UNL     1      -7.224  -1.628 128.938  0.00  0.00    +0.000 A 
ATOM      8  C   UNL     1      -6.824  -2.969 129.133  0.00  0.00    +0.000 A 
ATOM      9  C   UNL     1      -6.886  -3.569 130.391  0.00  0.00    +0.000 A 
ATOM     10  C   UNL     1      -7.372  -2.844 131.465  0.00  0.00    +0.000 A 
ATOM     11  F   UNL     1      -7.462  -3.424 132.668  0.00  0.00    +0.000 F 
ATOM     12  C   UNL     1      -7.760  -1.519 131.312  0.00  0.00    +0.000 A 
ATOM     13  C   UNL     1      -7.669  -0.888 130.059  0.00  0.00    +0.000 A 
ATOM     14  C   UNL     1      -8.045   0.567 129.959  0.00  0.00    +0.000 C 
ENDBRANCH   4   7
BRANCH   1  17
ATOM     15  N   UNL     1      -7.330   2.183 123.693  0.00  0.00    +0.000 N 
ATOM     16  C   UNL     1      -7.596   2.985 124.892  0.00  0.00    +0.000 C 
ATOM     17  C   UNL     1      -7.089   0.780 123.816  0.00  0.00    +0.000 C 
ATOM     18  O   UNL     1      -6.825   0.008 122.889  0.00  0.00    +0.000 OA
BRANCH  15  22
ATOM     19  C   UNL     1      -7.121   4.183 119.930  0.00  0.00    +0.000 A 
ATOM     20  C   UNL     1      -5.955   3.872 120.594  0.00  0.00    +0.000 A 
ATOM     21  C   UNL     1      -6.023   3.213 121.823  0.00  0.00    +0.000 A 
ATOM     22  C   UNL     1      -7.242   2.867 122.409  0.00  0.00    +0.000 A 
ATOM     23  C   UNL     1      -8.355   3.253 121.650  0.00  0.00    +0.000 A 
ATOM     24  N   UNL     1      -8.327   3.893 120.445  0.00  0.00    +0.000 NA
BRANCH  19  26
ATOM     25  C   UNL     1      -6.000   5.673 118.503  0.00  0.00    +0.000 C 
ATOM     26  O   UNL     1      -7.156   4.881 118.755  0.00  0.00    +0.000 OA
ENDBRANCH  19  26
ENDBRANCH  15  22
ENDBRANCH   1  17
TORSDOF 4
ENDMDL
MODEL 2
REMARK VINA RESULT:      -7.5      6.863     10.510
REMARK  Name = CHEMBL1093366
REMARK  7 active torsions:
REMARK  status: ('A' for Active; 'I' for Inactive)
REMARK    1  A    between atoms: C_1  and  O_2
REMARK    2  A    between atoms: O_2  and  C_3
REMARK    3  A    between atoms: C_6  and  N_7
REMARK    4  A    between atoms: N_7  and  C_8
REMARK    5  A    between atoms: C_9  and  C_11
REMARK    6  A    between atoms: C_14  and  C_15
REMARK    7  A    between atoms: C_21  and  C_22
REMARK                            x       y       z     vdW  Elec       q    Type
REMARK                         _______ _______ _______ _____ _____    ______ ____
ROOT
ATOM      1  C   UNL     1      -9.670   3.407 130.833  0.00  0.00    +0.000 A 
ATOM      2  C   UNL     1     -10.970   3.449 130.358  0.00  0.00    +0.000 A 
ATOM      3  N   UNL     1     -11.605   4.606 130.039  0.00  0.00    +0.000 NA
ATOM      4  C   UNL     1     -10.918   5.748 130.292  0.00  0.00    +0.000 A 
ATOM      5  C   UNL     1      -9.642   5.702 130.853  0.00  0.00    +0.000 A 
ATOM      6  N   UNL     1      -8.987   4.547 131.119  0.00  0.00    +0.000 NA
ENDROOT
BRANCH   4   7
ATOM      7  C   UNL     1     -11.556   7.015 129.912  0.00  0.00    +0.000 A 
ATOM      8  C   UNL     1     -12.396   7.658 130.847  0.00  0.00    +0.000 A 
ATOM      9  C   UNL     1     -13.060   8.844 130.531  0.00  0.00    +0.000 A 
ATOM     10  C   UNL     1     -12.911   9.387 129.267  0.00  0.00    +0.000 A 
ATOM     11  F   UNL     1     -13.571  10.508 128.947  0.00  0.00    +0.000 F 
ATOM     12  C   UNL     1     -12.081   8.789 128.328  0.00  0.00    +0.000 A 
ATOM     13  C   UNL     1     -11.376   7.615 128.643  0.00  0.00    +0.000 A 
ATOM     14  C   UNL     1     -10.442   7.039 127.611  0.00  0.00    +0.000 C 
ENDBRANCH   4   7
BRANCH   1  17
ATOM     15  N   UNL     1      -8.297   1.409 130.096  0.00  0.00    +0.000 N 
ATOM     16  C   UNL     1      -8.272   1.949 128.732  0.00  0.00    +0.000 C 
ATOM     17  C   UNL     1      -8.973   2.126 131.132  0.00  0.00    +0.000 C 
ATOM     18  O   UNL     1      -9.037   1.791 132.319  0.00  0.00    +0.000 OA
BRANCH  15  22
ATOM     19  C   UNL     1      -6.086  -2.151 130.896  0.00  0.00    +0.000 A 
ATOM     20  C   UNL     1      -7.436  -2.240 130.636  0.00  0.00    +0.000 A 
ATOM     21  C   UNL     1      -8.159  -1.075 130.369  0.00  0.00    +0.000 A 
ATOM     22  C   UNL     1      -7.556   0.184 130.369  0.00  0.00    +0.000 A 
ATOM     23  C   UNL     1      -6.188   0.148 130.666  0.00  0.00    +0.000 A 
ATOM     24  N   UNL     1      -5.448  -0.969 130.927  0.00  0.00    +0.000 NA
BRANCH  19  26
ATOM     25  C   UNL     1      -5.696  -4.448 130.607  0.00  0.00    +0.000 C 
ATOM     26  O   UNL     1      -5.311  -3.227 131.229  0.00  0.00    +0.000 OA
ENDBRANCH  19  26
ENDBRANCH  15  22
ENDBRANCH   1  17
TORSDOF 4
ENDMDL
MODEL 3
REMARK VINA RESULT:      -7.3      4.158      9.879
REMARK  Name = CHEMBL1093366
REMARK  7 active torsions:
REMARK  status: ('A' for Active; 'I' for Inactive)
REMARK    1  A    between atoms: C_1  and  O_2
REMARK    2  A    between atoms: O_2  and  C_3
REMARK    3  A    between atoms: C_6  and  N_7
REMARK    4  A    between atoms: N_7  and  C_8
REMARK    5  A    between atoms: C_9  and  C_11
REMARK    6  A    between atoms: C_14  and  C_15
REMARK    7  A    between atoms: C_21  and  C_22
REMARK                            x       y       z     vdW  Elec       q    Type
REMARK                         _______ _______ _______ _____ _____    ______ ____
ROOT
ATOM      1  C   UNL     1      -7.582   1.513 124.689  0.00  0.00    +0.000 A 
ATOM      2  C   UNL     1      -7.091   0.931 123.532  0.00  0.00    +0.000 A 
ATOM      3  N   UNL     1      -6.810   1.639 122.408  0.00  0.00    +0.000 NA
ATOM      4  C   UNL     1      -7.119   2.959 122.448  0.00  0.00    +0.000 A 
ATOM      5  C   UNL     1      -7.695   3.522 123.586  0.00  0.00    +0.000 A 
ATOM      6  N   UNL     1      -7.924   2.828 124.725  0.00  0.00    +0.000 NA
ENDROOT
BRANCH   4   7
ATOM      7  C   UNL     1      -6.780   3.764 121.267  0.00  0.00    +0.000 A 
ATOM      8  C   UNL     1      -7.720   3.853 120.216  0.00  0.00    +0.000 A 
ATOM      9  C   UNL     1      -7.441   4.571 119.053  0.00  0.00    +0.000 A 
ATOM     10  C   UNL     1      -6.210   5.188 118.916  0.00  0.00    +0.000 A 
ATOM     11  F   UNL     1      -5.925   5.853 117.789  0.00  0.00    +0.000 F 
ATOM     12  C   UNL     1      -5.268   5.133 119.935  0.00  0.00    +0.000 A 
ATOM     13  C   UNL     1      -5.548   4.445 121.129  0.00  0.00    +0.000 A 
ATOM     14  C   UNL     1      -4.518   4.466 122.229  0.00  0.00    +0.000 C 
ENDBRANCH   4   7
BRANCH   1  17
ATOM     15  N   UNL     1      -6.808   0.551 126.901  0.00  0.00    +0.000 N 
ATOM     16  C   UNL     1      -5.492   1.164 126.689  0.00  0.00    +0.000 C 
ATOM     17  C   UNL     1      -7.839   0.727 125.927  0.00  0.00    +0.000 C 
ATOM     18  O   UNL     1      -8.991   0.289 126.007  0.00  0.00    +0.000 OA
BRANCH  15  22
ATOM     19  C   UNL     1      -7.483  -1.574 130.538  0.00  0.00    +0.000 A 
ATOM     20  C   UNL     1      -7.968  -0.291 130.407  0.00  0.00    +0.000 A 
ATOM     21  C   UNL     1      -7.752   0.402 129.214  0.00  0.00    +0.000 A 
ATOM     22  C   UNL     1      -7.046  -0.161 128.150  0.00  0.00    +0.000 A 
ATOM     23  C   UNL     1      -6.585  -1.459 128.411  0.00  0.00    +0.000 A 
ATOM     24  N   UNL     1      -6.781  -2.169 129.560  0.00  0.00    +0.000 NA
BRANCH  19  26
ATOM     25  C   UNL     1      -7.568  -1.535 132.885  0.00  0.00    +0.000 C 
ATOM     26  O   UNL     1      -7.591  -2.305 131.689  0.00  0.00    +0.000 OA
ENDBRANCH  19  26
ENDBRANCH  15  22
ENDBRANCH   1  17
TORSDOF 4
ENDMDL
MODEL 4
REMARK VINA RESULT:      -7.1      7.390     10.534
REMARK  Name = CHEMBL1093366
REMARK  7 active torsions:
REMARK  status: ('A' for Active; 'I' for Inactive)
REMARK    1  A    between atoms: C_1  and  O_2
REMARK    2  A    between atoms: O_2  and  C_3
REMARK    3  A    between atoms: C_6  and  N_7
REMARK    4  A    between atoms: N_7  and  C_8
REMARK    5  A    between atoms: C_9  and  C_11
REMARK    6  A    between atoms: C_14  and  C_15
REMARK    7  A    between atoms: C_21  and  C_22
REMARK                            x       y       z     vdW  Elec       q    Type
REMARK                         _______ _______ _______ _____ _____    ______ ____
ROOT
ATOM      1  C   UNL     1      -4.149   4.757 127.658  0.00  0.00    +0.000 A 
ATOM      2  C   UNL     1      -3.494   3.843 126.848  0.00  0.00    +0.000 A 
ATOM      3  N   UNL     1      -3.893   3.556 125.583  0.00  0.00    +0.000 NA
ATOM      4  C   UNL     1      -5.036   4.160 125.171  0.00  0.00    +0.000 A 
ATOM      5  C   UNL     1      -5.739   5.012 126.022  0.00  0.00    +0.000 A 
ATOM      6  N   UNL     1      -5.311   5.341 127.264  0.00  0.00    +0.000 NA
ENDROOT
BRANCH   4   7
ATOM      7  C   UNL     1      -5.468   3.911 123.789  0.00  0.00    +0.000 A 
ATOM      8  C   UNL     1      -4.822   4.604 122.742  0.00  0.00    +0.000 A 
ATOM      9  C   UNL     1      -5.212   4.439 121.413  0.00  0.00    +0.000 A 
ATOM     10  C   UNL     1      -6.270   3.596 121.117  0.00  0.00    +0.000 A 
ATOM     11  F   UNL     1      -6.670   3.457 119.847  0.00  0.00    +0.000 F 
ATOM     12  C   UNL     1      -6.918   2.887 122.121  0.00  0.00    +0.000 A 
ATOM     13  C   UNL     1      -6.512   3.015 123.461  0.00  0.00    +0.000 A 
ATOM     14  C   UNL     1      -7.207   2.179 124.504  0.00  0.00    +0.000 C 
ENDBRANCH   4   7
BRANCH   1  17
ATOM     15  N   UNL     1      -2.827   6.230 129.240  0.00  0.00    +0.000 N 
ATOM     16  C   UNL     1      -2.450   7.082 128.106  0.00  0.00    +0.000 C 
ATOM     17  C   UNL     1      -3.668   5.094 129.026  0.00  0.00    +0.000 C 
ATOM     18  O   UNL     1      -4.077   4.324 129.899  0.00  0.00    +0.000 OA
BRANCH  15  22
ATOM     19  C   UNL     1      -1.588   7.401 133.150  0.00  0.00    +0.000 A 
ATOM     20  C   UNL     1      -0.763   6.599 132.394  0.00  0.00    +0.000 A 
ATOM     21  C   UNL     1      -1.166   6.220 131.111  0.00  0.00    +0.000 A 
ATOM     22  C   UNL     1      -2.390   6.621 130.574  0.00  0.00    +0.000 A 
ATOM     23  C   UNL     1      -3.148   7.415 131.444  0.00  0.00    +0.000 A 
ATOM     24  N   UNL     1      -2.785   7.810 132.699  0.00  0.00    +0.000 NA
BRANCH  19  26
ATOM     25  C   UNL     1      -2.264   7.343 135.398  0.00  0.00    +0.000 C 
ATOM     26  O   UNL     1      -1.306   7.771 134.436  0.00  0.00    +0.000 OA
ENDBRANCH  19  26
ENDBRANCH  15  22
ENDBRANCH   1  17
TORSDOF 4
ENDMDL
MODEL 5
REMARK VINA RESULT:      -7.1      7.365     10.929
REMARK  Name = CHEMBL1093366
REMARK  7 active torsions:
REMARK  status: ('A' for Active; 'I' for Inactive)
REMARK    1  A    between atoms: C_1  and  O_2
REMARK    2  A    between atoms: O_2  and  C_3
REMARK    3  A    between atoms: C_6  and  N_7
REMARK    4  A    between atoms: N_7  and  C_8
REMARK    5  A    between atoms: C_9  and  C_11
REMARK    6  A    between atoms: C_14  and  C_15
REMARK    7  A    between atoms: C_21  and  C_22
REMARK                            x       y       z     vdW  Elec       q    Type
REMARK                         _______ _______ _______ _____ _____    ______ ____
ROOT
ATOM      1  C   UNL     1      -9.270   3.272 130.315  0.00  0.00    +0.000 A 
ATOM      2  C   UNL     1     -10.653   3.280 130.390  0.00  0.00    +0.000 A 
ATOM      3  N   UNL     1     -11.402   4.382 130.132  0.00  0.00    +0.000 NA
ATOM      4  C   UNL     1     -10.711   5.519 129.872  0.00  0.00    +0.000 A 
ATOM      5  C   UNL     1      -9.317   5.526 129.884  0.00  0.00    +0.000 A 
ATOM      6  N   UNL     1      -8.570   4.415 130.087  0.00  0.00    +0.000 NA
ENDROOT
BRANCH   4   7
ATOM      7  C   UNL     1     -11.492   6.718 129.538  0.00  0.00    +0.000 A 
ATOM      8  C   UNL     1     -11.554   7.132 128.189  0.00  0.00    +0.000 A 
ATOM      9  C   UNL     1     -12.248   8.284 127.814  0.00  0.00    +0.000 A 
ATOM     10  C   UNL     1     -12.867   9.048 128.787  0.00  0.00    +0.000 A 
ATOM     11  F   UNL     1     -13.508  10.171 128.438  0.00  0.00    +0.000 F 
ATOM     12  C   UNL     1     -12.839   8.662 130.121  0.00  0.00    +0.000 A 
ATOM     13  C   UNL     1     -12.176   7.485 130.511  0.00  0.00    +0.000 A 
ATOM     14  C   UNL     1     -12.225   7.078 131.960  0.00  0.00    +0.000 C 
ENDBRANCH   4   7
BRANCH   1  17
ATOM     15  N   UNL     1      -8.125   1.647 131.886  0.00  0.00    +0.000 N 
ATOM     16  C   UNL     1      -8.586   2.449 133.026  0.00  0.00    +0.000 C 
ATOM     17  C   UNL     1      -8.467   2.041 130.556  0.00  0.00    +0.000 C 
ATOM     18  O   UNL     1      -8.166   1.436 129.523  0.00  0.00    +0.000 OA
BRANCH  15  22
ATOM     19  C   UNL     1      -5.937  -1.930 132.673  0.00  0.00    +0.000 A 
ATOM     20  C   UNL     1      -7.314  -1.972 132.657  0.00  0.00    +0.000 A 
ATOM     21  C   UNL     1      -8.030  -0.802 132.394  0.00  0.00    +0.000 A 
ATOM     22  C   UNL     1      -7.392   0.417 132.158  0.00  0.00    +0.000 A 
ATOM     23  C   UNL     1      -5.995   0.337 132.221  0.00  0.00    +0.000 A 
ATOM     24  N   UNL     1      -5.261  -0.787 132.470  0.00  0.00    +0.000 NA
BRANCH  19  26
ATOM     25  C   UNL     1      -3.894  -2.679 133.555  0.00  0.00    +0.000 C 
ATOM     26  O   UNL     1      -5.155  -3.008 132.982  0.00  0.00    +0.000 OA
ENDBRANCH  19  26
ENDBRANCH  15  22
ENDBRANCH   1  17
TORSDOF 4
ENDMDL
MODEL 6
REMARK VINA RESULT:      -6.9      6.385      7.242
REMARK  Name = CHEMBL1093366
REMARK  7 active torsions:
REMARK  status: ('A' for Active; 'I' for Inactive)
REMARK    1  A    between atoms: C_1  and  O_2
REMARK    2  A    between atoms: O_2  and  C_3
REMARK    3  A    between atoms: C_6  and  N_7
REMARK    4  A    between atoms: N_7  and  C_8
REMARK    5  A    between atoms: C_9  and  C_11
REMARK    6  A    between atoms: C_14  and  C_15
REMARK    7  A    between atoms: C_21  and  C_22
REMARK                            x       y       z     vdW  Elec       q    Type
REMARK                         _______ _______ _______ _____ _____    ______ ____
ROOT
ATOM      1  C   UNL     1      -8.244   1.232 130.424  0.00  0.00    +0.000 A 
ATOM      2  C   UNL     1      -6.939   0.930 130.070  0.00  0.00    +0.000 A 
ATOM      3  N   UNL     1      -6.323  -0.225 130.429  0.00  0.00    +0.000 NA
ATOM      4  C   UNL     1      -7.034  -1.048 131.238  0.00  0.00    +0.000 A 
ATOM      5  C   UNL     1      -8.315  -0.698 131.663  0.00  0.00    +0.000 A 
ATOM      6  N   UNL     1      -8.951   0.427 131.261  0.00  0.00    +0.000 NA
ENDROOT
BRANCH   4   7
ATOM      7  C   UNL     1      -6.416  -2.330 131.604  0.00  0.00    +0.000 A 
ATOM      8  C   UNL     1      -5.726  -2.423 132.833  0.00  0.00    +0.000 A 
ATOM      9  C   UNL     1      -5.086  -3.601 133.219  0.00  0.00    +0.000 A 
ATOM     10  C   UNL     1      -5.107  -4.693 132.368  0.00  0.00    +0.000 A 
ATOM     11  F   UNL     1      -4.468  -5.817 132.718  0.00  0.00    +0.000 F 
ATOM     12  C   UNL     1      -5.788  -4.641 131.158  0.00  0.00    +0.000 A 
ATOM     13  C   UNL     1      -6.469  -3.473 130.772  0.00  0.00    +0.000 A 
ATOM     14  C   UNL     1      -7.244  -3.487 129.480  0.00  0.00    +0.000 C 
ENDBRANCH   4   7
BRANCH   1  17
ATOM     15  N   UNL     1      -9.101   3.570 130.890  0.00  0.00    +0.000 N 
ATOM     16  C   UNL     1      -8.600   3.463 132.265  0.00  0.00    +0.000 C 
ATOM     17  C   UNL     1      -8.920   2.482 129.981  0.00  0.00    +0.000 C 
ATOM     18  O   UNL     1      -9.268   2.465 128.796  0.00  0.00    +0.000 OA
BRANCH  15  22
ATOM     19  C   UNL     1     -10.823   7.274 129.657  0.00  0.00    +0.000 A 
ATOM     20  C   UNL     1     -11.650   6.231 130.012  0.00  0.00    +0.000 A 
ATOM     21  C   UNL     1     -11.086   5.020 130.421  0.00  0.00    +0.000 A 
ATOM     22  C   UNL     1      -9.705   4.829 130.470  0.00  0.00    +0.000 A 
ATOM     23  C   UNL     1      -8.971   5.952 130.067  0.00  0.00    +0.000 A 
ATOM     24  N   UNL     1      -9.485   7.151 129.667  0.00  0.00    +0.000 NA
BRANCH  19  26
ATOM     25  C   UNL     1     -12.620   8.782 129.560  0.00  0.00    +0.000 C 
ATOM     26  O   UNL     1     -11.283   8.473 129.186  0.00  0.00    +0.000 OA
ENDBRANCH  19  26
ENDBRANCH  15  22
ENDBRANCH   1  17
TORSDOF 4
ENDMDL
MODEL 7
REMARK VINA RESULT:      -6.9      6.111      7.543
REMARK  Name = CHEMBL1093366
REMARK  7 active torsions:
REMARK  status: ('A' for Active; 'I' for Inactive)
REMARK    1  A    between atoms: C_1  and  O_2
REMARK    2  A    between atoms: O_2  and  C_3
REMARK    3  A    between atoms: C_6  and  N_7
REMARK    4  A    between atoms: N_7  and  C_8
REMARK    5  A    between atoms: C_9  and  C_11
REMARK    6  A    between atoms: C_14  and  C_15
REMARK    7  A    between atoms: C_21  and  C_22
REMARK                            x       y       z     vdW  Elec       q    Type
REMARK                         _______ _______ _______ _____ _____    ______ ____
ROOT
ATOM      1  C   UNL     1      -9.006   2.310 130.162  0.00  0.00    +0.000 A 
ATOM      2  C   UNL     1      -8.643   1.615 131.304  0.00  0.00    +0.000 A 
ATOM      3  N   UNL     1      -7.749   0.594 131.297  0.00  0.00    +0.000 NA
ATOM      4  C   UNL     1      -7.282   0.225 130.078  0.00  0.00    +0.000 A 
ATOM      5  C   UNL     1      -7.718   0.871 128.922  0.00  0.00    +0.000 A 
ATOM      6  N   UNL     1      -8.567   1.925 128.935  0.00  0.00    +0.000 NA
ENDROOT
BRANCH   4   7
ATOM      7  C   UNL     1      -6.275  -0.844 130.040  0.00  0.00    +0.000 A 
ATOM      8  C   UNL     1      -4.916  -0.501 130.222  0.00  0.00    +0.000 A 
ATOM      9  C   UNL     1      -3.910  -1.466 130.158  0.00  0.00    +0.000 A 
ATOM     10  C   UNL     1      -4.248  -2.780 129.887  0.00  0.00    +0.000 A 
ATOM     11  F   UNL     1      -3.284  -3.705 129.794  0.00  0.00    +0.000 F 
ATOM     12  C   UNL     1      -5.574  -3.155 129.717  0.00  0.00    +0.000 A 
ATOM     13  C   UNL     1      -6.603  -2.201 129.815  0.00  0.00    +0.000 A 
ATOM     14  C   UNL     1      -8.030  -2.668 129.684  0.00  0.00    +0.000 C 
ENDBRANCH   4   7
BRANCH   1  17
ATOM     15  N   UNL     1      -9.462   4.800 130.245  0.00  0.00    +0.000 N 
ATOM     16  C   UNL     1      -8.016   5.049 130.240  0.00  0.00    +0.000 C 
ATOM     17  C   UNL     1      -9.952   3.459 130.197  0.00  0.00    +0.000 C 
ATOM     18  O   UNL     1     -11.140   3.125 130.165  0.00  0.00    +0.000 OA
BRANCH  15  22
ATOM     19  C   UNL     1     -12.068   8.176 130.133  0.00  0.00    +0.000 A 
ATOM     20  C   UNL     1     -12.242   7.223 131.112  0.00  0.00    +0.000 A 
ATOM     21  C   UNL     1     -11.386   6.120 131.152  0.00  0.00    +0.000 A 
ATOM     22  C   UNL     1     -10.361   5.947 130.220  0.00  0.00    +0.000 A 
ATOM     23  C   UNL     1     -10.297   6.970 129.264  0.00  0.00    +0.000 A 
ATOM     24  N   UNL     1     -11.112   8.063 129.197  0.00  0.00    +0.000 NA
BRANCH  19  26
ATOM     25  C   UNL     1     -13.357   9.458 128.647  0.00  0.00    +0.000 C 
ATOM     26  O   UNL     1     -12.894   9.255 129.977  0.00  0.00    +0.000 OA
ENDBRANCH  19  26
ENDBRANCH  15  22
ENDBRANCH   1  17
TORSDOF 4
ENDMDL
MODEL 8
REMARK VINA RESULT:      -6.9      6.443      7.888
REMARK  Name = CHEMBL1093366
REMARK  7 active torsions:
REMARK  status: ('A' for Active; 'I' for Inactive)
REMARK    1  A    between atoms: C_1  and  O_2
REMARK    2  A    between atoms: O_2  and  C_3
REMARK    3  A    between atoms: C_6  and  N_7
REMARK    4  A    between atoms: N_7  and  C_8
REMARK    5  A    between atoms: C_9  and  C_11
REMARK    6  A    between atoms: C_14  and  C_15
REMARK    7  A    between atoms: C_21  and  C_22
REMARK                            x       y       z     vdW  Elec       q    Type
REMARK                         _______ _______ _______ _____ _____    ______ ____
ROOT
ATOM      1  C   UNL     1      -9.133   3.330 130.542  0.00  0.00    +0.000 A 
ATOM      2  C   UNL     1      -8.450   2.701 129.513  0.00  0.00    +0.000 A 
ATOM      3  N   UNL     1      -7.555   1.702 129.722  0.00  0.00    +0.000 NA
ATOM      4  C   UNL     1      -7.294   1.402 131.018  0.00  0.00    +0.000 A 
ATOM      5  C   UNL     1      -7.919   2.099 132.051  0.00  0.00    +0.000 A 
ATOM      6  N   UNL     1      -8.853   3.057 131.843  0.00  0.00    +0.000 NA
ENDROOT
BRANCH   4   7
ATOM      7  C   UNL     1      -6.368   0.292 131.278  0.00  0.00    +0.000 A 
ATOM      8  C   UNL     1      -6.893  -1.014 131.402  0.00  0.00    +0.000 A 
ATOM      9  C   UNL     1      -6.068  -2.103 131.686  0.00  0.00    +0.000 A 
ATOM     10  C   UNL     1      -4.713  -1.896 131.874  0.00  0.00    +0.000 A 
ATOM     11  F   UNL     1      -3.921  -2.933 132.177  0.00  0.00    +0.000 F 
ATOM     12  C   UNL     1      -4.161  -0.628 131.744  0.00  0.00    +0.000 A 
ATOM     13  C   UNL     1      -4.972   0.474 131.421  0.00  0.00    +0.000 A 
ATOM     14  C   UNL     1      -4.317   1.817 131.232  0.00  0.00    +0.000 C 
ENDBRANCH   4   7
BRANCH   1  17
ATOM     15  N   UNL     1      -9.780   5.771 130.340  0.00  0.00    +0.000 N 
ATOM     16  C   UNL     1      -8.389   6.147 130.620  0.00  0.00    +0.000 C 
ATOM     17  C   UNL     1     -10.147   4.391 130.291  0.00  0.00    +0.000 C 
ATOM     18  O   UNL     1     -11.272   3.951 130.036  0.00  0.00    +0.000 OA
BRANCH  15  22
ATOM     19  C   UNL     1     -12.549   8.886 129.427  0.00  0.00    +0.000 A 
ATOM     20  C   UNL     1     -12.773   8.086 130.526  0.00  0.00    +0.000 A 
ATOM     21  C   UNL     1     -11.864   7.069 130.828  0.00  0.00    +0.000 A 
ATOM     22  C   UNL     1     -10.736   6.830 130.041  0.00  0.00    +0.000 A 
ATOM     23  C   UNL     1     -10.628   7.694 128.943  0.00  0.00    +0.000 A 
ATOM     24  N   UNL     1     -11.492   8.700 128.619  0.00  0.00    +0.000 NA
BRANCH  19  26
ATOM     25  C   UNL     1     -13.503  10.980 129.896  0.00  0.00    +0.000 C 
ATOM     26  O   UNL     1     -13.414   9.863 129.018  0.00  0.00    +0.000 OA
ENDBRANCH  19  26
ENDBRANCH  15  22
ENDBRANCH   1  17
TORSDOF 4
ENDMDL
MODEL 9
REMARK VINA RESULT:      -6.8      5.670     10.149
REMARK  Name = CHEMBL1093366
REMARK  7 active torsions:
REMARK  status: ('A' for Active; 'I' for Inactive)
REMARK    1  A    between atoms: C_1  and  O_2
REMARK    2  A    between atoms: O_2  and  C_3
REMARK    3  A    between atoms: C_6  and  N_7
REMARK    4  A    between atoms: N_7  and  C_8
REMARK    5  A    between atoms: C_9  and  C_11
REMARK    6  A    between atoms: C_14  and  C_15
REMARK    7  A    between atoms: C_21  and  C_22
REMARK                            x       y       z     vdW  Elec       q    Type
REMARK                         _______ _______ _______ _____ _____    ______ ____
ROOT
ATOM      1  C   UNL     1      -5.711   3.595 126.758  0.00  0.00    +0.000 A 
ATOM      2  C   UNL     1      -5.795   2.470 125.953  0.00  0.00    +0.000 A 
ATOM      3  N   UNL     1      -5.977   2.533 124.609  0.00  0.00    +0.000 NA
ATOM      4  C   UNL     1      -6.160   3.775 124.095  0.00  0.00    +0.000 A 
ATOM      5  C   UNL     1      -6.162   4.897 124.923  0.00  0.00    +0.000 A 
ATOM      6  N   UNL     1      -5.925   4.839 126.254  0.00  0.00    +0.000 NA
ENDROOT
BRANCH   4   7
ATOM      7  C   UNL     1      -6.309   3.883 122.637  0.00  0.00    +0.000 A 
ATOM      8  C   UNL     1      -5.232   4.397 121.882  0.00  0.00    +0.000 A 
ATOM      9  C   UNL     1      -5.327   4.559 120.500  0.00  0.00    +0.000 A 
ATOM     10  C   UNL     1      -6.510   4.232 119.859  0.00  0.00    +0.000 A 
ATOM     11  F   UNL     1      -6.618   4.415 118.537  0.00  0.00    +0.000 F 
ATOM     12  C   UNL     1      -7.584   3.710 120.568  0.00  0.00    +0.000 A 
ATOM     13  C   UNL     1      -7.491   3.506 121.956  0.00  0.00    +0.000 A 
ATOM     14  C   UNL     1      -8.661   2.881 122.670  0.00  0.00    +0.000 C 
ENDBRANCH   4   7
BRANCH   1  17
ATOM     15  N   UNL     1      -4.133   3.360 128.726  0.00  0.00    +0.000 N 
ATOM     16  C   UNL     1      -3.002   3.315 127.793  0.00  0.00    +0.000 C 
ATOM     17  C   UNL     1      -5.463   3.507 128.223  0.00  0.00    +0.000 C 
ATOM     18  O   UNL     1      -6.489   3.588 128.906  0.00  0.00    +0.000 OA
BRANCH  15  22
ATOM     19  C   UNL     1      -3.333   3.234 132.915  0.00  0.00    +0.000 A 
ATOM     20  C   UNL     1      -2.977   4.353 132.194  0.00  0.00    +0.000 A 
ATOM     21  C   UNL     1      -3.244   4.397 130.824  0.00  0.00    +0.000 A 
ATOM     22  C   UNL     1      -3.852   3.332 130.156  0.00  0.00    +0.000 A 
ATOM     23  C   UNL     1      -4.148   2.246 130.990  0.00  0.00    +0.000 A 
ATOM     24  N   UNL     1      -3.907   2.169 132.331  0.00  0.00    +0.000 NA
BRANCH  19  26
ATOM     25  C   UNL     1      -4.202   3.053 135.088  0.00  0.00    +0.000 C 
ATOM     26  O   UNL     1      -3.056   3.076 134.245  0.00  0.00    +0.000 OA
ENDBRANCH  19  26
ENDBRANCH  15  22
ENDBRANCH   1  17
TORSDOF 4
ENDMDL
