MODEL 1
REMARK VINA RESULT:      -8.3      0.000      0.000
REMARK  Name = CHEMBL475561
REMARK  7 active torsions:
REMARK  status: ('A' for Active; 'I' for Inactive)
REMARK    1  A    between atoms: C_2  and  C_3
REMARK    2  A    between atoms: C_8  and  C_9
REMARK    3  A    between atoms: C_12  and  C_13
REMARK    4  A    between atoms: N_15  and  C_16
REMARK    5  A    between atoms: N_15  and  C_20
REMARK    6  A    between atoms: C_16  and  C_17
REMARK    7  A    between atoms: C_20  and  C_21
REMARK                            x       y       z     vdW  Elec       q    Type
REMARK                         _______ _______ _______ _____ _____    ______ ____
ROOT
ATOM      1  C   UNL     1      -6.838  -3.372 129.634  0.00  0.00    +0.000 A 
ATOM      2  C   UNL     1      -6.340  -2.305 128.870  0.00  0.00    +0.000 A 
ATOM      3  C   UNL     1      -6.961  -1.883 127.649  0.00  0.00    +0.000 A 
ATOM      4  C   UNL     1      -8.073  -2.535 127.170  0.00  0.00    +0.000 A 
ATOM      5  C   UNL     1      -8.643  -3.243 128.177  0.00  0.00    +0.000 A 
ATOM      6  C   UNL     1      -8.031  -3.876 129.243  0.00  0.00    +0.000 A 
ENDROOT
BRANCH   1  12
ATOM      7  C   UNL     1      -6.675  -3.035 132.117  0.00  0.00    +0.000 A 
ATOM      8  C   UNL     1      -6.146  -3.447 133.341  0.00  0.00    +0.000 A 
ATOM      9  C   UNL     1      -5.361  -4.603 133.403  0.00  0.00    +0.000 A 
ATOM     10  C   UNL     1      -5.038  -5.312 132.247  0.00  0.00    +0.000 A 
ATOM     11  C   UNL     1      -5.525  -4.881 131.024  0.00  0.00    +0.000 A 
ATOM     12  C   UNL     1      -6.405  -3.790 130.956  0.00  0.00    +0.000 A 
BRANCH   7  14
ATOM     13  N   UNL     1      -8.162  -0.909 131.995  0.00  0.00    +0.000 NA
ATOM     14  C   UNL     1      -7.495  -1.839 132.056  0.00  0.00    +0.000 C 
ENDBRANCH   7  14
ENDBRANCH   1  12
BRANCH   4  15
ATOM     15  C   UNL     1      -8.769  -2.377 125.813  0.00  0.00    +0.000 C 
ATOM     16  O   UNL     1      -9.760  -1.640 125.817  0.00  0.00    +0.000 OA
ATOM     17  N   UNL     1      -8.305  -2.955 124.573  0.00  0.00    +0.000 N 
BRANCH  17  18
ATOM     18  C   UNL     1      -7.143  -3.811 124.283  0.00  0.00    +0.000 C 
BRANCH  18  19
ATOM     19  C   UNL     1      -5.806  -3.291 124.218  0.00  0.00    +0.000 C 
ATOM     20  C   UNL     1      -4.775  -4.447 123.862  0.00  0.00    +0.000 C 
ATOM     21  C   UNL     1      -4.565  -3.074 123.387  0.00  0.00    +0.000 C 
ENDBRANCH  18  19
ENDBRANCH  17  18
BRANCH  17  22
ATOM     22  C   UNL     1      -9.081  -2.653 123.322  0.00  0.00    +0.000 C 
BRANCH  22  23
ATOM     23  C   UNL     1      -8.932  -1.215 122.632  0.00  0.00    +0.000 C 
ATOM     24  C   UNL     1      -7.833  -0.358 123.244  0.00  0.00    +0.000 C 
ATOM     25  C   UNL     1      -8.408   1.051 123.237  0.00  0.00    +0.000 C 
ATOM     26  C   UNL     1      -9.870   0.819 123.417  0.00  0.00    +0.000 C 
ATOM     27  O   UNL     1     -10.081  -0.337 122.606  0.00  0.00    +0.000 OA
ENDBRANCH  22  23
ENDBRANCH  17  22
ENDBRANCH   4  15
TORSDOF 7
ENDMDL
MODEL 2
REMARK VINA RESULT:      -7.9      1.962      3.210
REMARK  Name = CHEMBL475561
REMARK  7 active torsions:
REMARK  status: ('A' for Active; 'I' for Inactive)
REMARK    1  A    between atoms: C_2  and  C_3
REMARK    2  A    between atoms: C_8  and  C_9
REMARK    3  A    between atoms: C_12  and  C_13
REMARK    4  A    between atoms: N_15  and  C_16
REMARK    5  A    between atoms: N_15  and  C_20
REMARK    6  A    between atoms: C_16  and  C_17
REMARK    7  A    between atoms: C_20  and  C_21
REMARK                            x       y       z     vdW  Elec       q    Type
REMARK                         _______ _______ _______ _____ _____    ______ ____
ROOT
ATOM      1  C   UNL     1      -7.385  -3.100 129.153  0.00  0.00    +0.000 A 
ATOM      2  C   UNL     1      -8.503  -3.615 128.477  0.00  0.00    +0.000 A 
ATOM      3  C   UNL     1      -8.875  -3.170 127.166  0.00  0.00    +0.000 A 
ATOM      4  C   UNL     1      -8.148  -2.194 126.527  0.00  0.00    +0.000 A 
ATOM      5  C   UNL     1      -6.927  -2.096 127.108  0.00  0.00    +0.000 A 
ATOM      6  C   UNL     1      -6.583  -2.281 128.436  0.00  0.00    +0.000 A 
ENDROOT
BRANCH   1  12
ATOM      7  C   UNL     1      -6.921  -2.855 131.609  0.00  0.00    +0.000 A 
ATOM      8  C   UNL     1      -6.263  -3.321 132.746  0.00  0.00    +0.000 A 
ATOM      9  C   UNL     1      -5.505  -4.495 132.677  0.00  0.00    +0.000 A 
ATOM     10  C   UNL     1      -5.339  -5.169 131.469  0.00  0.00    +0.000 A 
ATOM     11  C   UNL     1      -5.956  -4.685 130.327  0.00  0.00    +0.000 A 
ATOM     12  C   UNL     1      -6.810  -3.575 130.400  0.00  0.00    +0.000 A 
BRANCH   7  14
ATOM     13  N   UNL     1      -8.333  -0.677 131.718  0.00  0.00    +0.000 NA
ATOM     14  C   UNL     1      -7.713  -1.641 131.684  0.00  0.00    +0.000 C 
ENDBRANCH   7  14
ENDBRANCH   1  12
BRANCH   4  15
ATOM     15  C   UNL     1      -8.476  -1.447 125.229  0.00  0.00    +0.000 C 
ATOM     16  O   UNL     1      -8.304  -2.098 124.194  0.00  0.00    +0.000 OA
ATOM     17  N   UNL     1      -9.020  -0.111 125.158  0.00  0.00    +0.000 N 
BRANCH  17  18
ATOM     18  C   UNL     1      -9.366   0.848 126.220  0.00  0.00    +0.000 C 
BRANCH  18  19
ATOM     19  C   UNL     1      -8.366   1.564 126.960  0.00  0.00    +0.000 C 
ATOM     20  C   UNL     1      -8.314   1.056 128.465  0.00  0.00    +0.000 C 
ATOM     21  C   UNL     1      -7.097   1.499 127.775  0.00  0.00    +0.000 C 
ENDBRANCH  18  19
ENDBRANCH  17  18
BRANCH  17  22
ATOM     22  C   UNL     1      -9.333   0.450 123.800  0.00  0.00    +0.000 C 
BRANCH  22  23
ATOM     23  C   UNL     1      -8.400   1.602 123.191  0.00  0.00    +0.000 C 
ATOM     24  C   UNL     1      -6.946   1.501 123.627  0.00  0.00    +0.000 C 
ATOM     25  C   UNL     1      -6.513   2.946 123.828  0.00  0.00    +0.000 C 
ATOM     26  C   UNL     1      -7.768   3.614 124.279  0.00  0.00    +0.000 C 
ATOM     27  O   UNL     1      -8.745   2.983 123.452  0.00  0.00    +0.000 OA
ENDBRANCH  22  23
ENDBRANCH  17  22
ENDBRANCH   4  15
TORSDOF 7
ENDMDL
MODEL 3
REMARK VINA RESULT:      -7.8      1.629      2.258
REMARK  Name = CHEMBL475561
REMARK  7 active torsions:
REMARK  status: ('A' for Active; 'I' for Inactive)
REMARK    1  A    between atoms: C_2  and  C_3
REMARK    2  A    between atoms: C_8  and  C_9
REMARK    3  A    between atoms: C_12  and  C_13
REMARK    4  A    between atoms: N_15  and  C_16
REMARK    5  A    between atoms: N_15  and  C_20
REMARK    6  A    between atoms: C_16  and  C_17
REMARK    7  A    between atoms: C_20  and  C_21
REMARK                            x       y       z     vdW  Elec       q    Type
REMARK                         _______ _______ _______ _____ _____    ______ ____
ROOT
ATOM      1  C   UNL     1      -7.469  -2.899 129.305  0.00  0.00    +0.000 A 
ATOM      2  C   UNL     1      -8.332  -3.540 128.402  0.00  0.00    +0.000 A 
ATOM      3  C   UNL     1      -8.708  -2.947 127.152  0.00  0.00    +0.000 A 
ATOM      4  C   UNL     1      -8.245  -1.701 126.803  0.00  0.00    +0.000 A 
ATOM      5  C   UNL     1      -7.156  -1.404 127.554  0.00  0.00    +0.000 A 
ATOM      6  C   UNL     1      -6.883  -1.763 128.862  0.00  0.00    +0.000 A 
ENDROOT
BRANCH   1  12
ATOM      7  C   UNL     1      -6.994  -2.814 131.770  0.00  0.00    +0.000 A 
ATOM      8  C   UNL     1      -6.327  -3.351 132.871  0.00  0.00    +0.000 A 
ATOM      9  C   UNL     1      -5.564  -4.515 132.720  0.00  0.00    +0.000 A 
ATOM     10  C   UNL     1      -5.401  -5.106 131.469  0.00  0.00    +0.000 A 
ATOM     11  C   UNL     1      -6.026  -4.551 130.364  0.00  0.00    +0.000 A 
ATOM     12  C   UNL     1      -6.886  -3.452 130.515  0.00  0.00    +0.000 A 
BRANCH   7  14
ATOM     13  N   UNL     1      -8.441  -0.675 132.045  0.00  0.00    +0.000 NA
ATOM     14  C   UNL     1      -7.791  -1.612 131.929  0.00  0.00    +0.000 C 
ENDBRANCH   7  14
ENDBRANCH   1  12
BRANCH   4  15
ATOM     15  C   UNL     1      -8.667  -0.815 125.626  0.00  0.00    +0.000 C 
ATOM     16  O   UNL     1      -9.811  -0.354 125.703  0.00  0.00    +0.000 OA
ATOM     17  N   UNL     1      -7.815  -0.446 124.520  0.00  0.00    +0.000 N 
BRANCH  17  18
ATOM     18  C   UNL     1      -6.420  -0.803 124.216  0.00  0.00    +0.000 C 
BRANCH  18  19
ATOM     19  C   UNL     1      -5.998  -2.165 124.045  0.00  0.00    +0.000 C 
ATOM     20  C   UNL     1      -5.644  -2.452 122.522  0.00  0.00    +0.000 C 
ATOM     21  C   UNL     1      -4.908  -3.112 123.606  0.00  0.00    +0.000 C 
ENDBRANCH  18  19
ENDBRANCH  17  18
BRANCH  17  22
ATOM     22  C   UNL     1      -8.376   0.478 123.476  0.00  0.00    +0.000 C 
BRANCH  22  23
ATOM     23  C   UNL     1      -8.046   2.045 123.554  0.00  0.00    +0.000 C 
ATOM     24  C   UNL     1      -6.942   2.481 122.602  0.00  0.00    +0.000 C 
ATOM     25  C   UNL     1      -6.157   3.520 123.390  0.00  0.00    +0.000 C 
ATOM     26  C   UNL     1      -6.292   3.048 124.798  0.00  0.00    +0.000 C 
ATOM     27  O   UNL     1      -7.650   2.607 124.826  0.00  0.00    +0.000 OA
ENDBRANCH  22  23
ENDBRANCH  17  22
ENDBRANCH   4  15
TORSDOF 7
ENDMDL
MODEL 4
REMARK VINA RESULT:      -7.7      6.276      8.207
REMARK  Name = CHEMBL475561
REMARK  7 active torsions:
REMARK  status: ('A' for Active; 'I' for Inactive)
REMARK    1  A    between atoms: C_2  and  C_3
REMARK    2  A    between atoms: C_8  and  C_9
REMARK    3  A    between atoms: C_12  and  C_13
REMARK    4  A    between atoms: N_15  and  C_16
REMARK    5  A    between atoms: N_15  and  C_20
REMARK    6  A    between atoms: C_16  and  C_17
REMARK    7  A    between atoms: C_20  and  C_21
REMARK                            x       y       z     vdW  Elec       q    Type
REMARK                         _______ _______ _______ _____ _____    ______ ____
ROOT
ATOM      1  C   UNL     1      -8.321   0.186 130.948  0.00  0.00    +0.000 A 
ATOM      2  C   UNL     1      -7.799   1.266 130.220  0.00  0.00    +0.000 A 
ATOM      3  C   UNL     1      -8.458   2.537 130.157  0.00  0.00    +0.000 A 
ATOM      4  C   UNL     1      -9.655   2.735 130.803  0.00  0.00    +0.000 A 
ATOM      5  C   UNL     1      -9.815   1.775 131.748  0.00  0.00    +0.000 A 
ATOM      6  C   UNL     1      -9.397   0.457 131.722  0.00  0.00    +0.000 A 
ENDROOT
BRANCH   1  12
ATOM      7  C   UNL     1      -6.822  -1.282 132.329  0.00  0.00    +0.000 A 
ATOM      8  C   UNL     1      -6.165  -2.502 132.480  0.00  0.00    +0.000 A 
ATOM      9  C   UNL     1      -6.363  -3.518 131.538  0.00  0.00    +0.000 A 
ATOM     10  C   UNL     1      -7.156  -3.305 130.412  0.00  0.00    +0.000 A 
ATOM     11  C   UNL     1      -7.776  -2.079 130.236  0.00  0.00    +0.000 A 
ATOM     12  C   UNL     1      -7.679  -1.088 131.225  0.00  0.00    +0.000 A 
BRANCH   7  14
ATOM     13  N   UNL     1      -6.484   0.609 134.078  0.00  0.00    +0.000 NA
ATOM     14  C   UNL     1      -6.621  -0.231 133.310  0.00  0.00    +0.000 C 
ENDBRANCH   7  14
ENDBRANCH   1  12
BRANCH   4  15
ATOM     15  C   UNL     1     -10.611   3.930 130.711  0.00  0.00    +0.000 C 
ATOM     16  O   UNL     1     -11.628   3.735 130.039  0.00  0.00    +0.000 OA
ATOM     17  N   UNL     1     -10.431   5.188 131.397  0.00  0.00    +0.000 N 
BRANCH  17  18
ATOM     18  C   UNL     1      -9.357   5.656 132.289  0.00  0.00    +0.000 C 
BRANCH  18  19
ATOM     19  C   UNL     1      -8.269   6.466 131.817  0.00  0.00    +0.000 C 
ATOM     20  C   UNL     1      -6.880   5.893 132.338  0.00  0.00    +0.000 C 
ATOM     21  C   UNL     1      -6.987   6.536 131.022  0.00  0.00    +0.000 C 
ENDBRANCH  18  19
ENDBRANCH  17  18
BRANCH  17  22
ATOM     22  C   UNL     1     -11.496   6.236 131.238  0.00  0.00    +0.000 C 
BRANCH  22  23
ATOM     23  C   UNL     1     -11.845   6.785 129.773  0.00  0.00    +0.000 C 
ATOM     24  C   UNL     1     -10.673   7.469 129.085  0.00  0.00    +0.000 C 
ATOM     25  C   UNL     1     -11.304   8.640 128.346  0.00  0.00    +0.000 C 
ATOM     26  C   UNL     1     -12.453   9.011 129.220  0.00  0.00    +0.000 C 
ATOM     27  O   UNL     1     -12.931   7.730 129.629  0.00  0.00    +0.000 OA
ENDBRANCH  22  23
ENDBRANCH  17  22
ENDBRANCH   4  15
TORSDOF 7
ENDMDL
MODEL 5
REMARK VINA RESULT:      -7.6      9.002     11.901
REMARK  Name = CHEMBL475561
REMARK  7 active torsions:
REMARK  status: ('A' for Active; 'I' for Inactive)
REMARK    1  A    between atoms: C_2  and  C_3
REMARK    2  A    between atoms: C_8  and  C_9
REMARK    3  A    between atoms: C_12  and  C_13
REMARK    4  A    between atoms: N_15  and  C_16
REMARK    5  A    between atoms: N_15  and  C_20
REMARK    6  A    between atoms: C_16  and  C_17
REMARK    7  A    between atoms: C_20  and  C_21
REMARK                            x       y       z     vdW  Elec       q    Type
REMARK                         _______ _______ _______ _____ _____    ______ ____
ROOT
ATOM      1  C   UNL     1      -9.759   6.453 129.939  0.00  0.00    +0.000 A 
ATOM      2  C   UNL     1      -9.653   5.092 130.265  0.00  0.00    +0.000 A 
ATOM      3  C   UNL     1      -8.498   4.549 130.917  0.00  0.00    +0.000 A 
ATOM      4  C   UNL     1      -7.430   5.355 131.231  0.00  0.00    +0.000 A 
ATOM      5  C   UNL     1      -7.832   6.650 131.223  0.00  0.00    +0.000 A 
ATOM      6  C   UNL     1      -8.782   7.257 130.420  0.00  0.00    +0.000 A 
ENDROOT
BRANCH   1  12
ATOM      7  C   UNL     1     -11.156   7.348 128.054  0.00  0.00    +0.000 A 
ATOM      8  C   UNL     1     -12.247   8.113 127.642  0.00  0.00    +0.000 A 
ATOM      9  C   UNL     1     -13.101   8.674 128.598  0.00  0.00    +0.000 A 
ATOM     10  C   UNL     1     -12.838   8.539 129.959  0.00  0.00    +0.000 A 
ATOM     11  C   UNL     1     -11.730   7.818 130.372  0.00  0.00    +0.000 A 
ATOM     12  C   UNL     1     -10.927   7.153 129.433  0.00  0.00    +0.000 A 
BRANCH   7  14
ATOM     13  N   UNL     1      -9.599   6.283 126.267  0.00  0.00    +0.000 NA
ATOM     14  C   UNL     1     -10.275   6.760 127.061  0.00  0.00    +0.000 C 
ENDBRANCH   7  14
ENDBRANCH   1  12
BRANCH   4  15
ATOM     15  C   UNL     1      -6.042   4.955 131.744  0.00  0.00    +0.000 C 
ATOM     16  O   UNL     1      -6.012   4.556 132.913  0.00  0.00    +0.000 OA
ATOM     17  N   UNL     1      -4.836   4.947 130.949  0.00  0.00    +0.000 N 
BRANCH  17  18
ATOM     18  C   UNL     1      -4.606   5.314 129.542  0.00  0.00    +0.000 C 
BRANCH  18  19
ATOM     19  C   UNL     1      -3.287   5.493 129.004  0.00  0.00    +0.000 C 
ATOM     20  C   UNL     1      -3.241   6.767 128.054  0.00  0.00    +0.000 C 
ATOM     21  C   UNL     1      -2.080   6.389 128.869  0.00  0.00    +0.000 C 
ENDBRANCH  18  19
ENDBRANCH  17  18
BRANCH  17  22
ATOM     22  C   UNL     1      -3.567   4.473 131.599  0.00  0.00    +0.000 C 
BRANCH  22  23
ATOM     23  C   UNL     1      -2.821   5.422 132.652  0.00  0.00    +0.000 C 
ATOM     24  C   UNL     1      -3.086   6.904 132.429  0.00  0.00    +0.000 C 
ATOM     25  C   UNL     1      -1.752   7.572 132.729  0.00  0.00    +0.000 C 
ATOM     26  C   UNL     1      -0.757   6.543 132.311  0.00  0.00    +0.000 C 
ATOM     27  O   UNL     1      -1.380   5.340 132.759  0.00  0.00    +0.000 OA
ENDBRANCH  22  23
ENDBRANCH  17  22
ENDBRANCH   4  15
TORSDOF 7
ENDMDL
MODEL 6
REMARK VINA RESULT:      -7.6      8.493     12.044
REMARK  Name = CHEMBL475561
REMARK  7 active torsions:
REMARK  status: ('A' for Active; 'I' for Inactive)
REMARK    1  A    between atoms: C_2  and  C_3
REMARK    2  A    between atoms: C_8  and  C_9
REMARK    3  A    between atoms: C_12  and  C_13
REMARK    4  A    between atoms: N_15  and  C_16
REMARK    5  A    between atoms: N_15  and  C_20
REMARK    6  A    between atoms: C_16  and  C_17
REMARK    7  A    between atoms: C_20  and  C_21
REMARK                            x       y       z     vdW  Elec       q    Type
REMARK                         _______ _______ _______ _____ _____    ______ ____
ROOT
ATOM      1  C   UNL     1      -9.663   6.419 129.780  0.00  0.00    +0.000 A 
ATOM      2  C   UNL     1      -9.432   5.035 129.733  0.00  0.00    +0.000 A 
ATOM      3  C   UNL     1      -8.257   4.436 130.296  0.00  0.00    +0.000 A 
ATOM      4  C   UNL     1      -7.293   5.215 130.891  0.00  0.00    +0.000 A 
ATOM      5  C   UNL     1      -7.826   6.422 131.203  0.00  0.00    +0.000 A 
ATOM      6  C   UNL     1      -8.797   7.141 130.527  0.00  0.00    +0.000 A 
ENDROOT
BRANCH   1  12
ATOM      7  C   UNL     1     -11.203   7.395 128.053  0.00  0.00    +0.000 A 
ATOM      8  C   UNL     1     -12.330   8.163 127.764  0.00  0.00    +0.000 A 
ATOM      9  C   UNL     1     -13.120   8.656 128.808  0.00  0.00    +0.000 A 
ATOM     10  C   UNL     1     -12.758   8.449 130.138  0.00  0.00    +0.000 A 
ATOM     11  C   UNL     1     -11.614   7.724 130.429  0.00  0.00    +0.000 A 
ATOM     12  C   UNL     1     -10.873   7.127 129.398  0.00  0.00    +0.000 A 
BRANCH   7  14
ATOM     13  N   UNL     1      -9.725   6.470 126.127  0.00  0.00    +0.000 NA
ATOM     14  C   UNL     1     -10.388   6.879 126.968  0.00  0.00    +0.000 C 
ENDBRANCH   7  14
ENDBRANCH   1  12
BRANCH   4  15
ATOM     15  C   UNL     1      -5.896   4.811 131.374  0.00  0.00    +0.000 C 
ATOM     16  O   UNL     1      -5.001   4.913 130.529  0.00  0.00    +0.000 OA
ATOM     17  N   UNL     1      -5.571   4.409 132.723  0.00  0.00    +0.000 N 
BRANCH  17  18
ATOM     18  C   UNL     1      -6.420   4.260 133.916  0.00  0.00    +0.000 C 
BRANCH  18  19
ATOM     19  C   UNL     1      -7.498   3.313 133.976  0.00  0.00    +0.000 C 
ATOM     20  C   UNL     1      -8.892   4.063 134.125  0.00  0.00    +0.000 C 
ATOM     21  C   UNL     1      -8.785   2.812 133.365  0.00  0.00    +0.000 C 
ENDBRANCH  18  19
ENDBRANCH  17  18
BRANCH  17  22
ATOM     22  C   UNL     1      -4.135   4.098 133.039  0.00  0.00    +0.000 C 
BRANCH  22  23
ATOM     23  C   UNL     1      -3.106   5.301 133.287  0.00  0.00    +0.000 C 
ATOM     24  C   UNL     1      -3.786   6.634 133.568  0.00  0.00    +0.000 C 
ATOM     25  C   UNL     1      -2.916   7.656 132.850  0.00  0.00    +0.000 C 
ATOM     26  C   UNL     1      -2.398   6.894 131.678  0.00  0.00    +0.000 C 
ATOM     27  O   UNL     1      -2.143   5.614 132.254  0.00  0.00    +0.000 OA
ENDBRANCH  22  23
ENDBRANCH  17  22
ENDBRANCH   4  15
TORSDOF 7
ENDMDL
MODEL 7
REMARK VINA RESULT:      -7.5      7.416     10.834
REMARK  Name = CHEMBL475561
REMARK  7 active torsions:
REMARK  status: ('A' for Active; 'I' for Inactive)
REMARK    1  A    between atoms: C_2  and  C_3
REMARK    2  A    between atoms: C_8  and  C_9
REMARK    3  A    between atoms: C_12  and  C_13
REMARK    4  A    between atoms: N_15  and  C_16
REMARK    5  A    between atoms: N_15  and  C_20
REMARK    6  A    between atoms: C_16  and  C_17
REMARK    7  A    between atoms: C_20  and  C_21
REMARK                            x       y       z     vdW  Elec       q    Type
REMARK                         _______ _______ _______ _____ _____    ______ ____
ROOT
ATOM      1  C   UNL     1     -10.701   5.753 129.834  0.00  0.00    +0.000 A 
ATOM      2  C   UNL     1     -11.090   4.458 130.211  0.00  0.00    +0.000 A 
ATOM      3  C   UNL     1     -10.138   3.420 130.476  0.00  0.00    +0.000 A 
ATOM      4  C   UNL     1      -8.790   3.659 130.347  0.00  0.00    +0.000 A 
ATOM      5  C   UNL     1      -8.571   4.997 130.372  0.00  0.00    +0.000 A 
ATOM      6  C   UNL     1      -9.375   6.015 129.892  0.00  0.00    +0.000 A 
ENDROOT
BRANCH   1  12
ATOM      7  C   UNL     1     -11.649   7.650 128.490  0.00  0.00    +0.000 A 
ATOM      8  C   UNL     1     -12.405   8.822 128.457  0.00  0.00    +0.000 A 
ATOM      9  C   UNL     1     -13.052   9.263 129.616  0.00  0.00    +0.000 A 
ATOM     10  C   UNL     1     -12.896   8.586 130.824  0.00  0.00    +0.000 A 
ATOM     11  C   UNL     1     -12.111   7.446 130.871  0.00  0.00    +0.000 A 
ATOM     12  C   UNL     1     -11.546   6.926 129.697  0.00  0.00    +0.000 A 
BRANCH   7  14
ATOM     13  N   UNL     1     -10.480   6.834 126.319  0.00  0.00    +0.000 NA
ATOM     14  C   UNL     1     -10.984   7.190 127.285  0.00  0.00    +0.000 C 
ENDBRANCH   7  14
ENDBRANCH   1  12
BRANCH   4  15
ATOM     15  C   UNL     1      -7.629   2.659 130.392  0.00  0.00    +0.000 C 
ATOM     16  O   UNL     1      -7.404   2.072 129.329  0.00  0.00    +0.000 OA
ATOM     17  N   UNL     1      -6.775   2.433 131.535  0.00  0.00    +0.000 N 
BRANCH  17  18
ATOM     18  C   UNL     1      -6.788   3.028 132.881  0.00  0.00    +0.000 C 
BRANCH  18  19
ATOM     19  C   UNL     1      -7.977   3.081 133.684  0.00  0.00    +0.000 C 
ATOM     20  C   UNL     1      -8.045   4.448 134.492  0.00  0.00    +0.000 C 
ATOM     21  C   UNL     1      -9.267   3.799 134.001  0.00  0.00    +0.000 C 
ENDBRANCH  18  19
ENDBRANCH  17  18
BRANCH  17  22
ATOM     22  C   UNL     1      -5.646   1.452 131.388  0.00  0.00    +0.000 C 
BRANCH  22  23
ATOM     23  C   UNL     1      -4.281   1.924 130.695  0.00  0.00    +0.000 C 
ATOM     24  C   UNL     1      -4.072   3.431 130.727  0.00  0.00    +0.000 C 
ATOM     25  C   UNL     1      -3.441   3.751 129.379  0.00  0.00    +0.000 C 
ATOM     26  C   UNL     1      -4.041   2.728 128.475  0.00  0.00    +0.000 C 
ATOM     27  O   UNL     1      -4.048   1.571 129.311  0.00  0.00    +0.000 OA
ENDBRANCH  22  23
ENDBRANCH  17  22
ENDBRANCH   4  15
TORSDOF 7
ENDMDL
MODEL 8
REMARK VINA RESULT:      -7.5      8.765     10.483
REMARK  Name = CHEMBL475561
REMARK  7 active torsions:
REMARK  status: ('A' for Active; 'I' for Inactive)
REMARK    1  A    between atoms: C_2  and  C_3
REMARK    2  A    between atoms: C_8  and  C_9
REMARK    3  A    between atoms: C_12  and  C_13
REMARK    4  A    between atoms: N_15  and  C_16
REMARK    5  A    between atoms: N_15  and  C_20
REMARK    6  A    between atoms: C_16  and  C_17
REMARK    7  A    between atoms: C_20  and  C_21
REMARK                            x       y       z     vdW  Elec       q    Type
REMARK                         _______ _______ _______ _____ _____    ______ ____
ROOT
ATOM      1  C   UNL     1      -4.801   6.487 132.297  0.00  0.00    +0.000 A 
ATOM      2  C   UNL     1      -5.469   5.507 133.048  0.00  0.00    +0.000 A 
ATOM      3  C   UNL     1      -6.874   5.262 132.908  0.00  0.00    +0.000 A 
ATOM      4  C   UNL     1      -7.630   6.008 132.034  0.00  0.00    +0.000 A 
ATOM      5  C   UNL     1      -6.809   6.604 131.134  0.00  0.00    +0.000 A 
ATOM      6  C   UNL     1      -5.523   7.079 131.317  0.00  0.00    +0.000 A 
ENDROOT
BRANCH   1  12
ATOM      7  C   UNL     1      -2.506   5.914 131.455  0.00  0.00    +0.000 A 
ATOM      8  C   UNL     1      -1.130   6.138 131.507  0.00  0.00    +0.000 A 
ATOM      9  C   UNL     1      -0.624   7.162 132.315  0.00  0.00    +0.000 A 
ATOM     10  C   UNL     1      -1.470   7.916 133.126  0.00  0.00    +0.000 A 
ATOM     11  C   UNL     1      -2.832   7.668 133.111  0.00  0.00    +0.000 A 
ATOM     12  C   UNL     1      -3.370   6.723 132.223  0.00  0.00    +0.000 A 
BRANCH   7  14
ATOM     13  N   UNL     1      -3.459   4.039 129.931  0.00  0.00    +0.000 NA
ATOM     14  C   UNL     1      -3.030   4.856 130.610  0.00  0.00    +0.000 C 
ENDBRANCH   7  14
ENDBRANCH   1  12
BRANCH   4  15
ATOM     15  C   UNL     1      -9.153   6.044 131.871  0.00  0.00    +0.000 C 
ATOM     16  O   UNL     1      -9.766   6.572 132.805  0.00  0.00    +0.000 OA
ATOM     17  N   UNL     1      -9.872   5.586 130.705  0.00  0.00    +0.000 N 
BRANCH  17  18
ATOM     18  C   UNL     1      -9.393   4.980 129.453  0.00  0.00    +0.000 C 
BRANCH  18  19
ATOM     19  C   UNL     1      -8.640   3.758 129.433  0.00  0.00    +0.000 C 
ATOM     20  C   UNL     1      -7.256   3.968 128.678  0.00  0.00    +0.000 C 
ATOM     21  C   UNL     1      -7.365   3.044 129.814  0.00  0.00    +0.000 C 
ENDBRANCH  18  19
ENDBRANCH  17  18
BRANCH  17  22
ATOM     22  C   UNL     1     -11.366   5.747 130.691  0.00  0.00    +0.000 C 
BRANCH  22  23
ATOM     23  C   UNL     1     -12.006   7.103 130.125  0.00  0.00    +0.000 C 
ATOM     24  C   UNL     1     -13.053   6.875 129.044  0.00  0.00    +0.000 C 
ATOM     25  C   UNL     1     -12.820   8.007 128.053  0.00  0.00    +0.000 C 
ATOM     26  C   UNL     1     -11.350   8.243 128.150  0.00  0.00    +0.000 C 
ATOM     27  O   UNL     1     -11.126   8.097 129.552  0.00  0.00    +0.000 OA
ENDBRANCH  22  23
ENDBRANCH  17  22
ENDBRANCH   4  15
TORSDOF 7
ENDMDL
MODEL 9
REMARK VINA RESULT:      -7.5      1.335      2.235
REMARK  Name = CHEMBL475561
REMARK  7 active torsions:
REMARK  status: ('A' for Active; 'I' for Inactive)
REMARK    1  A    between atoms: C_2  and  C_3
REMARK    2  A    between atoms: C_8  and  C_9
REMARK    3  A    between atoms: C_12  and  C_13
REMARK    4  A    between atoms: N_15  and  C_16
REMARK    5  A    between atoms: N_15  and  C_20
REMARK    6  A    between atoms: C_16  and  C_17
REMARK    7  A    between atoms: C_20  and  C_21
REMARK                            x       y       z     vdW  Elec       q    Type
REMARK                         _______ _______ _______ _____ _____    ______ ____
ROOT
ATOM      1  C   UNL     1      -6.587  -3.123 130.194  0.00  0.00    +0.000 A 
ATOM      2  C   UNL     1      -7.742  -3.226 129.402  0.00  0.00    +0.000 A 
ATOM      3  C   UNL     1      -7.834  -2.628 128.103  0.00  0.00    +0.000 A 
ATOM      4  C   UNL     1      -6.783  -1.903 127.591  0.00  0.00    +0.000 A 
ATOM      5  C   UNL     1      -5.652  -2.222 128.267  0.00  0.00    +0.000 A 
ATOM      6  C   UNL     1      -5.507  -2.566 129.599  0.00  0.00    +0.000 A 
ENDROOT
BRANCH   1  12
ATOM      7  C   UNL     1      -6.705  -3.299 132.696  0.00  0.00    +0.000 A 
ATOM      8  C   UNL     1      -6.318  -3.963 133.861  0.00  0.00    +0.000 A 
ATOM      9  C   UNL     1      -5.545  -5.126 133.772  0.00  0.00    +0.000 A 
ATOM     10  C   UNL     1      -5.095  -5.593 132.539  0.00  0.00    +0.000 A 
ATOM     11  C   UNL     1      -5.440  -4.912 131.383  0.00  0.00    +0.000 A 
ATOM     12  C   UNL     1      -6.307  -3.810 131.442  0.00  0.00    +0.000 A 
BRANCH   7  14
ATOM     13  N   UNL     1      -8.146  -1.147 132.889  0.00  0.00    +0.000 NA
ATOM     14  C   UNL     1      -7.512  -2.097 132.790  0.00  0.00    +0.000 C 
ENDBRANCH   7  14
ENDBRANCH   1  12
BRANCH   4  15
ATOM     15  C   UNL     1      -6.740  -1.033 126.331  0.00  0.00    +0.000 C 
ATOM     16  O   UNL     1      -6.596   0.177 126.536  0.00  0.00    +0.000 OA
ATOM     17  N   UNL     1      -6.781  -1.534 124.977  0.00  0.00    +0.000 N 
BRANCH  17  18
ATOM     18  C   UNL     1      -6.891  -2.908 124.460  0.00  0.00    +0.000 C 
BRANCH  18  19
ATOM     19  C   UNL     1      -8.089  -3.399 123.839  0.00  0.00    +0.000 C 
ATOM     20  C   UNL     1      -9.312  -3.327 124.852  0.00  0.00    +0.000 C 
ATOM     21  C   UNL     1      -9.508  -3.113 123.413  0.00  0.00    +0.000 C 
ENDBRANCH  18  19
ENDBRANCH  17  18
BRANCH  17  22
ATOM     22  C   UNL     1      -6.673  -0.541 123.854  0.00  0.00    +0.000 C 
BRANCH  22  23
ATOM     23  C   UNL     1      -7.973   0.281 123.404  0.00  0.00    +0.000 C 
ATOM     24  C   UNL     1      -7.722   1.773 123.241  0.00  0.00    +0.000 C 
ATOM     25  C   UNL     1      -8.990   2.426 123.772  0.00  0.00    +0.000 C 
ATOM     26  C   UNL     1      -9.437   1.481 124.836  0.00  0.00    +0.000 C 
ATOM     27  O   UNL     1      -9.155   0.217 124.236  0.00  0.00    +0.000 OA
ENDBRANCH  22  23
ENDBRANCH  17  22
ENDBRANCH   4  15
TORSDOF 7
ENDMDL
