MODEL 1
REMARK VINA RESULT:      -9.3      0.000      0.000
REMARK  Name = CHEMBL31691
REMARK  2 active torsions:
REMARK  status: ('A' for Active; 'I' for Inactive)
REMARK    1  A    between atoms: C_2  and  C_3
REMARK    2  A    between atoms: C_15  and  N_16
REMARK                            x       y       z     vdW  Elec       q    Type
REMARK                         _______ _______ _______ _____ _____    ______ ____
ROOT
ATOM      1  O   UNL     1      -4.830   4.206 124.320  0.00  0.00    +0.000 OA
ATOM      2  C   UNL     1      -5.730   3.481 123.908  0.00  0.00    +0.000 C 
ATOM      3  N   UNL     1      -6.473   2.650 124.721  0.00  0.00    +0.000 N 
ATOM      4  C   UNL     1      -6.818   1.263 124.386  0.00  0.00    +0.000 C 
ATOM      5  C   UNL     1      -8.275   1.012 124.726  0.00  0.00    +0.000 C 
ATOM      6  C   UNL     1      -8.590   1.413 126.188  0.00  0.00    +0.000 C 
ATOM      7  C   UNL     1      -8.135   2.854 126.468  0.00  0.00    +0.000 C 
ATOM      8  C   UNL     1      -6.682   3.080 126.095  0.00  0.00    +0.000 C 
ENDROOT
BRANCH   6   9
ATOM      9  N   UNL     1      -8.137   0.394 127.187  0.00  0.00    +0.000 N 
ATOM     10  C   UNL     1      -7.545   0.713 128.415  0.00  0.00    +0.000 C 
ATOM     11  O   UNL     1      -7.798   1.640 129.170  0.00  0.00    +0.000 OA
ATOM     12  O   UNL     1      -6.497  -0.089 128.727  0.00  0.00    +0.000 OA
ATOM     13  C   UNL     1      -6.962  -1.383 129.029  0.00  0.00    +0.000 C 
ATOM     14  C   UNL     1      -7.805  -1.899 127.908  0.00  0.00    +0.000 A 
ATOM     15  C   UNL     1      -8.048  -3.272 127.831  0.00  0.00    +0.000 A 
ATOM     16  C   UNL     1      -8.847  -3.773 126.816  0.00  0.00    +0.000 A 
ATOM     17  C   UNL     1      -9.409  -2.904 125.885  0.00  0.00    +0.000 A 
ATOM     18  C   UNL     1      -9.175  -1.527 125.961  0.00  0.00    +0.000 A 
ATOM     19  C   UNL     1      -8.368  -1.005 126.976  0.00  0.00    +0.000 A 
ENDBRANCH   6   9
BRANCH   2  20
ATOM     20  C   UNL     1      -6.178   3.645 122.504  0.00  0.00    +0.000 A 
ATOM     21  C   UNL     1      -5.232   4.081 121.572  0.00  0.00    +0.000 A 
ATOM     22  C   UNL     1      -5.598   4.355 120.250  0.00  0.00    +0.000 A 
ATOM     23  C   UNL     1      -6.945   4.218 119.878  0.00  0.00    +0.000 A 
ATOM     24  C   UNL     1      -7.682   4.400 118.680  0.00  0.00    +0.000 A 
ATOM     25  C   UNL     1      -8.993   4.125 118.985  0.00  0.00    +0.000 A 
ATOM     26  O   UNL     1      -9.118   3.775 120.294  0.00  0.00    +0.000 OA
ATOM     27  C   UNL     1      -7.868   3.821 120.840  0.00  0.00    +0.000 A 
ATOM     28  C   UNL     1      -7.539   3.528 122.164  0.00  0.00    +0.000 A 
ENDBRANCH   2  20
TORSDOF 2
ENDMDL
MODEL 2
REMARK VINA RESULT:      -9.1      3.582      5.875
REMARK  Name = CHEMBL31691
REMARK  2 active torsions:
REMARK  status: ('A' for Active; 'I' for Inactive)
REMARK    1  A    between atoms: C_2  and  C_3
REMARK    2  A    between atoms: C_15  and  N_16
REMARK                            x       y       z     vdW  Elec       q    Type
REMARK                         _______ _______ _______ _____ _____    ______ ____
ROOT
ATOM      1  O   UNL     1      -6.971   1.140 124.085  0.00  0.00    +0.000 OA
ATOM      2  C   UNL     1      -6.843   2.359 124.015  0.00  0.00    +0.000 C 
ATOM      3  N   UNL     1      -6.281   3.126 125.015  0.00  0.00    +0.000 N 
ATOM      4  C   UNL     1      -6.833   4.404 125.481  0.00  0.00    +0.000 C 
ATOM      5  C   UNL     1      -5.705   5.406 125.646  0.00  0.00    +0.000 C 
ATOM      6  C   UNL     1      -4.572   4.837 126.535  0.00  0.00    +0.000 C 
ATOM      7  C   UNL     1      -4.104   3.470 126.014  0.00  0.00    +0.000 C 
ATOM      8  C   UNL     1      -5.256   2.498 125.835  0.00  0.00    +0.000 C 
ENDROOT
BRANCH   6   9
ATOM      9  N   UNL     1      -4.890   4.888 127.998  0.00  0.00    +0.000 N 
ATOM     10  C   UNL     1      -6.008   4.275 128.577  0.00  0.00    +0.000 C 
ATOM     11  O   UNL     1      -6.528   3.206 128.292  0.00  0.00    +0.000 OA
ATOM     12  O   UNL     1      -6.613   5.044 129.515  0.00  0.00    +0.000 OA
ATOM     13  C   UNL     1      -5.792   5.140 130.654  0.00  0.00    +0.000 C 
ATOM     14  C   UNL     1      -4.431   5.620 130.266  0.00  0.00    +0.000 A 
ATOM     15  C   UNL     1      -3.596   6.137 131.258  0.00  0.00    +0.000 A 
ATOM     16  C   UNL     1      -2.321   6.567 130.929  0.00  0.00    +0.000 A 
ATOM     17  C   UNL     1      -1.877   6.471 129.612  0.00  0.00    +0.000 A 
ATOM     18  C   UNL     1      -2.707   5.947 128.615  0.00  0.00    +0.000 A 
ATOM     19  C   UNL     1      -3.998   5.514 128.929  0.00  0.00    +0.000 A 
ENDBRANCH   6   9
BRANCH   2  20
ATOM     20  C   UNL     1      -7.122   3.022 122.718  0.00  0.00    +0.000 A 
ATOM     21  C   UNL     1      -8.423   2.933 122.215  0.00  0.00    +0.000 A 
ATOM     22  C   UNL     1      -8.743   3.445 120.954  0.00  0.00    +0.000 A 
ATOM     23  C   UNL     1      -7.724   4.025 120.180  0.00  0.00    +0.000 A 
ATOM     24  C   UNL     1      -7.654   4.627 118.898  0.00  0.00    +0.000 A 
ATOM     25  C   UNL     1      -6.337   4.973 118.704  0.00  0.00    +0.000 A 
ATOM     26  O   UNL     1      -5.587   4.632 119.786  0.00  0.00    +0.000 OA
ATOM     27  C   UNL     1      -6.432   4.061 120.694  0.00  0.00    +0.000 A 
ATOM     28  C   UNL     1      -6.077   3.571 121.951  0.00  0.00    +0.000 A 
ENDBRANCH   2  20
TORSDOF 2
ENDMDL
MODEL 3
REMARK VINA RESULT:      -9.0      2.428      4.057
REMARK  Name = CHEMBL31691
REMARK  2 active torsions:
REMARK  status: ('A' for Active; 'I' for Inactive)
REMARK    1  A    between atoms: C_2  and  C_3
REMARK    2  A    between atoms: C_15  and  N_16
REMARK                            x       y       z     vdW  Elec       q    Type
REMARK                         _______ _______ _______ _____ _____    ______ ____
ROOT
ATOM      1  O   UNL     1      -9.396   1.936 125.246  0.00  0.00    +0.000 OA
ATOM      2  C   UNL     1      -8.211   1.619 125.288  0.00  0.00    +0.000 C 
ATOM      3  N   UNL     1      -7.749   0.478 125.911  0.00  0.00    +0.000 N 
ATOM      4  C   UNL     1      -6.562   0.435 126.776  0.00  0.00    +0.000 C 
ATOM      5  C   UNL     1      -5.738  -0.791 126.434  0.00  0.00    +0.000 C 
ATOM      6  C   UNL     1      -6.599  -2.078 126.468  0.00  0.00    +0.000 C 
ATOM      7  C   UNL     1      -7.850  -1.919 125.591  0.00  0.00    +0.000 C 
ATOM      8  C   UNL     1      -8.641  -0.671 125.939  0.00  0.00    +0.000 C 
ENDROOT
BRANCH   6   9
ATOM      9  N   UNL     1      -6.851  -2.580 127.856  0.00  0.00    +0.000 N 
ATOM     10  C   UNL     1      -8.107  -2.978 128.328  0.00  0.00    +0.000 C 
ATOM     11  O   UNL     1      -8.996  -3.569 127.733  0.00  0.00    +0.000 OA
ATOM     12  O   UNL     1      -8.363  -2.555 129.590  0.00  0.00    +0.000 OA
ATOM     13  C   UNL     1      -7.548  -3.253 130.500  0.00  0.00    +0.000 C 
ATOM     14  C   UNL     1      -6.112  -3.130 130.101  0.00  0.00    +0.000 A 
ATOM     15  C   UNL     1      -5.128  -3.418 131.049  0.00  0.00    +0.000 A 
ATOM     16  C   UNL     1      -3.790  -3.336 130.698  0.00  0.00    +0.000 A 
ATOM     17  C   UNL     1      -3.437  -2.977 129.399  0.00  0.00    +0.000 A 
ATOM     18  C   UNL     1      -4.419  -2.695 128.444  0.00  0.00    +0.000 A 
ATOM     19  C   UNL     1      -5.773  -2.768 128.783  0.00  0.00    +0.000 A 
ENDBRANCH   6   9
BRANCH   2  20
ATOM     20  C   UNL     1      -7.248   2.386 124.462  0.00  0.00    +0.000 A 
ATOM     21  C   UNL     1      -6.632   3.494 125.053  0.00  0.00    +0.000 A 
ATOM     22  C   UNL     1      -5.787   4.327 124.313  0.00  0.00    +0.000 A 
ATOM     23  C   UNL     1      -5.591   4.053 122.950  0.00  0.00    +0.000 A 
ATOM     24  C   UNL     1      -4.841   4.647 121.902  0.00  0.00    +0.000 A 
ATOM     25  C   UNL     1      -5.101   3.906 120.772  0.00  0.00    +0.000 A 
ATOM     26  O   UNL     1      -5.956   2.886 121.053  0.00  0.00    +0.000 OA
ATOM     27  C   UNL     1      -6.250   2.967 122.383  0.00  0.00    +0.000 A 
ATOM     28  C   UNL     1      -7.091   2.108 123.091  0.00  0.00    +0.000 A 
ENDBRANCH   2  20
TORSDOF 2
ENDMDL
MODEL 4
REMARK VINA RESULT:      -9.0      6.412      9.469
REMARK  Name = CHEMBL31691
REMARK  2 active torsions:
REMARK  status: ('A' for Active; 'I' for Inactive)
REMARK    1  A    between atoms: C_2  and  C_3
REMARK    2  A    between atoms: C_15  and  N_16
REMARK                            x       y       z     vdW  Elec       q    Type
REMARK                         _______ _______ _______ _____ _____    ______ ____
ROOT
ATOM      1  O   UNL     1      -8.068   1.592 133.337  0.00  0.00    +0.000 OA
ATOM      2  C   UNL     1      -8.241   1.794 132.139  0.00  0.00    +0.000 C 
ATOM      3  N   UNL     1      -8.723   2.981 131.627  0.00  0.00    +0.000 N 
ATOM      4  C   UNL     1      -9.744   3.069 130.575  0.00  0.00    +0.000 C 
ATOM      5  C   UNL     1      -9.331   4.122 129.564  0.00  0.00    +0.000 C 
ATOM      6  C   UNL     1      -9.007   5.470 130.254  0.00  0.00    +0.000 C 
ATOM      7  C   UNL     1      -7.984   5.272 131.383  0.00  0.00    +0.000 C 
ATOM      8  C   UNL     1      -8.412   4.196 132.364  0.00  0.00    +0.000 C 
ENDROOT
BRANCH   6   9
ATOM      9  N   UNL     1     -10.230   6.248 130.629  0.00  0.00    +0.000 N 
ATOM     10  C   UNL     1     -10.723   6.348 131.936  0.00  0.00    +0.000 C 
ATOM     11  O   UNL     1     -10.101   6.427 132.985  0.00  0.00    +0.000 OA
ATOM     12  O   UNL     1     -12.073   6.252 132.006  0.00  0.00    +0.000 OA
ATOM     13  C   UNL     1     -12.662   7.405 131.453  0.00  0.00    +0.000 C 
ATOM     14  C   UNL     1     -12.143   7.632 130.070  0.00  0.00    +0.000 A 
ATOM     15  C   UNL     1     -12.857   8.478 129.219  0.00  0.00    +0.000 A 
ATOM     16  C   UNL     1     -12.385   8.725 127.940  0.00  0.00    +0.000 A 
ATOM     17  C   UNL     1     -11.197   8.135 127.515  0.00  0.00    +0.000 A 
ATOM     18  C   UNL     1     -10.474   7.292 128.366  0.00  0.00    +0.000 A 
ATOM     19  C   UNL     1     -10.939   7.028 129.658  0.00  0.00    +0.000 A 
ENDBRANCH   6   9
BRANCH   2  20
ATOM     20  C   UNL     1      -7.723   0.793 131.175  0.00  0.00    +0.000 A 
ATOM     21  C   UNL     1      -6.792   1.232 130.228  0.00  0.00    +0.000 A 
ATOM     22  C   UNL     1      -6.330   0.375 129.223  0.00  0.00    +0.000 A 
ATOM     23  C   UNL     1      -6.844  -0.930 129.158  0.00  0.00    +0.000 A 
ATOM     24  C   UNL     1      -6.637  -2.052 128.314  0.00  0.00    +0.000 A 
ATOM     25  C   UNL     1      -7.480  -3.038 128.767  0.00  0.00    +0.000 A 
ATOM     26  O   UNL     1      -8.192  -2.606 129.843  0.00  0.00    +0.000 OA
ATOM     27  C   UNL     1      -7.799  -1.322 130.091  0.00  0.00    +0.000 A 
ATOM     28  C   UNL     1      -8.274  -0.500 131.113  0.00  0.00    +0.000 A 
ENDBRANCH   2  20
TORSDOF 2
ENDMDL
MODEL 5
REMARK VINA RESULT:      -8.8      5.801      7.817
REMARK  Name = CHEMBL31691
REMARK  2 active torsions:
REMARK  status: ('A' for Active; 'I' for Inactive)
REMARK    1  A    between atoms: C_2  and  C_3
REMARK    2  A    between atoms: C_15  and  N_16
REMARK                            x       y       z     vdW  Elec       q    Type
REMARK                         _______ _______ _______ _____ _____    ______ ____
ROOT
ATOM      1  O   UNL     1      -8.671   6.149 133.447  0.00  0.00    +0.000 OA
ATOM      2  C   UNL     1      -9.058   5.658 132.391  0.00  0.00    +0.000 C 
ATOM      3  N   UNL     1      -8.787   4.360 132.008  0.00  0.00    +0.000 N 
ATOM      4  C   UNL     1      -8.365   3.971 130.657  0.00  0.00    +0.000 C 
ATOM      5  C   UNL     1      -9.126   2.729 130.232  0.00  0.00    +0.000 C 
ATOM      6  C   UNL     1      -9.005   1.604 131.288  0.00  0.00    +0.000 C 
ATOM      7  C   UNL     1      -9.401   2.118 132.681  0.00  0.00    +0.000 C 
ATOM      8  C   UNL     1      -8.641   3.374 133.068  0.00  0.00    +0.000 C 
ENDROOT
BRANCH   6   9
ATOM      9  N   UNL     1      -7.697   0.877 131.224  0.00  0.00    +0.000 N 
ATOM     10  C   UNL     1      -6.950   0.511 132.350  0.00  0.00    +0.000 C 
ATOM     11  O   UNL     1      -7.346   0.121 133.439  0.00  0.00    +0.000 OA
ATOM     12  O   UNL     1      -5.618   0.713 132.196  0.00  0.00    +0.000 OA
ATOM     13  C   UNL     1      -5.100  -0.212 131.270  0.00  0.00    +0.000 C 
ATOM     14  C   UNL     1      -5.873  -0.145 129.992  0.00  0.00    +0.000 A 
ATOM     15  C   UNL     1      -5.306  -0.690 128.839  0.00  0.00    +0.000 A 
ATOM     16  C   UNL     1      -6.011  -0.663 127.647  0.00  0.00    +0.000 A 
ATOM     17  C   UNL     1      -7.285  -0.102 127.610  0.00  0.00    +0.000 A 
ATOM     18  C   UNL     1      -7.861   0.439 128.764  0.00  0.00    +0.000 A 
ATOM     19  C   UNL     1      -7.161   0.424 129.974  0.00  0.00    +0.000 A 
ENDBRANCH   6   9
BRANCH   2  20
ATOM     20  C   UNL     1     -10.028   6.425 131.572  0.00  0.00    +0.000 A 
ATOM     21  C   UNL     1     -11.374   6.370 131.948  0.00  0.00    +0.000 A 
ATOM     22  C   UNL     1     -12.363   6.984 131.172  0.00  0.00    +0.000 A 
ATOM     23  C   UNL     1     -11.986   7.631 129.984  0.00  0.00    +0.000 A 
ATOM     24  C   UNL     1     -12.672   8.338 128.963  0.00  0.00    +0.000 A 
ATOM     25  C   UNL     1     -11.720   8.706 128.041  0.00  0.00    +0.000 A 
ATOM     26  O   UNL     1     -10.487   8.280 128.427  0.00  0.00    +0.000 OA
ATOM     27  C   UNL     1     -10.644   7.632 129.618  0.00  0.00    +0.000 A 
ATOM     28  C   UNL     1      -9.629   7.042 130.371  0.00  0.00    +0.000 A 
ENDBRANCH   2  20
TORSDOF 2
ENDMDL
MODEL 6
REMARK VINA RESULT:      -8.6      2.542      3.812
REMARK  Name = CHEMBL31691
REMARK  2 active torsions:
REMARK  status: ('A' for Active; 'I' for Inactive)
REMARK    1  A    between atoms: C_2  and  C_3
REMARK    2  A    between atoms: C_15  and  N_16
REMARK                            x       y       z     vdW  Elec       q    Type
REMARK                         _______ _______ _______ _____ _____    ______ ____
ROOT
ATOM      1  O   UNL     1      -9.478   2.016 122.773  0.00  0.00    +0.000 OA
ATOM      2  C   UNL     1      -8.338   1.761 123.149  0.00  0.00    +0.000 C 
ATOM      3  N   UNL     1      -7.990   0.586 123.783  0.00  0.00    +0.000 N 
ATOM      4  C   UNL     1      -7.119   0.514 124.963  0.00  0.00    +0.000 C 
ATOM      5  C   UNL     1      -6.128  -0.622 124.786  0.00  0.00    +0.000 C 
ATOM      6  C   UNL     1      -6.848  -1.949 124.442  0.00  0.00    +0.000 C 
ATOM      7  C   UNL     1      -7.787  -1.764 123.240  0.00  0.00    +0.000 C 
ATOM      8  C   UNL     1      -8.748  -0.606 123.435  0.00  0.00    +0.000 C 
ENDROOT
BRANCH   6   9
ATOM      9  N   UNL     1      -7.462  -2.612 125.636  0.00  0.00    +0.000 N 
ATOM     10  C   UNL     1      -8.617  -3.401 125.585  0.00  0.00    +0.000 C 
ATOM     11  O   UNL     1      -8.974  -4.181 124.714  0.00  0.00    +0.000 OA
ATOM     12  O   UNL     1      -9.465  -3.175 126.618  0.00  0.00    +0.000 OA
ATOM     13  C   UNL     1      -8.905  -3.669 127.811  0.00  0.00    +0.000 C 
ATOM     14  C   UNL     1      -7.540  -3.095 128.013  0.00  0.00    +0.000 A 
ATOM     15  C   UNL     1      -6.974  -3.152 129.288  0.00  0.00    +0.000 A 
ATOM     16  C   UNL     1      -5.699  -2.649 129.497  0.00  0.00    +0.000 A 
ATOM     17  C   UNL     1      -4.989  -2.099 128.432  0.00  0.00    +0.000 A 
ATOM     18  C   UNL     1      -5.550  -2.047 127.151  0.00  0.00    +0.000 A 
ATOM     19  C   UNL     1      -6.836  -2.545 126.924  0.00  0.00    +0.000 A 
ENDBRANCH   6   9
BRANCH   2  20
ATOM     20  C   UNL     1      -7.240   2.665 122.730  0.00  0.00    +0.000 A 
ATOM     21  C   UNL     1      -6.416   3.186 123.732  0.00  0.00    +0.000 A 
ATOM     22  C   UNL     1      -5.421   4.122 123.431  0.00  0.00    +0.000 A 
ATOM     23  C   UNL     1      -5.282   4.559 122.104  0.00  0.00    +0.000 A 
ATOM     24  C   UNL     1      -4.428   5.468 121.428  0.00  0.00    +0.000 A 
ATOM     25  C   UNL     1      -4.828   5.471 120.113  0.00  0.00    +0.000 A 
ATOM     26  O   UNL     1      -5.871   4.616 119.926  0.00  0.00    +0.000 OA
ATOM     27  C   UNL     1      -6.144   4.051 121.138  0.00  0.00    +0.000 A 
ATOM     28  C   UNL     1      -7.140   3.108 121.398  0.00  0.00    +0.000 A 
ENDBRANCH   2  20
TORSDOF 2
ENDMDL
MODEL 7
REMARK VINA RESULT:      -8.6      7.364      9.959
REMARK  Name = CHEMBL31691
REMARK  2 active torsions:
REMARK  status: ('A' for Active; 'I' for Inactive)
REMARK    1  A    between atoms: C_2  and  C_3
REMARK    2  A    between atoms: C_15  and  N_16
REMARK                            x       y       z     vdW  Elec       q    Type
REMARK                         _______ _______ _______ _____ _____    ______ ____
ROOT
ATOM      1  O   UNL     1      -9.770   3.634 131.282  0.00  0.00    +0.000 OA
ATOM      2  C   UNL     1      -9.300   4.764 131.192  0.00  0.00    +0.000 C 
ATOM      3  N   UNL     1      -7.946   5.026 131.152  0.00  0.00    +0.000 N 
ATOM      4  C   UNL     1      -7.293   6.102 131.909  0.00  0.00    +0.000 C 
ATOM      5  C   UNL     1      -6.300   6.814 131.010  0.00  0.00    +0.000 C 
ATOM      6  C   UNL     1      -5.320   5.814 130.348  0.00  0.00    +0.000 C 
ATOM      7  C   UNL     1      -6.088   4.688 129.639  0.00  0.00    +0.000 C 
ATOM      8  C   UNL     1      -7.091   4.011 130.555  0.00  0.00    +0.000 C 
ENDROOT
BRANCH   6   9
ATOM      9  N   UNL     1      -4.229   5.363 131.270  0.00  0.00    +0.000 N 
ATOM     10  C   UNL     1      -3.866   4.023 131.454  0.00  0.00    +0.000 C 
ATOM     11  O   UNL     1      -3.824   3.121 130.631  0.00  0.00    +0.000 OA
ATOM     12  O   UNL     1      -3.620   3.710 132.750  0.00  0.00    +0.000 OA
ATOM     13  C   UNL     1      -2.428   4.328 133.171  0.00  0.00    +0.000 C 
ATOM     14  C   UNL     1      -2.491   5.798 132.906  0.00  0.00    +0.000 A 
ATOM     15  C   UNL     1      -1.596   6.636 133.573  0.00  0.00    +0.000 A 
ATOM     16  C   UNL     1      -1.618   8.000 133.328  0.00  0.00    +0.000 A 
ATOM     17  C   UNL     1      -2.525   8.523 132.409  0.00  0.00    +0.000 A 
ATOM     18  C   UNL     1      -3.418   7.686 131.732  0.00  0.00    +0.000 A 
ATOM     19  C   UNL     1      -3.413   6.309 131.972  0.00  0.00    +0.000 A 
ENDBRANCH   6   9
BRANCH   2  20
ATOM     20  C   UNL     1     -10.224   5.890 130.912  0.00  0.00    +0.000 A 
ATOM     21  C   UNL     1     -11.261   6.114 131.822  0.00  0.00    +0.000 A 
ATOM     22  C   UNL     1     -12.232   7.091 131.580  0.00  0.00    +0.000 A 
ATOM     23  C   UNL     1     -12.169   7.826 130.385  0.00  0.00    +0.000 A 
ATOM     24  C   UNL     1     -12.942   8.860 129.798  0.00  0.00    +0.000 A 
ATOM     25  C   UNL     1     -12.363   9.134 128.581  0.00  0.00    +0.000 A 
ATOM     26  O   UNL     1     -11.274   8.344 128.379  0.00  0.00    +0.000 OA
ATOM     27  C   UNL     1     -11.147   7.551 129.482  0.00  0.00    +0.000 A 
ATOM     28  C   UNL     1     -10.155   6.593 129.694  0.00  0.00    +0.000 A 
ENDBRANCH   2  20
TORSDOF 2
ENDMDL
MODEL 8
REMARK VINA RESULT:      -8.5      7.349      9.721
REMARK  Name = CHEMBL31691
REMARK  2 active torsions:
REMARK  status: ('A' for Active; 'I' for Inactive)
REMARK    1  A    between atoms: C_2  and  C_3
REMARK    2  A    between atoms: C_15  and  N_16
REMARK                            x       y       z     vdW  Elec       q    Type
REMARK                         _______ _______ _______ _____ _____    ______ ____
ROOT
ATOM      1  O   UNL     1     -11.984   4.245 130.091  0.00  0.00    +0.000 OA
ATOM      2  C   UNL     1     -11.359   5.295 130.206  0.00  0.00    +0.000 C 
ATOM      3  N   UNL     1     -10.020   5.354 130.534  0.00  0.00    +0.000 N 
ATOM      4  C   UNL     1      -9.452   6.295 131.508  0.00  0.00    +0.000 C 
ATOM      5  C   UNL     1      -8.169   6.881 130.948  0.00  0.00    +0.000 C 
ATOM      6  C   UNL     1      -7.194   5.769 130.490  0.00  0.00    +0.000 C 
ATOM      7  C   UNL     1      -7.891   4.795 129.529  0.00  0.00    +0.000 C 
ATOM      8  C   UNL     1      -9.183   4.244 130.105  0.00  0.00    +0.000 C 
ENDROOT
BRANCH   6   9
ATOM      9  N   UNL     1      -6.457   5.129 131.625  0.00  0.00    +0.000 N 
ATOM     10  C   UNL     1      -6.771   3.870 132.150  0.00  0.00    +0.000 C 
ATOM     11  O   UNL     1      -7.149   2.868 131.562  0.00  0.00    +0.000 OA
ATOM     12  O   UNL     1      -6.718   3.828 133.504  0.00  0.00    +0.000 OA
ATOM     13  C   UNL     1      -5.380   3.924 133.931  0.00  0.00    +0.000 C 
ATOM     14  C   UNL     1      -4.739   5.138 133.340  0.00  0.00    +0.000 A 
ATOM     15  C   UNL     1      -3.563   5.622 133.916  0.00  0.00    +0.000 A 
ATOM     16  C   UNL     1      -2.936   6.731 133.372  0.00  0.00    +0.000 A 
ATOM     17  C   UNL     1      -3.478   7.349 132.248  0.00  0.00    +0.000 A 
ATOM     18  C   UNL     1      -4.651   6.864 131.662  0.00  0.00    +0.000 A 
ATOM     19  C   UNL     1      -5.299   5.750 132.201  0.00  0.00    +0.000 A 
ENDBRANCH   6   9
BRANCH   2  20
ATOM     20  C   UNL     1     -12.016   6.555 129.780  0.00  0.00    +0.000 A 
ATOM     21  C   UNL     1     -12.194   6.757 128.408  0.00  0.00    +0.000 A 
ATOM     22  C   UNL     1     -12.713   7.961 127.920  0.00  0.00    +0.000 A 
ATOM     23  C   UNL     1     -13.025   8.982 128.831  0.00  0.00    +0.000 A 
ATOM     24  C   UNL     1     -13.547  10.297 128.729  0.00  0.00    +0.000 A 
ATOM     25  C   UNL     1     -13.589  10.798 130.009  0.00  0.00    +0.000 A 
ATOM     26  O   UNL     1     -13.135   9.877 130.901  0.00  0.00    +0.000 OA
ATOM     27  C   UNL     1     -12.799   8.763 130.186  0.00  0.00    +0.000 A 
ATOM     28  C   UNL     1     -12.293   7.573 130.711  0.00  0.00    +0.000 A 
ENDBRANCH   2  20
TORSDOF 2
ENDMDL
MODEL 9
REMARK VINA RESULT:      -8.5      1.563      1.994
REMARK  Name = CHEMBL31691
REMARK  2 active torsions:
REMARK  status: ('A' for Active; 'I' for Inactive)
REMARK    1  A    between atoms: C_2  and  C_3
REMARK    2  A    between atoms: C_15  and  N_16
REMARK                            x       y       z     vdW  Elec       q    Type
REMARK                         _______ _______ _______ _____ _____    ______ ____
ROOT
ATOM      1  O   UNL     1      -8.716   3.983 124.834  0.00  0.00    +0.000 OA
ATOM      2  C   UNL     1      -8.036   3.146 124.249  0.00  0.00    +0.000 C 
ATOM      3  N   UNL     1      -7.747   1.900 124.768  0.00  0.00    +0.000 N 
ATOM      4  C   UNL     1      -6.419   1.276 124.721  0.00  0.00    +0.000 C 
ATOM      5  C   UNL     1      -6.564  -0.181 124.325  0.00  0.00    +0.000 C 
ATOM      6  C   UNL     1      -7.582  -0.914 125.234  0.00  0.00    +0.000 C 
ATOM      7  C   UNL     1      -8.917  -0.155 125.278  0.00  0.00    +0.000 C 
ATOM      8  C   UNL     1      -8.737   1.305 125.652  0.00  0.00    +0.000 C 
ENDROOT
BRANCH   6   9
ATOM      9  N   UNL     1      -7.015  -1.287 126.569  0.00  0.00    +0.000 N 
ATOM     10  C   UNL     1      -5.986  -0.583 127.206  0.00  0.00    +0.000 C 
ATOM     11  O   UNL     1      -5.782   0.622 127.228  0.00  0.00    +0.000 OA
ATOM     12  O   UNL     1      -5.069  -1.392 127.792  0.00  0.00    +0.000 OA
ATOM     13  C   UNL     1      -5.640  -2.024 128.913  0.00  0.00    +0.000 C 
ATOM     14  C   UNL     1      -6.900  -2.725 128.520  0.00  0.00    +0.000 A 
ATOM     15  C   UNL     1      -7.411  -3.707 129.371  0.00  0.00    +0.000 A 
ATOM     16  C   UNL     1      -8.591  -4.355 129.042  0.00  0.00    +0.000 A 
ATOM     17  C   UNL     1      -9.263  -4.016 127.870  0.00  0.00    +0.000 A 
ATOM     18  C   UNL     1      -8.758  -3.027 127.018  0.00  0.00    +0.000 A 
ATOM     19  C   UNL     1      -7.567  -2.368 127.332  0.00  0.00    +0.000 A 
ENDBRANCH   6   9
BRANCH   2  20
ATOM     20  C   UNL     1      -7.668   3.400 122.836  0.00  0.00    +0.000 A 
ATOM     21  C   UNL     1      -6.332   3.708 122.562  0.00  0.00    +0.000 A 
ATOM     22  C   UNL     1      -5.923   4.058 121.271  0.00  0.00    +0.000 A 
ATOM     23  C   UNL     1      -6.888   4.128 120.252  0.00  0.00    +0.000 A 
ATOM     24  C   UNL     1      -6.868   4.440 118.869  0.00  0.00    +0.000 A 
ATOM     25  C   UNL     1      -8.170   4.357 118.434  0.00  0.00    +0.000 A 
ATOM     26  O   UNL     1      -8.996   4.005 119.457  0.00  0.00    +0.000 OA
ATOM     27  C   UNL     1      -8.215   3.855 120.566  0.00  0.00    +0.000 A 
ATOM     28  C   UNL     1      -8.658   3.493 121.839  0.00  0.00    +0.000 A 
ENDBRANCH   2  20
TORSDOF 2
ENDMDL
