MODEL 1
REMARK VINA RESULT:      -8.9      0.000      0.000
REMARK  Name = CHEMBL458872
REMARK  11 active torsions:
REMARK  status: ('A' for Active; 'I' for Inactive)
REMARK    1  A    between atoms: C_1  and  O_2
REMARK    2  A    between atoms: O_2  and  C_3
REMARK    3  A    between atoms: C_6  and  N_7
REMARK    4  A    between atoms: N_7  and  C_8
REMARK    5  A    between atoms: N_7  and  S_22
REMARK    6  A    between atoms: C_8  and  C_9
REMARK    7  A    between atoms: C_12  and  C_13
REMARK    8  A    between atoms: C_18  and  C_19
REMARK    9  A    between atoms: S_22  and  C_25
REMARK   10  A    between atoms: C_29  and  S_30
REMARK   11  A    between atoms: S_30  and  C_31
REMARK                            x       y       z     vdW  Elec       q    Type
REMARK                         _______ _______ _______ _____ _____    ______ ____
ROOT
ATOM      1  N   UNL     1      -9.909   4.999 131.689  0.00  0.00    +0.000 N 
ENDROOT
BRANCH   1   5
ATOM      2  C   UNL     1     -12.554   7.714 129.716  0.00  0.00    +0.000 A 
ATOM      3  C   UNL     1     -12.754   7.469 131.067  0.00  0.00    +0.000 A 
ATOM      4  C   UNL     1     -11.898   6.579 131.759  0.00  0.00    +0.000 A 
ATOM      5  C   UNL     1     -10.831   5.983 131.105  0.00  0.00    +0.000 A 
ATOM      6  C   UNL     1     -10.675   6.481 129.819  0.00  0.00    +0.000 A 
ATOM      7  N   UNL     1     -11.505   7.240 129.075  0.00  0.00    +0.000 NA
BRANCH   2   9
ATOM      8  C   UNL     1     -13.589   7.774 127.653  0.00  0.00    +0.000 C 
ATOM      9  O   UNL     1     -13.382   8.408 128.898  0.00  0.00    +0.000 OA
ENDBRANCH   2   9
ENDBRANCH   1   5
BRANCH   1  10
ATOM     10  S   UNL     1      -9.647   3.511 130.861  0.00  0.00    +0.000 S 
ATOM     11  O   UNL     1      -9.181   2.563 131.860  0.00  0.00    +0.000 OA
ATOM     12  O   UNL     1     -10.839   3.218 130.093  0.00  0.00    +0.000 OA
BRANCH  10  13
ATOM     13  C   UNL     1      -8.296   3.566 129.659  0.00  0.00    +0.000 A 
ATOM     14  C   UNL     1      -6.999   3.239 130.071  0.00  0.00    +0.000 A 
ATOM     15  C   UNL     1      -5.908   3.455 129.200  0.00  0.00    +0.000 A 
ATOM     16  C   UNL     1      -6.100   3.918 127.889  0.00  0.00    +0.000 A 
ATOM     17  C   UNL     1      -7.384   4.216 127.482  0.00  0.00    +0.000 A 
ATOM     18  C   UNL     1      -8.440   4.046 128.368  0.00  0.00    +0.000 A 
BRANCH  17  19
ATOM     19  S   UNL     1      -7.791   4.843 125.861  0.00  0.00    +0.000 S 
ATOM     20  C   UNL     1      -8.195   3.412 124.905  0.00  0.00    +0.000 C 
ATOM     21  O   UNL     1      -8.979   5.666 126.019  0.00  0.00    +0.000 OA
ATOM     22  O   UNL     1      -6.579   5.399 125.294  0.00  0.00    +0.000 OA
ENDBRANCH  17  19
ENDBRANCH  10  13
ENDBRANCH   1  10
BRANCH   1  23
ATOM     23  C   UNL     1      -9.119   5.282 132.923  0.00  0.00    +0.000 C 
BRANCH  23  24
ATOM     24  C   UNL     1      -7.748   5.920 132.942  0.00  0.00    +0.000 A 
ATOM     25  C   UNL     1      -7.249   6.437 131.734  0.00  0.00    +0.000 A 
ATOM     26  C   UNL     1      -5.876   6.540 131.588  0.00  0.00    +0.000 A 
ATOM     27  C   UNL     1      -5.033   6.172 132.645  0.00  0.00    +0.000 A 
ATOM     28  C   UNL     1      -5.631   5.752 133.833  0.00  0.00    +0.000 A 
ATOM     29  N   UNL     1      -6.970   5.664 134.020  0.00  0.00    +0.000 NA
BRANCH  27  30
ATOM     30  C   UNL     1      -3.583   6.302 132.533  0.00  0.00    +0.000 A 
ATOM     31  C   UNL     1      -2.944   7.541 132.723  0.00  0.00    +0.000 A 
ATOM     32  C   UNL     1      -1.564   7.655 132.549  0.00  0.00    +0.000 A 
ATOM     33  C   UNL     1      -0.813   6.538 132.196  0.00  0.00    +0.000 A 
ATOM     34  C   UNL     1      -1.434   5.303 132.014  0.00  0.00    +0.000 A 
ATOM     35  C   UNL     1      -2.816   5.172 132.176  0.00  0.00    +0.000 A 
ATOM     36  C   UNL     1      -3.474   3.838 131.928  0.00  0.00    +0.000 C 
ENDBRANCH  27  30
ENDBRANCH  23  24
ENDBRANCH   1  23
TORSDOF 8
ENDMDL
MODEL 2
REMARK VINA RESULT:      -8.7      2.792      5.207
REMARK  Name = CHEMBL458872
REMARK  11 active torsions:
REMARK  status: ('A' for Active; 'I' for Inactive)
REMARK    1  A    between atoms: C_1  and  O_2
REMARK    2  A    between atoms: O_2  and  C_3
REMARK    3  A    between atoms: C_6  and  N_7
REMARK    4  A    between atoms: N_7  and  C_8
REMARK    5  A    between atoms: N_7  and  S_22
REMARK    6  A    between atoms: C_8  and  C_9
REMARK    7  A    between atoms: C_12  and  C_13
REMARK    8  A    between atoms: C_18  and  C_19
REMARK    9  A    between atoms: S_22  and  C_25
REMARK   10  A    between atoms: C_29  and  S_30
REMARK   11  A    between atoms: S_30  and  C_31
REMARK                            x       y       z     vdW  Elec       q    Type
REMARK                         _______ _______ _______ _____ _____    ______ ____
ROOT
ATOM      1  N   UNL     1      -9.966   5.308 131.130  0.00  0.00    +0.000 N 
ENDROOT
BRANCH   1   5
ATOM      2  C   UNL     1     -12.457   8.477 129.709  0.00  0.00    +0.000 A 
ATOM      3  C   UNL     1     -12.910   7.714 130.777  0.00  0.00    +0.000 A 
ATOM      4  C   UNL     1     -12.114   6.658 131.280  0.00  0.00    +0.000 A 
ATOM      5  C   UNL     1     -10.861   6.406 130.742  0.00  0.00    +0.000 A 
ATOM      6  C   UNL     1     -10.499   7.373 129.815  0.00  0.00    +0.000 A 
ATOM      7  N   UNL     1     -11.241   8.331 129.223  0.00  0.00    +0.000 NA
BRANCH   2   9
ATOM      8  C   UNL     1     -13.410  10.578 129.775  0.00  0.00    +0.000 C 
ATOM      9  O   UNL     1     -13.173   9.403 129.028  0.00  0.00    +0.000 OA
ENDBRANCH   2   9
ENDBRANCH   1   5
BRANCH   1  10
ATOM     10  S   UNL     1      -9.080   5.438 132.602  0.00  0.00    +0.000 S 
ATOM     11  O   UNL     1      -9.645   6.568 133.321  0.00  0.00    +0.000 OA
ATOM     12  O   UNL     1      -9.060   4.130 133.222  0.00  0.00    +0.000 OA
BRANCH  10  13
ATOM     13  C   UNL     1      -7.344   5.896 132.377  0.00  0.00    +0.000 A 
ATOM     14  C   UNL     1      -6.967   6.610 131.235  0.00  0.00    +0.000 A 
ATOM     15  C   UNL     1      -5.598   6.814 130.952  0.00  0.00    +0.000 A 
ATOM     16  C   UNL     1      -4.597   6.384 131.836  0.00  0.00    +0.000 A 
ATOM     17  C   UNL     1      -4.977   5.700 132.972  0.00  0.00    +0.000 A 
ATOM     18  C   UNL     1      -6.325   5.464 133.211  0.00  0.00    +0.000 A 
BRANCH  17  19
ATOM     19  S   UNL     1      -3.827   5.061 134.179  0.00  0.00    +0.000 S 
ATOM     20  C   UNL     1      -3.166   3.593 133.449  0.00  0.00    +0.000 C 
ATOM     21  O   UNL     1      -2.770   6.051 134.310  0.00  0.00    +0.000 OA
ATOM     22  O   UNL     1      -4.597   4.647 135.334  0.00  0.00    +0.000 OA
ENDBRANCH  17  19
ENDBRANCH  10  13
ENDBRANCH   1  10
BRANCH   1  23
ATOM     23  C   UNL     1      -9.868   4.043 130.344  0.00  0.00    +0.000 C 
BRANCH  23  24
ATOM     24  C   UNL     1      -8.642   3.594 129.581  0.00  0.00    +0.000 A 
ATOM     25  C   UNL     1      -7.671   2.855 130.278  0.00  0.00    +0.000 A 
ATOM     26  C   UNL     1      -6.371   2.880 129.804  0.00  0.00    +0.000 A 
ATOM     27  C   UNL     1      -6.067   3.594 128.637  0.00  0.00    +0.000 A 
ATOM     28  C   UNL     1      -7.119   4.225 127.973  0.00  0.00    +0.000 A 
ATOM     29  N   UNL     1      -8.407   4.200 128.393  0.00  0.00    +0.000 NA
BRANCH  27  30
ATOM     30  C   UNL     1      -4.712   3.610 128.095  0.00  0.00    +0.000 A 
ATOM     31  C   UNL     1      -3.792   4.611 128.459  0.00  0.00    +0.000 A 
ATOM     32  C   UNL     1      -2.522   4.642 127.881  0.00  0.00    +0.000 A 
ATOM     33  C   UNL     1      -2.158   3.675 126.949  0.00  0.00    +0.000 A 
ATOM     34  C   UNL     1      -3.057   2.673 126.588  0.00  0.00    +0.000 A 
ATOM     35  C   UNL     1      -4.336   2.631 127.150  0.00  0.00    +0.000 A 
ATOM     36  C   UNL     1      -5.310   1.567 126.711  0.00  0.00    +0.000 C 
ENDBRANCH  27  30
ENDBRANCH  23  24
ENDBRANCH   1  23
TORSDOF 8
ENDMDL
MODEL 3
REMARK VINA RESULT:      -8.7      3.836      8.186
REMARK  Name = CHEMBL458872
REMARK  11 active torsions:
REMARK  status: ('A' for Active; 'I' for Inactive)
REMARK    1  A    between atoms: C_1  and  O_2
REMARK    2  A    between atoms: O_2  and  C_3
REMARK    3  A    between atoms: C_6  and  N_7
REMARK    4  A    between atoms: N_7  and  C_8
REMARK    5  A    between atoms: N_7  and  S_22
REMARK    6  A    between atoms: C_8  and  C_9
REMARK    7  A    between atoms: C_12  and  C_13
REMARK    8  A    between atoms: C_18  and  C_19
REMARK    9  A    between atoms: S_22  and  C_25
REMARK   10  A    between atoms: C_29  and  S_30
REMARK   11  A    between atoms: S_30  and  C_31
REMARK                            x       y       z     vdW  Elec       q    Type
REMARK                         _______ _______ _______ _____ _____    ______ ____
ROOT
ATOM      1  N   UNL     1      -7.232   3.884 129.812  0.00  0.00    +0.000 N 
ENDROOT
BRANCH   1   5
ATOM      2  C   UNL     1      -3.925   3.538 127.127  0.00  0.00    +0.000 A 
ATOM      3  C   UNL     1      -3.857   2.869 128.341  0.00  0.00    +0.000 A 
ATOM      4  C   UNL     1      -4.932   2.955 129.258  0.00  0.00    +0.000 A 
ATOM      5  C   UNL     1      -6.076   3.668 128.931  0.00  0.00    +0.000 A 
ATOM      6  C   UNL     1      -6.045   4.112 127.617  0.00  0.00    +0.000 A 
ATOM      7  N   UNL     1      -5.023   4.154 126.738  0.00  0.00    +0.000 NA
BRANCH   2   9
ATOM      8  C   UNL     1      -1.710   3.081 126.664  0.00  0.00    +0.000 C 
ATOM      9  O   UNL     1      -2.917   3.676 126.233  0.00  0.00    +0.000 OA
ENDBRANCH   2   9
ENDBRANCH   1   5
BRANCH   1  10
ATOM     10  S   UNL     1      -7.291   5.312 130.773  0.00  0.00    +0.000 S 
ATOM     11  O   UNL     1      -6.996   4.902 132.135  0.00  0.00    +0.000 OA
ATOM     12  O   UNL     1      -6.464   6.311 130.129  0.00  0.00    +0.000 OA
BRANCH  10  13
ATOM     13  C   UNL     1      -8.938   6.050 130.893  0.00  0.00    +0.000 A 
ATOM     14  C   UNL     1      -9.653   5.938 132.091  0.00  0.00    +0.000 A 
ATOM     15  C   UNL     1     -11.005   6.342 132.145  0.00  0.00    +0.000 A 
ATOM     16  C   UNL     1     -11.635   6.934 131.040  0.00  0.00    +0.000 A 
ATOM     17  C   UNL     1     -10.918   7.062 129.869  0.00  0.00    +0.000 A 
ATOM     18  C   UNL     1      -9.604   6.614 129.818  0.00  0.00    +0.000 A 
BRANCH  17  19
ATOM     19  S   UNL     1     -11.584   7.763 128.368  0.00  0.00    +0.000 S 
ATOM     20  C   UNL     1     -12.902   8.814 128.899  0.00  0.00    +0.000 C 
ATOM     21  O   UNL     1     -10.528   8.574 127.784  0.00  0.00    +0.000 OA
ATOM     22  O   UNL     1     -12.186   6.682 127.615  0.00  0.00    +0.000 OA
ENDBRANCH  17  19
ENDBRANCH  10  13
ENDBRANCH   1  10
BRANCH   1  23
ATOM     23  C   UNL     1      -8.402   2.957 129.832  0.00  0.00    +0.000 C 
BRANCH  23  24
ATOM     24  C   UNL     1      -8.521   1.700 129.000  0.00  0.00    +0.000 A 
ATOM     25  C   UNL     1      -7.905   0.533 129.484  0.00  0.00    +0.000 A 
ATOM     26  C   UNL     1      -7.548  -0.442 128.568  0.00  0.00    +0.000 A 
ATOM     27  C   UNL     1      -7.842  -0.264 127.210  0.00  0.00    +0.000 A 
ATOM     28  C   UNL     1      -8.532   0.892 126.843  0.00  0.00    +0.000 A 
ATOM     29  N   UNL     1      -8.920   1.854 127.715  0.00  0.00    +0.000 NA
BRANCH  27  30
ATOM     30  C   UNL     1      -7.508  -1.290 126.226  0.00  0.00    +0.000 A 
ATOM     31  C   UNL     1      -8.397  -2.342 125.938  0.00  0.00    +0.000 A 
ATOM     32  C   UNL     1      -8.031  -3.346 125.040  0.00  0.00    +0.000 A 
ATOM     33  C   UNL     1      -6.786  -3.303 124.418  0.00  0.00    +0.000 A 
ATOM     34  C   UNL     1      -5.901  -2.261 124.689  0.00  0.00    +0.000 A 
ATOM     35  C   UNL     1      -6.247  -1.251 125.592  0.00  0.00    +0.000 A 
ATOM     36  C   UNL     1      -5.257  -0.159 125.906  0.00  0.00    +0.000 C 
ENDBRANCH  27  30
ENDBRANCH  23  24
ENDBRANCH   1  23
TORSDOF 8
ENDMDL
MODEL 4
REMARK VINA RESULT:      -8.7      5.184      8.612
REMARK  Name = CHEMBL458872
REMARK  11 active torsions:
REMARK  status: ('A' for Active; 'I' for Inactive)
REMARK    1  A    between atoms: C_1  and  O_2
REMARK    2  A    between atoms: O_2  and  C_3
REMARK    3  A    between atoms: C_6  and  N_7
REMARK    4  A    between atoms: N_7  and  C_8
REMARK    5  A    between atoms: N_7  and  S_22
REMARK    6  A    between atoms: C_8  and  C_9
REMARK    7  A    between atoms: C_12  and  C_13
REMARK    8  A    between atoms: C_18  and  C_19
REMARK    9  A    between atoms: S_22  and  C_25
REMARK   10  A    between atoms: C_29  and  S_30
REMARK   11  A    between atoms: S_30  and  C_31
REMARK                            x       y       z     vdW  Elec       q    Type
REMARK                         _______ _______ _______ _____ _____    ______ ____
ROOT
ATOM      1  N   UNL     1      -6.986   3.234 124.839  0.00  0.00    +0.000 N 
ENDROOT
BRANCH   1   5
ATOM      2  C   UNL     1      -7.279   3.878 120.625  0.00  0.00    +0.000 A 
ATOM      3  C   UNL     1      -6.023   3.942 121.212  0.00  0.00    +0.000 A 
ATOM      4  C   UNL     1      -5.882   3.732 122.605  0.00  0.00    +0.000 A 
ATOM      5  C   UNL     1      -6.987   3.416 123.381  0.00  0.00    +0.000 A 
ATOM      6  C   UNL     1      -8.118   3.214 122.604  0.00  0.00    +0.000 A 
ATOM      7  N   UNL     1      -8.341   3.497 121.304  0.00  0.00    +0.000 NA
BRANCH   2   9
ATOM      8  C   UNL     1      -8.972   4.269 119.105  0.00  0.00    +0.000 C 
ATOM      9  O   UNL     1      -7.581   4.213 119.347  0.00  0.00    +0.000 OA
ENDBRANCH   2   9
ENDBRANCH   1   5
BRANCH   1  10
ATOM     10  S   UNL     1      -6.494   4.545 125.842  0.00  0.00    +0.000 S 
ATOM     11  O   UNL     1      -6.442   5.718 124.985  0.00  0.00    +0.000 OA
ATOM     12  O   UNL     1      -7.345   4.549 127.013  0.00  0.00    +0.000 OA
BRANCH  10  13
ATOM     13  C   UNL     1      -4.804   4.397 126.469  0.00  0.00    +0.000 A 
ATOM     14  C   UNL     1      -3.948   3.441 125.912  0.00  0.00    +0.000 A 
ATOM     15  C   UNL     1      -2.694   3.184 126.509  0.00  0.00    +0.000 A 
ATOM     16  C   UNL     1      -2.244   3.927 127.612  0.00  0.00    +0.000 A 
ATOM     17  C   UNL     1      -3.084   4.883 128.143  0.00  0.00    +0.000 A 
ATOM     18  C   UNL     1      -4.335   5.089 127.574  0.00  0.00    +0.000 A 
BRANCH  17  19
ATOM     19  S   UNL     1      -2.674   5.888 129.560  0.00  0.00    +0.000 S 
ATOM     20  C   UNL     1      -4.045   6.986 129.754  0.00  0.00    +0.000 C 
ATOM     21  O   UNL     1      -2.610   4.991 130.702  0.00  0.00    +0.000 OA
ATOM     22  O   UNL     1      -1.532   6.703 129.197  0.00  0.00    +0.000 OA
ENDBRANCH  17  19
ENDBRANCH  10  13
ENDBRANCH   1  10
BRANCH   1  23
ATOM     23  C   UNL     1      -7.487   1.986 125.486  0.00  0.00    +0.000 C 
BRANCH  23  24
ATOM     24  C   UNL     1      -6.630   1.014 126.266  0.00  0.00    +0.000 A 
ATOM     25  C   UNL     1      -6.311  -0.212 125.657  0.00  0.00    +0.000 A 
ATOM     26  C   UNL     1      -6.004  -1.285 126.478  0.00  0.00    +0.000 A 
ATOM     27  C   UNL     1      -5.977  -1.114 127.868  0.00  0.00    +0.000 A 
ATOM     28  C   UNL     1      -6.225   0.165 128.368  0.00  0.00    +0.000 A 
ATOM     29  N   UNL     1      -6.504   1.242 127.595  0.00  0.00    +0.000 NA
BRANCH  27  30
ATOM     30  C   UNL     1      -5.622  -2.217 128.756  0.00  0.00    +0.000 A 
ATOM     31  C   UNL     1      -4.278  -2.531 129.029  0.00  0.00    +0.000 A 
ATOM     32  C   UNL     1      -3.961  -3.629 129.831  0.00  0.00    +0.000 A 
ATOM     33  C   UNL     1      -4.978  -4.412 130.371  0.00  0.00    +0.000 A 
ATOM     34  C   UNL     1      -6.313  -4.105 130.115  0.00  0.00    +0.000 A 
ATOM     35  C   UNL     1      -6.648  -3.014 129.308  0.00  0.00    +0.000 A 
ATOM     36  C   UNL     1      -8.097  -2.728 129.004  0.00  0.00    +0.000 C 
ENDBRANCH  27  30
ENDBRANCH  23  24
ENDBRANCH   1  23
TORSDOF 8
ENDMDL
MODEL 5
REMARK VINA RESULT:      -8.5      2.931      7.456
REMARK  Name = CHEMBL458872
REMARK  11 active torsions:
REMARK  status: ('A' for Active; 'I' for Inactive)
REMARK    1  A    between atoms: C_1  and  O_2
REMARK    2  A    between atoms: O_2  and  C_3
REMARK    3  A    between atoms: C_6  and  N_7
REMARK    4  A    between atoms: N_7  and  C_8
REMARK    5  A    between atoms: N_7  and  S_22
REMARK    6  A    between atoms: C_8  and  C_9
REMARK    7  A    between atoms: C_12  and  C_13
REMARK    8  A    between atoms: C_18  and  C_19
REMARK    9  A    between atoms: S_22  and  C_25
REMARK   10  A    between atoms: C_29  and  S_30
REMARK   11  A    between atoms: S_30  and  C_31
REMARK                            x       y       z     vdW  Elec       q    Type
REMARK                         _______ _______ _______ _____ _____    ______ ____
ROOT
ATOM      1  N   UNL     1      -4.340   5.285 129.844  0.00  0.00    +0.000 N 
ENDROOT
BRANCH   1   5
ATOM      2  C   UNL     1      -1.582   7.418 132.316  0.00  0.00    +0.000 A 
ATOM      3  C   UNL     1      -2.735   8.071 131.905  0.00  0.00    +0.000 A 
ATOM      4  C   UNL     1      -3.676   7.400 131.089  0.00  0.00    +0.000 A 
ATOM      5  C   UNL     1      -3.475   6.075 130.732  0.00  0.00    +0.000 A 
ATOM      6  C   UNL     1      -2.374   5.533 131.378  0.00  0.00    +0.000 A 
ATOM      7  N   UNL     1      -1.390   6.137 132.075  0.00  0.00    +0.000 NA
BRANCH   2   9
ATOM      8  C   UNL     1      -0.762   9.324 133.329  0.00  0.00    +0.000 C 
ATOM      9  O   UNL     1      -0.529   7.981 132.957  0.00  0.00    +0.000 OA
ENDBRANCH   2   9
ENDBRANCH   1   5
BRANCH   1  10
ATOM     10  S   UNL     1      -3.955   5.201 128.167  0.00  0.00    +0.000 S 
ATOM     11  O   UNL     1      -4.501   6.403 127.560  0.00  0.00    +0.000 OA
ATOM     12  O   UNL     1      -2.539   4.919 128.053  0.00  0.00    +0.000 OA
BRANCH  10  13
ATOM     13  C   UNL     1      -4.790   3.858 127.288  0.00  0.00    +0.000 A 
ATOM     14  C   UNL     1      -4.200   2.590 127.256  0.00  0.00    +0.000 A 
ATOM     15  C   UNL     1      -4.739   1.583 126.425  0.00  0.00    +0.000 A 
ATOM     16  C   UNL     1      -5.911   1.798 125.683  0.00  0.00    +0.000 A 
ATOM     17  C   UNL     1      -6.500   3.043 125.737  0.00  0.00    +0.000 A 
ATOM     18  C   UNL     1      -5.929   4.038 126.521  0.00  0.00    +0.000 A 
BRANCH  17  19
ATOM     19  S   UNL     1      -7.973   3.486 124.830  0.00  0.00    +0.000 S 
ATOM     20  C   UNL     1      -9.022   2.068 124.941  0.00  0.00    +0.000 C 
ATOM     21  O   UNL     1      -8.585   4.594 125.545  0.00  0.00    +0.000 OA
ATOM     22  O   UNL     1      -7.599   3.624 123.438  0.00  0.00    +0.000 OA
ENDBRANCH  17  19
ENDBRANCH  10  13
ENDBRANCH   1  10
BRANCH   1  23
ATOM     23  C   UNL     1      -5.484   4.477 130.359  0.00  0.00    +0.000 C 
BRANCH  23  24
ATOM     24  C   UNL     1      -6.899   4.986 130.515  0.00  0.00    +0.000 A 
ATOM     25  C   UNL     1      -7.905   4.366 129.755  0.00  0.00    +0.000 A 
ATOM     26  C   UNL     1      -9.049   5.093 129.472  0.00  0.00    +0.000 A 
ATOM     27  C   UNL     1      -9.191   6.393 129.977  0.00  0.00    +0.000 A 
ATOM     28  C   UNL     1      -8.171   6.886 130.791  0.00  0.00    +0.000 A 
ATOM     29  N   UNL     1      -7.052   6.193 131.110  0.00  0.00    +0.000 NA
BRANCH  27  30
ATOM     30  C   UNL     1     -10.400   7.171 129.723  0.00  0.00    +0.000 A 
ATOM     31  C   UNL     1     -10.510   8.001 128.593  0.00  0.00    +0.000 A 
ATOM     32  C   UNL     1     -11.651   8.784 128.403  0.00  0.00    +0.000 A 
ATOM     33  C   UNL     1     -12.688   8.736 129.329  0.00  0.00    +0.000 A 
ATOM     34  C   UNL     1     -12.595   7.910 130.448  0.00  0.00    +0.000 A 
ATOM     35  C   UNL     1     -11.457   7.126 130.658  0.00  0.00    +0.000 A 
ATOM     36  C   UNL     1     -11.356   6.275 131.899  0.00  0.00    +0.000 C 
ENDBRANCH  27  30
ENDBRANCH  23  24
ENDBRANCH   1  23
TORSDOF 8
ENDMDL
MODEL 6
REMARK VINA RESULT:      -8.4      3.753      7.343
REMARK  Name = CHEMBL458872
REMARK  11 active torsions:
REMARK  status: ('A' for Active; 'I' for Inactive)
REMARK    1  A    between atoms: C_1  and  O_2
REMARK    2  A    between atoms: O_2  and  C_3
REMARK    3  A    between atoms: C_6  and  N_7
REMARK    4  A    between atoms: N_7  and  C_8
REMARK    5  A    between atoms: N_7  and  S_22
REMARK    6  A    between atoms: C_8  and  C_9
REMARK    7  A    between atoms: C_12  and  C_13
REMARK    8  A    between atoms: C_18  and  C_19
REMARK    9  A    between atoms: S_22  and  C_25
REMARK   10  A    between atoms: C_29  and  S_30
REMARK   11  A    between atoms: S_30  and  C_31
REMARK                            x       y       z     vdW  Elec       q    Type
REMARK                         _______ _______ _______ _____ _____    ______ ____
ROOT
ATOM      1  N   UNL     1      -6.614   4.600 130.747  0.00  0.00    +0.000 N 
ENDROOT
BRANCH   1   5
ATOM      2  C   UNL     1      -6.121   4.155 126.525  0.00  0.00    +0.000 A 
ATOM      3  C   UNL     1      -7.409   4.133 127.041  0.00  0.00    +0.000 A 
ATOM      4  C   UNL     1      -7.616   4.280 128.433  0.00  0.00    +0.000 A 
ATOM      5  C   UNL     1      -6.541   4.492 129.283  0.00  0.00    +0.000 A 
ATOM      6  C   UNL     1      -5.359   4.667 128.579  0.00  0.00    +0.000 A 
ATOM      7  N   UNL     1      -5.079   4.439 127.280  0.00  0.00    +0.000 NA
BRANCH   2   9
ATOM      8  C   UNL     1      -6.106   2.552 124.864  0.00  0.00    +0.000 C 
ATOM      9  O   UNL     1      -5.766   3.867 125.250  0.00  0.00    +0.000 OA
ENDBRANCH   2   9
ENDBRANCH   1   5
BRANCH   1  10
ATOM     10  S   UNL     1      -7.055   6.110 131.449  0.00  0.00    +0.000 S 
ATOM     11  O   UNL     1      -6.823   5.982 132.878  0.00  0.00    +0.000 OA
ATOM     12  O   UNL     1      -6.385   7.156 130.703  0.00  0.00    +0.000 OA
BRANCH  10  13
ATOM     13  C   UNL     1      -8.821   6.486 131.333  0.00  0.00    +0.000 A 
ATOM     14  C   UNL     1      -9.665   6.144 132.395  0.00  0.00    +0.000 A 
ATOM     15  C   UNL     1     -11.065   6.259 132.247  0.00  0.00    +0.000 A 
ATOM     16  C   UNL     1     -11.635   6.790 131.080  0.00  0.00    +0.000 A 
ATOM     17  C   UNL     1     -10.796   7.147 130.045  0.00  0.00    +0.000 A 
ATOM     18  C   UNL     1      -9.424   6.980 130.188  0.00  0.00    +0.000 A 
BRANCH  17  19
ATOM     19  S   UNL     1     -11.365   7.805 128.487  0.00  0.00    +0.000 S 
ATOM     20  C   UNL     1     -12.666   8.924 128.910  0.00  0.00    +0.000 C 
ATOM     21  O   UNL     1     -10.254   8.552 127.920  0.00  0.00    +0.000 OA
ATOM     22  O   UNL     1     -11.972   6.715 127.751  0.00  0.00    +0.000 OA
ENDBRANCH  17  19
ENDBRANCH  10  13
ENDBRANCH   1  10
BRANCH   1  23
ATOM     23  C   UNL     1      -6.412   3.424 131.644  0.00  0.00    +0.000 C 
BRANCH  23  24
ATOM     24  C   UNL     1      -6.698   1.989 131.262  0.00  0.00    +0.000 A 
ATOM     25  C   UNL     1      -5.651   1.241 130.695  0.00  0.00    +0.000 A 
ATOM     26  C   UNL     1      -5.984   0.167 129.887  0.00  0.00    +0.000 A 
ATOM     27  C   UNL     1      -7.330  -0.169 129.692  0.00  0.00    +0.000 A 
ATOM     28  C   UNL     1      -8.289   0.585 130.368  0.00  0.00    +0.000 A 
ATOM     29  N   UNL     1      -8.000   1.625 131.186  0.00  0.00    +0.000 NA
BRANCH  27  30
ATOM     30  C   UNL     1      -7.709  -1.317 128.874  0.00  0.00    +0.000 A 
ATOM     31  C   UNL     1      -7.995  -1.174 127.503  0.00  0.00    +0.000 A 
ATOM     32  C   UNL     1      -8.416  -2.274 126.754  0.00  0.00    +0.000 A 
ATOM     33  C   UNL     1      -8.543  -3.520 127.360  0.00  0.00    +0.000 A 
ATOM     34  C   UNL     1      -8.253  -3.676 128.714  0.00  0.00    +0.000 A 
ATOM     35  C   UNL     1      -7.838  -2.584 129.482  0.00  0.00    +0.000 A 
ATOM     36  C   UNL     1      -7.575  -2.764 130.956  0.00  0.00    +0.000 C 
ENDBRANCH  27  30
ENDBRANCH  23  24
ENDBRANCH   1  23
TORSDOF 8
ENDMDL
MODEL 7
REMARK VINA RESULT:      -8.4      4.876      8.484
REMARK  Name = CHEMBL458872
REMARK  11 active torsions:
REMARK  status: ('A' for Active; 'I' for Inactive)
REMARK    1  A    between atoms: C_1  and  O_2
REMARK    2  A    between atoms: O_2  and  C_3
REMARK    3  A    between atoms: C_6  and  N_7
REMARK    4  A    between atoms: N_7  and  C_8
REMARK    5  A    between atoms: N_7  and  S_22
REMARK    6  A    between atoms: C_8  and  C_9
REMARK    7  A    between atoms: C_12  and  C_13
REMARK    8  A    between atoms: C_18  and  C_19
REMARK    9  A    between atoms: S_22  and  C_25
REMARK   10  A    between atoms: C_29  and  S_30
REMARK   11  A    between atoms: S_30  and  C_31
REMARK                            x       y       z     vdW  Elec       q    Type
REMARK                         _______ _______ _______ _____ _____    ______ ____
ROOT
ATOM      1  N   UNL     1      -7.901   1.797 130.902  0.00  0.00    +0.000 N 
ENDROOT
BRANCH   1   5
ATOM      2  C   UNL     1     -10.167   5.289 131.871  0.00  0.00    +0.000 A 
ATOM      3  C   UNL     1     -10.570   4.526 130.783  0.00  0.00    +0.000 A 
ATOM      4  C   UNL     1      -9.849   3.360 130.430  0.00  0.00    +0.000 A 
ATOM      5  C   UNL     1      -8.766   2.948 131.193  0.00  0.00    +0.000 A 
ATOM      6  C   UNL     1      -8.622   3.721 132.337  0.00  0.00    +0.000 A 
ATOM      7  N   UNL     1      -9.201   4.891 132.673  0.00  0.00    +0.000 NA
BRANCH   2   9
ATOM      8  C   UNL     1     -11.919   6.775 131.648  0.00  0.00    +0.000 C 
ATOM      9  O   UNL     1     -10.658   6.501 132.222  0.00  0.00    +0.000 OA
ENDBRANCH   2   9
ENDBRANCH   1   5
BRANCH   1  10
ATOM     10  S   UNL     1      -8.140   0.334 131.780  0.00  0.00    +0.000 S 
ATOM     11  O   UNL     1      -7.413   0.482 133.029  0.00  0.00    +0.000 OA
ATOM     12  O   UNL     1      -9.562   0.062 131.805  0.00  0.00    +0.000 OA
BRANCH  10  13
ATOM     13  C   UNL     1      -7.382  -1.117 131.011  0.00  0.00    +0.000 A 
ATOM     14  C   UNL     1      -8.123  -1.873 130.096  0.00  0.00    +0.000 A 
ATOM     15  C   UNL     1      -7.618  -3.107 129.629  0.00  0.00    +0.000 A 
ATOM     16  C   UNL     1      -6.343  -3.562 129.999  0.00  0.00    +0.000 A 
ATOM     17  C   UNL     1      -5.608  -2.800 130.883  0.00  0.00    +0.000 A 
ATOM     18  C   UNL     1      -6.140  -1.614 131.373  0.00  0.00    +0.000 A 
BRANCH  17  19
ATOM     19  S   UNL     1      -3.987  -3.254 131.476  0.00  0.00    +0.000 S 
ATOM     20  C   UNL     1      -3.403  -1.832 132.347  0.00  0.00    +0.000 C 
ATOM     21  O   UNL     1      -4.177  -4.348 132.414  0.00  0.00    +0.000 OA
ATOM     22  O   UNL     1      -3.132  -3.417 130.317  0.00  0.00    +0.000 OA
ENDBRANCH  17  19
ENDBRANCH  10  13
ENDBRANCH   1  10
BRANCH   1  23
ATOM     23  C   UNL     1      -6.887   1.819 129.808  0.00  0.00    +0.000 C 
BRANCH  23  24
ATOM     24  C   UNL     1      -7.118   1.299 128.406  0.00  0.00    +0.000 A 
ATOM     25  C   UNL     1      -8.369   1.547 127.814  0.00  0.00    +0.000 A 
ATOM     26  C   UNL     1      -8.796   0.689 126.815  0.00  0.00    +0.000 A 
ATOM     27  C   UNL     1      -7.969  -0.361 126.396  0.00  0.00    +0.000 A 
ATOM     28  C   UNL     1      -6.711  -0.469 126.989  0.00  0.00    +0.000 A 
ATOM     29  N   UNL     1      -6.249   0.366 127.950  0.00  0.00    +0.000 NA
BRANCH  27  30
ATOM     30  C   UNL     1      -8.379  -1.260 125.321  0.00  0.00    +0.000 A 
ATOM     31  C   UNL     1      -9.035  -2.474 125.595  0.00  0.00    +0.000 A 
ATOM     32  C   UNL     1      -9.363  -3.347 124.556  0.00  0.00    +0.000 A 
ATOM     33  C   UNL     1      -9.049  -3.012 123.242  0.00  0.00    +0.000 A 
ATOM     34  C   UNL     1      -8.407  -1.808 122.957  0.00  0.00    +0.000 A 
ATOM     35  C   UNL     1      -8.064  -0.925 123.986  0.00  0.00    +0.000 A 
ATOM     36  C   UNL     1      -7.328   0.350 123.661  0.00  0.00    +0.000 C 
ENDBRANCH  27  30
ENDBRANCH  23  24
ENDBRANCH   1  23
TORSDOF 8
ENDMDL
MODEL 8
REMARK VINA RESULT:      -8.4      3.603      7.409
REMARK  Name = CHEMBL458872
REMARK  11 active torsions:
REMARK  status: ('A' for Active; 'I' for Inactive)
REMARK    1  A    between atoms: C_1  and  O_2
REMARK    2  A    between atoms: O_2  and  C_3
REMARK    3  A    between atoms: C_6  and  N_7
REMARK    4  A    between atoms: N_7  and  C_8
REMARK    5  A    between atoms: N_7  and  S_22
REMARK    6  A    between atoms: C_8  and  C_9
REMARK    7  A    between atoms: C_12  and  C_13
REMARK    8  A    between atoms: C_18  and  C_19
REMARK    9  A    between atoms: S_22  and  C_25
REMARK   10  A    between atoms: C_29  and  S_30
REMARK   11  A    between atoms: S_30  and  C_31
REMARK                            x       y       z     vdW  Elec       q    Type
REMARK                         _______ _______ _______ _____ _____    ______ ____
ROOT
ATOM      1  N   UNL     1      -7.943   2.045 128.391  0.00  0.00    +0.000 N 
ENDROOT
BRANCH   1   5
ATOM      2  C   UNL     1      -9.933   5.159 130.537  0.00  0.00    +0.000 A 
ATOM      3  C   UNL     1     -10.184   3.844 130.905  0.00  0.00    +0.000 A 
ATOM      4  C   UNL     1      -9.543   2.783 130.222  0.00  0.00    +0.000 A 
ATOM      5  C   UNL     1      -8.629   3.050 129.214  0.00  0.00    +0.000 A 
ATOM      6  C   UNL     1      -8.366   4.408 129.107  0.00  0.00    +0.000 A 
ATOM      7  N   UNL     1      -9.010   5.463 129.647  0.00  0.00    +0.000 NA
BRANCH   2   9
ATOM      8  C   UNL     1     -11.497   6.783 130.044  0.00  0.00    +0.000 C 
ATOM      9  O   UNL     1     -10.589   6.254 130.988  0.00  0.00    +0.000 OA
ENDBRANCH   2   9
ENDBRANCH   1   5
BRANCH   1  10
ATOM     10  S   UNL     1      -6.354   1.548 128.836  0.00  0.00    +0.000 S 
ATOM     11  O   UNL     1      -6.254   1.735 130.273  0.00  0.00    +0.000 OA
ATOM     12  O   UNL     1      -6.126   0.237 128.264  0.00  0.00    +0.000 OA
BRANCH  10  13
ATOM     13  C   UNL     1      -5.042   2.602 128.173  0.00  0.00    +0.000 A 
ATOM     14  C   UNL     1      -4.259   2.136 127.111  0.00  0.00    +0.000 A 
ATOM     15  C   UNL     1      -3.118   2.862 126.705  0.00  0.00    +0.000 A 
ATOM     16  C   UNL     1      -2.789   4.094 127.291  0.00  0.00    +0.000 A 
ATOM     17  C   UNL     1      -3.578   4.559 128.322  0.00  0.00    +0.000 A 
ATOM     18  C   UNL     1      -4.668   3.809 128.743  0.00  0.00    +0.000 A 
BRANCH  17  19
ATOM     19  S   UNL     1      -3.277   6.089 129.190  0.00  0.00    +0.000 S 
ATOM     20  C   UNL     1      -2.208   7.015 128.130  0.00  0.00    +0.000 C 
ATOM     21  O   UNL     1      -4.558   6.769 129.294  0.00  0.00    +0.000 OA
ATOM     22  O   UNL     1      -2.514   5.769 130.380  0.00  0.00    +0.000 OA
ENDBRANCH  17  19
ENDBRANCH  10  13
ENDBRANCH   1  10
BRANCH   1  23
ATOM     23  C   UNL     1      -8.609   1.369 127.239  0.00  0.00    +0.000 C 
BRANCH  23  24
ATOM     24  C   UNL     1      -8.386   1.721 125.785  0.00  0.00    +0.000 A 
ATOM     25  C   UNL     1      -7.388   1.018 125.087  0.00  0.00    +0.000 A 
ATOM     26  C   UNL     1      -6.813   1.628 123.985  0.00  0.00    +0.000 A 
ATOM     27  C   UNL     1      -7.261   2.891 123.575  0.00  0.00    +0.000 A 
ATOM     28  C   UNL     1      -8.314   3.467 124.285  0.00  0.00    +0.000 A 
ATOM     29  N   UNL     1      -8.918   2.888 125.351  0.00  0.00    +0.000 NA
BRANCH  27  30
ATOM     30  C   UNL     1      -6.697   3.543 122.397  0.00  0.00    +0.000 A 
ATOM     31  C   UNL     1      -7.325   3.451 121.140  0.00  0.00    +0.000 A 
ATOM     32  C   UNL     1      -6.735   4.031 120.015  0.00  0.00    +0.000 A 
ATOM     33  C   UNL     1      -5.527   4.711 120.136  0.00  0.00    +0.000 A 
ATOM     34  C   UNL     1      -4.901   4.817 121.377  0.00  0.00    +0.000 A 
ATOM     35  C   UNL     1      -5.473   4.236 122.513  0.00  0.00    +0.000 A 
ATOM     36  C   UNL     1      -4.755   4.322 123.836  0.00  0.00    +0.000 C 
ENDBRANCH  27  30
ENDBRANCH  23  24
ENDBRANCH   1  23
TORSDOF 8
ENDMDL
MODEL 9
REMARK VINA RESULT:      -8.4      4.348      7.391
REMARK  Name = CHEMBL458872
REMARK  11 active torsions:
REMARK  status: ('A' for Active; 'I' for Inactive)
REMARK    1  A    between atoms: C_1  and  O_2
REMARK    2  A    between atoms: O_2  and  C_3
REMARK    3  A    between atoms: C_6  and  N_7
REMARK    4  A    between atoms: N_7  and  C_8
REMARK    5  A    between atoms: N_7  and  S_22
REMARK    6  A    between atoms: C_8  and  C_9
REMARK    7  A    between atoms: C_12  and  C_13
REMARK    8  A    between atoms: C_18  and  C_19
REMARK    9  A    between atoms: S_22  and  C_25
REMARK   10  A    between atoms: C_29  and  S_30
REMARK   11  A    between atoms: S_30  and  C_31
REMARK                            x       y       z     vdW  Elec       q    Type
REMARK                         _______ _______ _______ _____ _____    ______ ____
ROOT
ATOM      1  N   UNL     1      -7.217   1.348 129.434  0.00  0.00    +0.000 N 
ENDROOT
BRANCH   1   5
ATOM      2  C   UNL     1      -7.277   3.151 125.561  0.00  0.00    +0.000 A 
ATOM      3  C   UNL     1      -8.357   2.363 125.934  0.00  0.00    +0.000 A 
ATOM      4  C   UNL     1      -8.378   1.750 127.209  0.00  0.00    +0.000 A 
ATOM      5  C   UNL     1      -7.345   1.968 128.109  0.00  0.00    +0.000 A 
ATOM      6  C   UNL     1      -6.451   2.920 127.640  0.00  0.00    +0.000 A 
ATOM      7  N   UNL     1      -6.318   3.457 126.411  0.00  0.00    +0.000 NA
BRANCH   2   9
ATOM      8  C   UNL     1      -5.754   4.204 124.183  0.00  0.00    +0.000 C 
ATOM      9  O   UNL     1      -7.050   3.661 124.326  0.00  0.00    +0.000 OA
ENDBRANCH   2   9
ENDBRANCH   1   5
BRANCH   1  10
ATOM     10  S   UNL     1      -6.528  -0.227 129.552  0.00  0.00    +0.000 S 
ATOM     11  O   UNL     1      -5.300  -0.197 128.775  0.00  0.00    +0.000 OA
ATOM     12  O   UNL     1      -6.482  -0.584 130.955  0.00  0.00    +0.000 OA
BRANCH  10  13
ATOM     13  C   UNL     1      -7.510  -1.520 128.754  0.00  0.00    +0.000 A 
ATOM     14  C   UNL     1      -8.077  -2.531 129.537  0.00  0.00    +0.000 A 
ATOM     15  C   UNL     1      -8.687  -3.645 128.917  0.00  0.00    +0.000 A 
ATOM     16  C   UNL     1      -8.811  -3.726 127.522  0.00  0.00    +0.000 A 
ATOM     17  C   UNL     1      -8.269  -2.715 126.756  0.00  0.00    +0.000 A 
ATOM     18  C   UNL     1      -7.629  -1.652 127.380  0.00  0.00    +0.000 A 
BRANCH  17  19
ATOM     19  S   UNL     1      -8.315  -2.687 124.972  0.00  0.00    +0.000 S 
ATOM     20  C   UNL     1      -7.501  -1.185 124.517  0.00  0.00    +0.000 C 
ATOM     21  O   UNL     1      -7.524  -3.819 124.517  0.00  0.00    +0.000 OA
ATOM     22  O   UNL     1      -9.702  -2.549 124.577  0.00  0.00    +0.000 OA
ENDBRANCH  17  19
ENDBRANCH  10  13
ENDBRANCH   1  10
BRANCH   1  23
ATOM     23  C   UNL     1      -7.573   2.070 130.690  0.00  0.00    +0.000 C 
BRANCH  23  24
ATOM     24  C   UNL     1      -8.476   3.282 130.762  0.00  0.00    +0.000 A 
ATOM     25  C   UNL     1      -9.852   3.086 130.553  0.00  0.00    +0.000 A 
ATOM     26  C   UNL     1     -10.601   4.161 130.104  0.00  0.00    +0.000 A 
ATOM     27  C   UNL     1      -9.987   5.406 129.912  0.00  0.00    +0.000 A 
ATOM     28  C   UNL     1      -8.634   5.516 130.229  0.00  0.00    +0.000 A 
ATOM     29  N   UNL     1      -7.877   4.494 130.696  0.00  0.00    +0.000 NA
BRANCH  27  30
ATOM     30  C   UNL     1     -10.758   6.565 129.472  0.00  0.00    +0.000 A 
ATOM     31  C   UNL     1     -10.586   7.112 128.187  0.00  0.00    +0.000 A 
ATOM     32  C   UNL     1     -11.288   8.257 127.810  0.00  0.00    +0.000 A 
ATOM     33  C   UNL     1     -12.171   8.857 128.703  0.00  0.00    +0.000 A 
ATOM     34  C   UNL     1     -12.357   8.320 129.975  0.00  0.00    +0.000 A 
ATOM     35  C   UNL     1     -11.656   7.178 130.373  0.00  0.00    +0.000 A 
ATOM     36  C   UNL     1     -11.837   6.640 131.770  0.00  0.00    +0.000 C 
ENDBRANCH  27  30
ENDBRANCH  23  24
ENDBRANCH   1  23
TORSDOF 8
ENDMDL
