MODEL 1
REMARK VINA RESULT:      -8.8      0.000      0.000
REMARK  Name = CHEMBL480546
REMARK  7 active torsions:
REMARK  status: ('A' for Active; 'I' for Inactive)
REMARK    1  A    between atoms: C_2  and  C_3
REMARK    2  A    between atoms: C_6  and  C_7
REMARK    3  A    between atoms: C_12  and  C_13
REMARK    4  A    between atoms: N_19  and  C_20
REMARK    5  A    between atoms: N_19  and  C_27
REMARK    6  A    between atoms: C_20  and  C_21
REMARK    7  A    between atoms: C_27  and  C_28
REMARK                            x       y       z     vdW  Elec       q    Type
REMARK                         _______ _______ _______ _____ _____    ______ ____
ROOT
ATOM      1  O   UNL     1      -9.370   6.050 128.514  0.00  0.00    +0.000 OA
ATOM      2  C   UNL     1      -9.296   5.570 129.651  0.00  0.00    +0.000 C 
ATOM      3  N   UNL     1     -10.345   5.057 130.419  0.00  0.00    +0.000 N 
ENDROOT
BRANCH   2   4
ATOM      4  C   UNL     1      -7.937   5.638 130.159  0.00  0.00    +0.000 A 
ATOM      5  C   UNL     1      -7.526   6.791 130.829  0.00  0.00    +0.000 A 
ATOM      6  C   UNL     1      -6.171   6.999 131.013  0.00  0.00    +0.000 A 
ATOM      7  C   UNL     1      -5.283   6.003 130.600  0.00  0.00    +0.000 A 
ATOM      8  N   UNL     1      -5.664   4.884 129.941  0.00  0.00    +0.000 NA
ATOM      9  C   UNL     1      -6.983   4.752 129.695  0.00  0.00    +0.000 A 
BRANCH   7  10
ATOM     10  C   UNL     1      -3.895   6.028 131.038  0.00  0.00    +0.000 A 
ATOM     11  C   UNL     1      -3.549   5.577 132.325  0.00  0.00    +0.000 A 
ATOM     12  C   UNL     1      -2.224   5.601 132.757  0.00  0.00    +0.000 A 
ATOM     13  C   UNL     1      -1.220   6.012 131.887  0.00  0.00    +0.000 A 
ATOM     14  C   UNL     1      -1.547   6.468 130.612  0.00  0.00    +0.000 A 
ATOM     15  C   UNL     1      -2.883   6.507 130.177  0.00  0.00    +0.000 A 
BRANCH  15  16
ATOM     16  C   UNL     1      -3.144   7.029 128.777  0.00  0.00    +0.000 C 
ATOM     17  F   UNL     1      -3.798   8.224 128.783  0.00  0.00    +0.000 F 
ATOM     18  F   UNL     1      -1.971   7.247 128.115  0.00  0.00    +0.000 F 
ATOM     19  F   UNL     1      -3.880   6.249 127.941  0.00  0.00    +0.000 F 
ENDBRANCH  15  16
ENDBRANCH   7  10
ENDBRANCH   2   4
BRANCH   3  20
ATOM     20  C   UNL     1     -11.738   5.157 129.942  0.00  0.00    +0.000 C 
BRANCH  20  21
ATOM     21  C   UNL     1     -12.311   6.501 129.618  0.00  0.00    +0.000 A 
ATOM     22  C   UNL     1     -12.277   7.538 130.555  0.00  0.00    +0.000 A 
ATOM     23  C   UNL     1     -12.650   8.817 130.181  0.00  0.00    +0.000 A 
ATOM     24  C   UNL     1     -13.139   9.048 128.897  0.00  0.00    +0.000 A 
ATOM     25  C   UNL     1     -13.274   7.998 127.989  0.00  0.00    +0.000 A 
ATOM     26  C   UNL     1     -12.850   6.725 128.343  0.00  0.00    +0.000 A 
ENDBRANCH  20  21
ENDBRANCH   3  20
BRANCH   3  27
ATOM     27  C   UNL     1     -10.096   4.132 131.550  0.00  0.00    +0.000 C 
BRANCH  27  28
ATOM     28  C   UNL     1     -10.139   2.608 131.278  0.00  0.00    +0.000 C 
ATOM     29  C   UNL     1      -9.634   1.777 132.449  0.00  0.00    +0.000 C 
ATOM     30  C   UNL     1      -8.996   0.585 131.769  0.00  0.00    +0.000 C 
ATOM     31  C   UNL     1      -8.436   1.171 130.501  0.00  0.00    +0.000 C 
ATOM     32  O   UNL     1      -9.289   2.253 130.175  0.00  0.00    +0.000 OA
ENDBRANCH  27  28
ENDBRANCH   3  27
TORSDOF 7
ENDMDL
MODEL 2
REMARK VINA RESULT:      -8.7      3.419      8.514
REMARK  Name = CHEMBL480546
REMARK  7 active torsions:
REMARK  status: ('A' for Active; 'I' for Inactive)
REMARK    1  A    between atoms: C_2  and  C_3
REMARK    2  A    between atoms: C_6  and  C_7
REMARK    3  A    between atoms: C_12  and  C_13
REMARK    4  A    between atoms: N_19  and  C_20
REMARK    5  A    between atoms: N_19  and  C_27
REMARK    6  A    between atoms: C_20  and  C_21
REMARK    7  A    between atoms: C_27  and  C_28
REMARK                            x       y       z     vdW  Elec       q    Type
REMARK                         _______ _______ _______ _____ _____    ______ ____
ROOT
ATOM      1  O   UNL     1      -6.448   5.262 133.247  0.00  0.00    +0.000 OA
ATOM      2  C   UNL     1      -6.258   5.239 132.025  0.00  0.00    +0.000 C 
ATOM      3  N   UNL     1      -5.060   4.960 131.364  0.00  0.00    +0.000 N 
ENDROOT
BRANCH   2   4
ATOM      4  C   UNL     1      -7.467   5.597 131.303  0.00  0.00    +0.000 A 
ATOM      5  C   UNL     1      -8.197   4.589 130.672  0.00  0.00    +0.000 A 
ATOM      6  C   UNL     1      -9.135   4.950 129.722  0.00  0.00    +0.000 A 
ATOM      7  C   UNL     1      -9.371   6.309 129.505  0.00  0.00    +0.000 A 
ATOM      8  N   UNL     1      -8.666   7.299 130.101  0.00  0.00    +0.000 NA
ATOM      9  C   UNL     1      -7.696   6.914 130.954  0.00  0.00    +0.000 A 
BRANCH   7  10
ATOM     10  C   UNL     1     -10.543   6.742 128.755  0.00  0.00    +0.000 A 
ATOM     11  C   UNL     1     -10.434   7.050 127.387  0.00  0.00    +0.000 A 
ATOM     12  C   UNL     1     -11.547   7.470 126.660  0.00  0.00    +0.000 A 
ATOM     13  C   UNL     1     -12.794   7.525 127.273  0.00  0.00    +0.000 A 
ATOM     14  C   UNL     1     -12.916   7.230 128.629  0.00  0.00    +0.000 A 
ATOM     15  C   UNL     1     -11.796   6.860 129.394  0.00  0.00    +0.000 A 
BRANCH  15  16
ATOM     16  C   UNL     1     -12.024   6.568 130.864  0.00  0.00    +0.000 C 
ATOM     17  F   UNL     1     -11.896   5.244 131.156  0.00  0.00    +0.000 F 
ATOM     18  F   UNL     1     -11.100   7.212 131.635  0.00  0.00    +0.000 F 
ATOM     19  F   UNL     1     -13.226   6.913 131.397  0.00  0.00    +0.000 F 
ENDBRANCH  15  16
ENDBRANCH   7  10
ENDBRANCH   2   4
BRANCH   3  20
ATOM     20  C   UNL     1      -3.812   4.767 132.128  0.00  0.00    +0.000 C 
BRANCH  20  21
ATOM     21  C   UNL     1      -2.854   5.907 132.274  0.00  0.00    +0.000 A 
ATOM     22  C   UNL     1      -3.292   7.158 132.715  0.00  0.00    +0.000 A 
ATOM     23  C   UNL     1      -2.370   8.147 133.011  0.00  0.00    +0.000 A 
ATOM     24  C   UNL     1      -1.015   7.919 132.785  0.00  0.00    +0.000 A 
ATOM     25  C   UNL     1      -0.578   6.709 132.245  0.00  0.00    +0.000 A 
ATOM     26  C   UNL     1      -1.495   5.696 131.999  0.00  0.00    +0.000 A 
ENDBRANCH  20  21
ENDBRANCH   3  20
BRANCH   3  27
ATOM     27  C   UNL     1      -5.040   4.537 129.943  0.00  0.00    +0.000 C 
BRANCH  27  28
ATOM     28  C   UNL     1      -4.488   5.526 128.888  0.00  0.00    +0.000 C 
ATOM     29  C   UNL     1      -2.992   5.376 128.652  0.00  0.00    +0.000 C 
ATOM     30  C   UNL     1      -2.555   6.790 128.336  0.00  0.00    +0.000 C 
ATOM     31  C   UNL     1      -3.464   7.631 129.191  0.00  0.00    +0.000 C 
ATOM     32  O   UNL     1      -4.664   6.888 129.311  0.00  0.00    +0.000 OA
ENDBRANCH  27  28
ENDBRANCH   3  27
TORSDOF 7
ENDMDL
MODEL 3
REMARK VINA RESULT:      -8.5      6.166      9.045
REMARK  Name = CHEMBL480546
REMARK  7 active torsions:
REMARK  status: ('A' for Active; 'I' for Inactive)
REMARK    1  A    between atoms: C_2  and  C_3
REMARK    2  A    between atoms: C_6  and  C_7
REMARK    3  A    between atoms: C_12  and  C_13
REMARK    4  A    between atoms: N_19  and  C_20
REMARK    5  A    between atoms: N_19  and  C_27
REMARK    6  A    between atoms: C_20  and  C_21
REMARK    7  A    between atoms: C_27  and  C_28
REMARK                            x       y       z     vdW  Elec       q    Type
REMARK                         _______ _______ _______ _____ _____    ______ ____
ROOT
ATOM      1  O   UNL     1      -7.333   2.715 125.932  0.00  0.00    +0.000 OA
ATOM      2  C   UNL     1      -6.109   2.551 125.990  0.00  0.00    +0.000 C 
ATOM      3  N   UNL     1      -5.123   3.348 125.403  0.00  0.00    +0.000 N 
ENDROOT
BRANCH   2   4
ATOM      4  C   UNL     1      -5.777   1.349 126.736  0.00  0.00    +0.000 A 
ATOM      5  C   UNL     1      -5.524   0.170 126.035  0.00  0.00    +0.000 A 
ATOM      6  C   UNL     1      -5.542  -1.027 126.727  0.00  0.00    +0.000 A 
ATOM      7  C   UNL     1      -5.724  -0.990 128.112  0.00  0.00    +0.000 A 
ATOM      8  N   UNL     1      -5.980   0.143 128.806  0.00  0.00    +0.000 NA
ATOM      9  C   UNL     1      -6.047   1.283 128.090  0.00  0.00    +0.000 A 
BRANCH   7  10
ATOM     10  C   UNL     1      -5.450  -2.170 128.921  0.00  0.00    +0.000 A 
ATOM     11  C   UNL     1      -4.125  -2.513 129.247  0.00  0.00    +0.000 A 
ATOM     12  C   UNL     1      -3.850  -3.642 130.017  0.00  0.00    +0.000 A 
ATOM     13  C   UNL     1      -4.895  -4.406 130.524  0.00  0.00    +0.000 A 
ATOM     14  C   UNL     1      -6.212  -4.082 130.204  0.00  0.00    +0.000 A 
ATOM     15  C   UNL     1      -6.509  -2.981 129.382  0.00  0.00    +0.000 A 
BRANCH  15  16
ATOM     16  C   UNL     1      -7.970  -2.714 129.078  0.00  0.00    +0.000 C 
ATOM     17  F   UNL     1      -8.771  -3.762 129.418  0.00  0.00    +0.000 F 
ATOM     18  F   UNL     1      -8.426  -1.646 129.796  0.00  0.00    +0.000 F 
ATOM     19  F   UNL     1      -8.306  -2.440 127.790  0.00  0.00    +0.000 F 
ENDBRANCH  15  16
ENDBRANCH   7  10
ENDBRANCH   2   4
BRANCH   3  20
ATOM     20  C   UNL     1      -5.498   4.463 124.511  0.00  0.00    +0.000 C 
BRANCH  20  21
ATOM     21  C   UNL     1      -5.735   4.197 123.058  0.00  0.00    +0.000 A 
ATOM     22  C   UNL     1      -6.896   3.549 122.629  0.00  0.00    +0.000 A 
ATOM     23  C   UNL     1      -7.181   3.467 121.277  0.00  0.00    +0.000 A 
ATOM     24  C   UNL     1      -6.267   3.954 120.347  0.00  0.00    +0.000 A 
ATOM     25  C   UNL     1      -5.056   4.508 120.763  0.00  0.00    +0.000 A 
ATOM     26  C   UNL     1      -4.792   4.642 122.119  0.00  0.00    +0.000 A 
ENDBRANCH  20  21
ENDBRANCH   3  20
BRANCH   3  27
ATOM     27  C   UNL     1      -3.721   3.325 125.881  0.00  0.00    +0.000 C 
BRANCH  27  28
ATOM     28  C   UNL     1      -3.347   4.192 127.108  0.00  0.00    +0.000 C 
ATOM     29  C   UNL     1      -3.026   3.368 128.347  0.00  0.00    +0.000 C 
ATOM     30  C   UNL     1      -3.506   4.254 129.476  0.00  0.00    +0.000 C 
ATOM     31  C   UNL     1      -4.703   4.948 128.885  0.00  0.00    +0.000 C 
ATOM     32  O   UNL     1      -4.439   5.041 127.497  0.00  0.00    +0.000 OA
ENDBRANCH  27  28
ENDBRANCH   3  27
TORSDOF 7
ENDMDL
MODEL 4
REMARK VINA RESULT:      -8.5      7.200      9.252
REMARK  Name = CHEMBL480546
REMARK  7 active torsions:
REMARK  status: ('A' for Active; 'I' for Inactive)
REMARK    1  A    between atoms: C_2  and  C_3
REMARK    2  A    between atoms: C_6  and  C_7
REMARK    3  A    between atoms: C_12  and  C_13
REMARK    4  A    between atoms: N_19  and  C_20
REMARK    5  A    between atoms: N_19  and  C_27
REMARK    6  A    between atoms: C_20  and  C_21
REMARK    7  A    between atoms: C_27  and  C_28
REMARK                            x       y       z     vdW  Elec       q    Type
REMARK                         _______ _______ _______ _____ _____    ______ ____
ROOT
ATOM      1  O   UNL     1      -5.014   2.600 125.657  0.00  0.00    +0.000 OA
ATOM      2  C   UNL     1      -6.108   2.024 125.675  0.00  0.00    +0.000 C 
ATOM      3  N   UNL     1      -7.272   2.404 125.003  0.00  0.00    +0.000 N 
ENDROOT
BRANCH   2   4
ATOM      4  C   UNL     1      -6.075   0.867 126.554  0.00  0.00    +0.000 A 
ATOM      5  C   UNL     1      -6.240   1.060 127.926  0.00  0.00    +0.000 A 
ATOM      6  C   UNL     1      -5.880   0.037 128.784  0.00  0.00    +0.000 A 
ATOM      7  C   UNL     1      -5.453  -1.173 128.233  0.00  0.00    +0.000 A 
ATOM      8  N   UNL     1      -5.278  -1.374 126.905  0.00  0.00    +0.000 NA
ATOM      9  C   UNL     1      -5.550  -0.328 126.100  0.00  0.00    +0.000 A 
BRANCH   7  10
ATOM     10  C   UNL     1      -5.357  -2.366 129.062  0.00  0.00    +0.000 A 
ATOM     11  C   UNL     1      -4.101  -2.828 129.496  0.00  0.00    +0.000 A 
ATOM     12  C   UNL     1      -3.996  -3.973 130.286  0.00  0.00    +0.000 A 
ATOM     13  C   UNL     1      -5.146  -4.631 130.706  0.00  0.00    +0.000 A 
ATOM     14  C   UNL     1      -6.396  -4.190 130.279  0.00  0.00    +0.000 A 
ATOM     15  C   UNL     1      -6.521  -3.072 129.436  0.00  0.00    +0.000 A 
BRANCH  15  16
ATOM     16  C   UNL     1      -7.922  -2.672 129.013  0.00  0.00    +0.000 C 
ATOM     17  F   UNL     1      -8.828  -3.669 129.213  0.00  0.00    +0.000 F 
ATOM     18  F   UNL     1      -8.364  -1.611 129.748  0.00  0.00    +0.000 F 
ATOM     19  F   UNL     1      -8.108  -2.305 127.717  0.00  0.00    +0.000 F 
ENDBRANCH  15  16
ENDBRANCH   7  10
ENDBRANCH   2   4
BRANCH   3  20
ATOM     20  C   UNL     1      -7.321   3.676 124.254  0.00  0.00    +0.000 C 
BRANCH  20  21
ATOM     21  C   UNL     1      -6.581   3.796 122.959  0.00  0.00    +0.000 A 
ATOM     22  C   UNL     1      -7.169   3.389 121.759  0.00  0.00    +0.000 A 
ATOM     23  C   UNL     1      -6.545   3.667 120.555  0.00  0.00    +0.000 A 
ATOM     24  C   UNL     1      -5.292   4.276 120.551  0.00  0.00    +0.000 A 
ATOM     25  C   UNL     1      -4.650   4.591 121.749  0.00  0.00    +0.000 A 
ATOM     26  C   UNL     1      -5.298   4.363 122.955  0.00  0.00    +0.000 A 
ENDBRANCH  20  21
ENDBRANCH   3  20
BRANCH   3  27
ATOM     27  C   UNL     1      -8.367   1.440 124.743  0.00  0.00    +0.000 C 
BRANCH  27  28
ATOM     28  C   UNL     1      -8.279   0.549 123.479  0.00  0.00    +0.000 C 
ATOM     29  C   UNL     1      -8.934  -0.812 123.660  0.00  0.00    +0.000 C 
ATOM     30  C   UNL     1      -8.084  -1.716 122.794  0.00  0.00    +0.000 C 
ATOM     31  C   UNL     1      -6.707  -1.121 122.923  0.00  0.00    +0.000 C 
ATOM     32  O   UNL     1      -6.912   0.263 123.139  0.00  0.00    +0.000 OA
ENDBRANCH  27  28
ENDBRANCH   3  27
TORSDOF 7
ENDMDL
MODEL 5
REMARK VINA RESULT:      -8.3      5.654      8.117
REMARK  Name = CHEMBL480546
REMARK  7 active torsions:
REMARK  status: ('A' for Active; 'I' for Inactive)
REMARK    1  A    between atoms: C_2  and  C_3
REMARK    2  A    between atoms: C_6  and  C_7
REMARK    3  A    between atoms: C_12  and  C_13
REMARK    4  A    between atoms: N_19  and  C_20
REMARK    5  A    between atoms: N_19  and  C_27
REMARK    6  A    between atoms: C_20  and  C_21
REMARK    7  A    between atoms: C_27  and  C_28
REMARK                            x       y       z     vdW  Elec       q    Type
REMARK                         _______ _______ _______ _____ _____    ______ ____
ROOT
ATOM      1  O   UNL     1      -7.592   0.606 126.435  0.00  0.00    +0.000 OA
ATOM      2  C   UNL     1      -7.212   1.466 125.632  0.00  0.00    +0.000 C 
ATOM      3  N   UNL     1      -7.570   1.580 124.286  0.00  0.00    +0.000 N 
ENDROOT
BRANCH   2   4
ATOM      4  C   UNL     1      -6.262   2.375 126.251  0.00  0.00    +0.000 A 
ATOM      5  C   UNL     1      -4.901   2.077 126.178  0.00  0.00    +0.000 A 
ATOM      6  C   UNL     1      -4.035   2.736 127.033  0.00  0.00    +0.000 A 
ATOM      7  C   UNL     1      -4.552   3.732 127.865  0.00  0.00    +0.000 A 
ATOM      8  N   UNL     1      -5.871   4.026 127.955  0.00  0.00    +0.000 NA
ATOM      9  C   UNL     1      -6.700   3.303 127.176  0.00  0.00    +0.000 A 
BRANCH   7  10
ATOM     10  C   UNL     1      -3.659   4.655 128.550  0.00  0.00    +0.000 A 
ATOM     11  C   UNL     1      -3.091   5.739 127.856  0.00  0.00    +0.000 A 
ATOM     12  C   UNL     1      -2.230   6.627 128.501  0.00  0.00    +0.000 A 
ATOM     13  C   UNL     1      -1.977   6.481 129.860  0.00  0.00    +0.000 A 
ATOM     14  C   UNL     1      -2.526   5.408 130.559  0.00  0.00    +0.000 A 
ATOM     15  C   UNL     1      -3.351   4.470 129.916  0.00  0.00    +0.000 A 
BRANCH  15  16
ATOM     16  C   UNL     1      -3.894   3.329 130.755  0.00  0.00    +0.000 C 
ATOM     17  F   UNL     1      -3.261   3.223 131.956  0.00  0.00    +0.000 F 
ATOM     18  F   UNL     1      -5.213   3.525 131.043  0.00  0.00    +0.000 F 
ATOM     19  F   UNL     1      -3.831   2.076 130.232  0.00  0.00    +0.000 F 
ENDBRANCH  15  16
ENDBRANCH   7  10
ENDBRANCH   2   4
BRANCH   3  20
ATOM     20  C   UNL     1      -8.402   0.543 123.645  0.00  0.00    +0.000 C 
BRANCH  20  21
ATOM     21  C   UNL     1      -7.963  -0.886 123.690  0.00  0.00    +0.000 A 
ATOM     22  C   UNL     1      -6.664  -1.248 123.320  0.00  0.00    +0.000 A 
ATOM     23  C   UNL     1      -6.222  -2.542 123.533  0.00  0.00    +0.000 A 
ATOM     24  C   UNL     1      -7.100  -3.500 124.034  0.00  0.00    +0.000 A 
ATOM     25  C   UNL     1      -8.428  -3.172 124.307  0.00  0.00    +0.000 A 
ATOM     26  C   UNL     1      -8.860  -1.863 124.147  0.00  0.00    +0.000 A 
ENDBRANCH  20  21
ENDBRANCH   3  20
BRANCH   3  27
ATOM     27  C   UNL     1      -7.415   2.856 123.549  0.00  0.00    +0.000 C 
BRANCH  27  28
ATOM     28  C   UNL     1      -6.216   3.006 122.581  0.00  0.00    +0.000 C 
ATOM     29  C   UNL     1      -5.376   4.245 122.858  0.00  0.00    +0.000 C 
ATOM     30  C   UNL     1      -4.891   4.640 121.480  0.00  0.00    +0.000 C 
ATOM     31  C   UNL     1      -6.039   4.255 120.587  0.00  0.00    +0.000 C 
ATOM     32  O   UNL     1      -6.659   3.152 121.222  0.00  0.00    +0.000 OA
ENDBRANCH  27  28
ENDBRANCH   3  27
TORSDOF 7
ENDMDL
MODEL 6
REMARK VINA RESULT:      -8.3      3.060      5.529
REMARK  Name = CHEMBL480546
REMARK  7 active torsions:
REMARK  status: ('A' for Active; 'I' for Inactive)
REMARK    1  A    between atoms: C_2  and  C_3
REMARK    2  A    between atoms: C_6  and  C_7
REMARK    3  A    between atoms: C_12  and  C_13
REMARK    4  A    between atoms: N_19  and  C_20
REMARK    5  A    between atoms: N_19  and  C_27
REMARK    6  A    between atoms: C_20  and  C_21
REMARK    7  A    between atoms: C_27  and  C_28
REMARK                            x       y       z     vdW  Elec       q    Type
REMARK                         _______ _______ _______ _____ _____    ______ ____
ROOT
ATOM      1  O   UNL     1     -11.557   4.047 130.050  0.00  0.00    +0.000 OA
ATOM      2  C   UNL     1     -10.603   4.230 130.816  0.00  0.00    +0.000 C 
ATOM      3  N   UNL     1     -10.370   5.349 131.618  0.00  0.00    +0.000 N 
ENDROOT
BRANCH   2   4
ATOM      4  C   UNL     1      -9.670   3.118 130.761  0.00  0.00    +0.000 A 
ATOM      5  C   UNL     1      -8.911   2.933 129.605  0.00  0.00    +0.000 A 
ATOM      6  C   UNL     1      -8.286   1.714 129.414  0.00  0.00    +0.000 A 
ATOM      7  C   UNL     1      -8.369   0.759 130.430  0.00  0.00    +0.000 A 
ATOM      8  N   UNL     1      -9.107   0.918 131.553  0.00  0.00    +0.000 NA
ATOM      9  C   UNL     1      -9.780   2.081 131.668  0.00  0.00    +0.000 A 
BRANCH   7  10
ATOM     10  C   UNL     1      -7.491  -0.403 130.420  0.00  0.00    +0.000 A 
ATOM     11  C   UNL     1      -7.989  -1.663 130.040  0.00  0.00    +0.000 A 
ATOM     12  C   UNL     1      -7.159  -2.785 130.032  0.00  0.00    +0.000 A 
ATOM     13  C   UNL     1      -5.810  -2.649 130.339  0.00  0.00    +0.000 A 
ATOM     14  C   UNL     1      -5.305  -1.409 130.725  0.00  0.00    +0.000 A 
ATOM     15  C   UNL     1      -6.136  -0.278 130.795  0.00  0.00    +0.000 A 
BRANCH  15  16
ATOM     16  C   UNL     1      -5.500   1.026 131.235  0.00  0.00    +0.000 C 
ATOM     17  F   UNL     1      -6.199   1.632 132.234  0.00  0.00    +0.000 F 
ATOM     18  F   UNL     1      -4.247   0.811 131.731  0.00  0.00    +0.000 F 
ATOM     19  F   UNL     1      -5.344   1.999 130.298  0.00  0.00    +0.000 F 
ENDBRANCH  15  16
ENDBRANCH   7  10
ENDBRANCH   2   4
BRANCH   3  20
ATOM     20  C   UNL     1     -11.247   6.532 131.524  0.00  0.00    +0.000 C 
BRANCH  20  21
ATOM     21  C   UNL     1     -11.427   7.212 130.203  0.00  0.00    +0.000 A 
ATOM     22  C   UNL     1     -10.325   7.688 129.487  0.00  0.00    +0.000 A 
ATOM     23  C   UNL     1     -10.492   8.155 128.195  0.00  0.00    +0.000 A 
ATOM     24  C   UNL     1     -11.770   8.228 127.645  0.00  0.00    +0.000 A 
ATOM     25  C   UNL     1     -12.887   7.853 128.392  0.00  0.00    +0.000 A 
ATOM     26  C   UNL     1     -12.718   7.333 129.667  0.00  0.00    +0.000 A 
ENDBRANCH  20  21
ENDBRANCH   3  20
BRANCH   3  27
ATOM     27  C   UNL     1      -9.465   5.286 132.791  0.00  0.00    +0.000 C 
BRANCH  27  28
ATOM     28  C   UNL     1      -8.016   5.807 132.631  0.00  0.00    +0.000 C 
ATOM     29  C   UNL     1      -7.820   6.655 131.383  0.00  0.00    +0.000 C 
ATOM     30  C   UNL     1      -6.391   6.350 130.987  0.00  0.00    +0.000 C 
ATOM     31  C   UNL     1      -6.223   4.909 131.387  0.00  0.00    +0.000 C 
ATOM     32  O   UNL     1      -7.085   4.721 132.495  0.00  0.00    +0.000 OA
ENDBRANCH  27  28
ENDBRANCH   3  27
TORSDOF 7
ENDMDL
MODEL 7
REMARK VINA RESULT:      -8.3      6.371     10.566
REMARK  Name = CHEMBL480546
REMARK  7 active torsions:
REMARK  status: ('A' for Active; 'I' for Inactive)
REMARK    1  A    between atoms: C_2  and  C_3
REMARK    2  A    between atoms: C_6  and  C_7
REMARK    3  A    between atoms: C_12  and  C_13
REMARK    4  A    between atoms: N_19  and  C_20
REMARK    5  A    between atoms: N_19  and  C_27
REMARK    6  A    between atoms: C_20  and  C_21
REMARK    7  A    between atoms: C_27  and  C_28
REMARK                            x       y       z     vdW  Elec       q    Type
REMARK                         _______ _______ _______ _____ _____    ______ ____
ROOT
ATOM      1  O   UNL     1      -5.808  -4.554 130.498  0.00  0.00    +0.000 OA
ATOM      2  C   UNL     1      -6.143  -3.364 130.527  0.00  0.00    +0.000 C 
ATOM      3  N   UNL     1      -6.024  -2.482 131.604  0.00  0.00    +0.000 N 
ENDROOT
BRANCH   2   4
ATOM      4  C   UNL     1      -6.753  -2.963 129.271  0.00  0.00    +0.000 A 
ATOM      5  C   UNL     1      -8.088  -3.293 129.036  0.00  0.00    +0.000 A 
ATOM      6  C   UNL     1      -8.568  -3.218 127.741  0.00  0.00    +0.000 A 
ATOM      7  C   UNL     1      -7.720  -2.728 126.745  0.00  0.00    +0.000 A 
ATOM      8  N   UNL     1      -6.420  -2.412 126.954  0.00  0.00    +0.000 NA
ATOM      9  C   UNL     1      -5.956  -2.583 128.208  0.00  0.00    +0.000 A 
BRANCH   7  10
ATOM     10  C   UNL     1      -8.254  -2.343 125.447  0.00  0.00    +0.000 A 
ATOM     11  C   UNL     1      -8.545  -3.323 124.481  0.00  0.00    +0.000 A 
ATOM     12  C   UNL     1      -9.052  -2.965 123.232  0.00  0.00    +0.000 A 
ATOM     13  C   UNL     1      -9.337  -1.632 122.957  0.00  0.00    +0.000 A 
ATOM     14  C   UNL     1      -9.047  -0.649 123.901  0.00  0.00    +0.000 A 
ATOM     15  C   UNL     1      -8.483  -0.982 125.144  0.00  0.00    +0.000 A 
BRANCH  15  16
ATOM     16  C   UNL     1      -8.192   0.155 126.103  0.00  0.00    +0.000 C 
ATOM     17  F   UNL     1      -6.872   0.491 126.125  0.00  0.00    +0.000 F 
ATOM     18  F   UNL     1      -8.860   1.286 125.731  0.00  0.00    +0.000 F 
ATOM     19  F   UNL     1      -8.512  -0.027 127.412  0.00  0.00    +0.000 F 
ENDBRANCH  15  16
ENDBRANCH   7  10
ENDBRANCH   2   4
BRANCH   3  20
ATOM     20  C   UNL     1      -5.557  -2.965 132.917  0.00  0.00    +0.000 C 
BRANCH  20  21
ATOM     21  C   UNL     1      -6.454  -3.831 133.745  0.00  0.00    +0.000 A 
ATOM     22  C   UNL     1      -6.005  -5.056 134.244  0.00  0.00    +0.000 A 
ATOM     23  C   UNL     1      -6.783  -5.760 135.148  0.00  0.00    +0.000 A 
ATOM     24  C   UNL     1      -8.046  -5.285 135.490  0.00  0.00    +0.000 A 
ATOM     25  C   UNL     1      -8.545  -4.115 134.916  0.00  0.00    +0.000 A 
ATOM     26  C   UNL     1      -7.747  -3.379 134.052  0.00  0.00    +0.000 A 
ENDBRANCH  20  21
ENDBRANCH   3  20
BRANCH   3  27
ATOM     27  C   UNL     1      -6.045  -1.013 131.407  0.00  0.00    +0.000 C 
BRANCH  27  28
ATOM     28  C   UNL     1      -7.135  -0.189 132.135  0.00  0.00    +0.000 C 
ATOM     29  C   UNL     1      -8.544  -0.500 131.650  0.00  0.00    +0.000 C 
ATOM     30  C   UNL     1      -9.254   0.828 131.795  0.00  0.00    +0.000 C 
ATOM     31  C   UNL     1      -8.173   1.831 131.494  0.00  0.00    +0.000 C 
ATOM     32  O   UNL     1      -6.964   1.219 131.903  0.00  0.00    +0.000 OA
ENDBRANCH  27  28
ENDBRANCH   3  27
TORSDOF 7
ENDMDL
MODEL 8
REMARK VINA RESULT:      -8.2      7.002      9.111
REMARK  Name = CHEMBL480546
REMARK  7 active torsions:
REMARK  status: ('A' for Active; 'I' for Inactive)
REMARK    1  A    between atoms: C_2  and  C_3
REMARK    2  A    between atoms: C_6  and  C_7
REMARK    3  A    between atoms: C_12  and  C_13
REMARK    4  A    between atoms: N_19  and  C_20
REMARK    5  A    between atoms: N_19  and  C_27
REMARK    6  A    between atoms: C_20  and  C_21
REMARK    7  A    between atoms: C_27  and  C_28
REMARK                            x       y       z     vdW  Elec       q    Type
REMARK                         _______ _______ _______ _____ _____    ______ ____
ROOT
ATOM      1  O   UNL     1      -7.706   3.920 125.249  0.00  0.00    +0.000 OA
ATOM      2  C   UNL     1      -7.754   2.712 124.994  0.00  0.00    +0.000 C 
ATOM      3  N   UNL     1      -8.028   2.122 123.757  0.00  0.00    +0.000 N 
ENDROOT
BRANCH   2   4
ATOM      4  C   UNL     1      -7.529   1.916 126.188  0.00  0.00    +0.000 A 
ATOM      5  C   UNL     1      -6.310   1.252 126.335  0.00  0.00    +0.000 A 
ATOM      6  C   UNL     1      -6.217   0.245 127.278  0.00  0.00    +0.000 A 
ATOM      7  C   UNL     1      -7.319   0.002 128.102  0.00  0.00    +0.000 A 
ATOM      8  N   UNL     1      -8.511   0.630 127.967  0.00  0.00    +0.000 NA
ATOM      9  C   UNL     1      -8.599   1.542 126.978  0.00  0.00    +0.000 A 
BRANCH   7  10
ATOM     10  C   UNL     1      -7.178  -0.819 129.296  0.00  0.00    +0.000 A 
ATOM     11  C   UNL     1      -6.746  -0.244 130.504  0.00  0.00    +0.000 A 
ATOM     12  C   UNL     1      -6.602  -1.022 131.653  0.00  0.00    +0.000 A 
ATOM     13  C   UNL     1      -6.950  -2.367 131.626  0.00  0.00    +0.000 A 
ATOM     14  C   UNL     1      -7.373  -2.953 130.434  0.00  0.00    +0.000 A 
ATOM     15  C   UNL     1      -7.470  -2.200 129.252  0.00  0.00    +0.000 A 
BRANCH  15  16
ATOM     16  C   UNL     1      -7.928  -2.926 128.001  0.00  0.00    +0.000 C 
ATOM     17  F   UNL     1      -6.936  -3.039 127.075  0.00  0.00    +0.000 F 
ATOM     18  F   UNL     1      -8.315  -4.201 128.295  0.00  0.00    +0.000 F 
ATOM     19  F   UNL     1      -8.971  -2.393 127.310  0.00  0.00    +0.000 F 
ENDBRANCH  15  16
ENDBRANCH   7  10
ENDBRANCH   2   4
BRANCH   3  20
ATOM     20  C   UNL     1      -8.418   2.955 122.603  0.00  0.00    +0.000 C 
BRANCH  20  21
ATOM     21  C   UNL     1      -7.361   3.482 121.684  0.00  0.00    +0.000 A 
ATOM     22  C   UNL     1      -7.674   3.856 120.374  0.00  0.00    +0.000 A 
ATOM     23  C   UNL     1      -6.727   4.502 119.597  0.00  0.00    +0.000 A 
ATOM     24  C   UNL     1      -5.442   4.699 120.094  0.00  0.00    +0.000 A 
ATOM     25  C   UNL     1      -5.091   4.235 121.362  0.00  0.00    +0.000 A 
ATOM     26  C   UNL     1      -6.053   3.637 122.164  0.00  0.00    +0.000 A 
ENDBRANCH  20  21
ENDBRANCH   3  20
BRANCH   3  27
ATOM     27  C   UNL     1      -7.640   0.722 123.463  0.00  0.00    +0.000 C 
BRANCH  27  28
ATOM     28  C   UNL     1      -8.556  -0.418 123.971  0.00  0.00    +0.000 C 
ATOM     29  C   UNL     1      -7.788  -1.668 124.373  0.00  0.00    +0.000 C 
ATOM     30  C   UNL     1      -8.749  -2.784 124.023  0.00  0.00    +0.000 C 
ATOM     31  C   UNL     1      -9.454  -2.260 122.801  0.00  0.00    +0.000 C 
ATOM     32  O   UNL     1      -9.464  -0.851 122.945  0.00  0.00    +0.000 OA
ENDBRANCH  27  28
ENDBRANCH   3  27
TORSDOF 7
ENDMDL
MODEL 9
REMARK VINA RESULT:      -8.1      4.824      7.328
REMARK  Name = CHEMBL480546
REMARK  7 active torsions:
REMARK  status: ('A' for Active; 'I' for Inactive)
REMARK    1  A    between atoms: C_2  and  C_3
REMARK    2  A    between atoms: C_6  and  C_7
REMARK    3  A    between atoms: C_12  and  C_13
REMARK    4  A    between atoms: N_19  and  C_20
REMARK    5  A    between atoms: N_19  and  C_27
REMARK    6  A    between atoms: C_20  and  C_21
REMARK    7  A    between atoms: C_27  and  C_28
REMARK                            x       y       z     vdW  Elec       q    Type
REMARK                         _______ _______ _______ _____ _____    ______ ____
ROOT
ATOM      1  O   UNL     1      -7.581   0.504 127.803  0.00  0.00    +0.000 OA
ATOM      2  C   UNL     1      -7.160   1.377 127.035  0.00  0.00    +0.000 C 
ATOM      3  N   UNL     1      -7.503   1.554 125.692  0.00  0.00    +0.000 N 
ENDROOT
BRANCH   2   4
ATOM      4  C   UNL     1      -6.178   2.222 127.693  0.00  0.00    +0.000 A 
ATOM      5  C   UNL     1      -4.833   1.853 127.646  0.00  0.00    +0.000 A 
ATOM      6  C   UNL     1      -3.954   2.448 128.532  0.00  0.00    +0.000 A 
ATOM      7  C   UNL     1      -4.437   3.455 129.371  0.00  0.00    +0.000 A 
ATOM      8  N   UNL     1      -5.740   3.819 129.436  0.00  0.00    +0.000 NA
ATOM      9  C   UNL     1      -6.588   3.156 128.625  0.00  0.00    +0.000 A 
BRANCH   7  10
ATOM     10  C   UNL     1      -3.512   4.317 130.094  0.00  0.00    +0.000 A 
ATOM     11  C   UNL     1      -3.257   4.093 131.460  0.00  0.00    +0.000 A 
ATOM     12  C   UNL     1      -2.377   4.915 132.164  0.00  0.00    +0.000 A 
ATOM     13  C   UNL     1      -1.693   5.927 131.500  0.00  0.00    +0.000 A 
ATOM     14  C   UNL     1      -1.942   6.165 130.150  0.00  0.00    +0.000 A 
ATOM     15  C   UNL     1      -2.867   5.385 129.434  0.00  0.00    +0.000 A 
BRANCH  15  16
ATOM     16  C   UNL     1      -3.080   5.725 127.972  0.00  0.00    +0.000 C 
ATOM     17  F   UNL     1      -2.626   6.970 127.657  0.00  0.00    +0.000 F 
ATOM     18  F   UNL     1      -2.393   4.861 127.169  0.00  0.00    +0.000 F 
ATOM     19  F   UNL     1      -4.355   5.705 127.500  0.00  0.00    +0.000 F 
ENDBRANCH  15  16
ENDBRANCH   7  10
ENDBRANCH   2   4
BRANCH   3  20
ATOM     20  C   UNL     1      -8.373   0.578 125.008  0.00  0.00    +0.000 C 
BRANCH  20  21
ATOM     21  C   UNL     1      -7.809  -0.744 124.589  0.00  0.00    +0.000 A 
ATOM     22  C   UNL     1      -6.597  -0.818 123.898  0.00  0.00    +0.000 A 
ATOM     23  C   UNL     1      -6.006  -2.050 123.674  0.00  0.00    +0.000 A 
ATOM     24  C   UNL     1      -6.664  -3.214 124.062  0.00  0.00    +0.000 A 
ATOM     25  C   UNL     1      -7.924  -3.153 124.658  0.00  0.00    +0.000 A 
ATOM     26  C   UNL     1      -8.494  -1.919 124.934  0.00  0.00    +0.000 A 
ENDBRANCH  20  21
ENDBRANCH   3  20
BRANCH   3  27
ATOM     27  C   UNL     1      -7.290   2.849 125.003  0.00  0.00    +0.000 C 
BRANCH  27  28
ATOM     28  C   UNL     1      -6.153   2.948 123.956  0.00  0.00    +0.000 C 
ATOM     29  C   UNL     1      -5.548   4.341 123.860  0.00  0.00    +0.000 C 
ATOM     30  C   UNL     1      -5.165   4.444 122.400  0.00  0.00    +0.000 C 
ATOM     31  C   UNL     1      -6.238   3.650 121.705  0.00  0.00    +0.000 C 
ATOM     32  O   UNL     1      -6.637   2.659 122.635  0.00  0.00    +0.000 OA
ENDBRANCH  27  28
ENDBRANCH   3  27
TORSDOF 7
ENDMDL
