MODEL 1
REMARK VINA RESULT:      -8.5      0.000      0.000
REMARK  Name = CHEMBL480584
REMARK  7 active torsions:
REMARK  status: ('A' for Active; 'I' for Inactive)
REMARK    1  A    between atoms: C_2  and  C_3
REMARK    2  A    between atoms: C_8  and  C_9
REMARK    3  A    between atoms: C_12  and  C_13
REMARK    4  A    between atoms: N_15  and  C_16
REMARK    5  A    between atoms: N_15  and  C_23
REMARK    6  A    between atoms: C_16  and  C_17
REMARK    7  A    between atoms: C_23  and  C_24
REMARK                            x       y       z     vdW  Elec       q    Type
REMARK                         _______ _______ _______ _____ _____    ______ ____
ROOT
ATOM      1  C   UNL     1      -8.975   0.230 125.626  0.00  0.00    +0.000 C 
ATOM      2  O   UNL     1      -9.478   1.133 126.298  0.00  0.00    +0.000 OA
ATOM      3  N   UNL     1      -9.171   0.158 124.198  0.00  0.00    +0.000 N 
ENDROOT
BRANCH   1   7
ATOM      4  C   UNL     1      -6.958  -2.427 128.482  0.00  0.00    +0.000 A 
ATOM      5  C   UNL     1      -6.200  -1.514 127.780  0.00  0.00    +0.000 A 
ATOM      6  C   UNL     1      -6.798  -0.623 126.811  0.00  0.00    +0.000 A 
ATOM      7  C   UNL     1      -8.131  -0.754 126.391  0.00  0.00    +0.000 A 
ATOM      8  C   UNL     1      -8.746  -1.875 126.820  0.00  0.00    +0.000 A 
ATOM      9  C   UNL     1      -8.207  -2.569 127.899  0.00  0.00    +0.000 A 
BRANCH   4  15
ATOM     10  C   UNL     1      -7.054  -2.528 131.060  0.00  0.00    +0.000 A 
ATOM     11  C   UNL     1      -6.733  -3.137 132.295  0.00  0.00    +0.000 A 
ATOM     12  C   UNL     1      -5.964  -4.297 132.339  0.00  0.00    +0.000 A 
ATOM     13  C   UNL     1      -5.433  -4.797 131.156  0.00  0.00    +0.000 A 
ATOM     14  C   UNL     1      -5.709  -4.159 129.926  0.00  0.00    +0.000 A 
ATOM     15  C   UNL     1      -6.599  -3.054 129.821  0.00  0.00    +0.000 A 
BRANCH  10  17
ATOM     16  N   UNL     1      -8.501  -0.379 131.103  0.00  0.00    +0.000 NA
ATOM     17  C   UNL     1      -7.822  -1.301 131.099  0.00  0.00    +0.000 C 
ENDBRANCH  10  17
ENDBRANCH   4  15
ENDBRANCH   1   7
BRANCH   3  18
ATOM     18  C   UNL     1      -8.876  -0.941 123.212  0.00  0.00    +0.000 C 
BRANCH  18  19
ATOM     19  C   UNL     1      -7.764  -1.985 123.295  0.00  0.00    +0.000 A 
ATOM     20  C   UNL     1      -8.054  -3.244 123.829  0.00  0.00    +0.000 A 
ATOM     21  C   UNL     1      -7.007  -4.011 124.350  0.00  0.00    +0.000 A 
ATOM     22  C   UNL     1      -5.651  -3.618 124.193  0.00  0.00    +0.000 A 
ATOM     23  C   UNL     1      -5.349  -2.372 123.604  0.00  0.00    +0.000 A 
ATOM     24  C   UNL     1      -6.403  -1.575 123.118  0.00  0.00    +0.000 A 
ENDBRANCH  18  19
ENDBRANCH   3  18
BRANCH   3  25
ATOM     25  C   UNL     1      -9.642   1.443 123.570  0.00  0.00    +0.000 C 
BRANCH  25  26
ATOM     26  C   UNL     1      -8.645   2.646 123.297  0.00  0.00    +0.000 C 
ATOM     27  C   UNL     1      -7.213   2.192 123.025  0.00  0.00    +0.000 C 
ATOM     28  C   UNL     1      -6.356   3.243 123.701  0.00  0.00    +0.000 C 
ATOM     29  C   UNL     1      -7.206   3.673 124.855  0.00  0.00    +0.000 C 
ATOM     30  O   UNL     1      -8.540   3.655 124.323  0.00  0.00    +0.000 OA
ENDBRANCH  25  26
ENDBRANCH   3  25
TORSDOF 7
ENDMDL
MODEL 2
REMARK VINA RESULT:      -8.1      5.335      7.935
REMARK  Name = CHEMBL480584
REMARK  7 active torsions:
REMARK  status: ('A' for Active; 'I' for Inactive)
REMARK    1  A    between atoms: C_2  and  C_3
REMARK    2  A    between atoms: C_8  and  C_9
REMARK    3  A    between atoms: C_12  and  C_13
REMARK    4  A    between atoms: N_15  and  C_16
REMARK    5  A    between atoms: N_15  and  C_23
REMARK    6  A    between atoms: C_16  and  C_17
REMARK    7  A    between atoms: C_23  and  C_24
REMARK                            x       y       z     vdW  Elec       q    Type
REMARK                         _______ _______ _______ _____ _____    ______ ____
ROOT
ATOM      1  C   UNL     1     -10.517   4.373 130.722  0.00  0.00    +0.000 C 
ATOM      2  O   UNL     1     -11.124   4.336 129.649  0.00  0.00    +0.000 OA
ATOM      3  N   UNL     1     -10.592   5.526 131.587  0.00  0.00    +0.000 N 
ENDROOT
BRANCH   1   7
ATOM      4  C   UNL     1      -8.419   0.524 130.990  0.00  0.00    +0.000 A 
ATOM      5  C   UNL     1      -9.380   0.821 131.934  0.00  0.00    +0.000 A 
ATOM      6  C   UNL     1     -10.095   2.077 131.915  0.00  0.00    +0.000 A 
ATOM      7  C   UNL     1      -9.733   3.135 131.066  0.00  0.00    +0.000 A 
ATOM      8  C   UNL     1      -8.568   2.954 130.411  0.00  0.00    +0.000 A 
ATOM      9  C   UNL     1      -8.047   1.668 130.303  0.00  0.00    +0.000 A 
BRANCH   4  15
ATOM     10  C   UNL     1      -7.428  -1.802 131.511  0.00  0.00    +0.000 A 
ATOM     11  C   UNL     1      -7.028  -3.101 131.121  0.00  0.00    +0.000 A 
ATOM     12  C   UNL     1      -7.156  -3.519 129.799  0.00  0.00    +0.000 A 
ATOM     13  C   UNL     1      -7.594  -2.609 128.845  0.00  0.00    +0.000 A 
ATOM     14  C   UNL     1      -7.944  -1.293 129.224  0.00  0.00    +0.000 A 
ATOM     15  C   UNL     1      -7.958  -0.867 130.582  0.00  0.00    +0.000 A 
BRANCH  10  17
ATOM     16  N   UNL     1      -7.034  -1.214 134.003  0.00  0.00    +0.000 NA
ATOM     17  C   UNL     1      -7.225  -1.427 132.895  0.00  0.00    +0.000 C 
ENDBRANCH  10  17
ENDBRANCH   4  15
ENDBRANCH   1   7
BRANCH   3  18
ATOM     18  C   UNL     1      -9.782   5.909 132.798  0.00  0.00    +0.000 C 
BRANCH  18  19
ATOM     19  C   UNL     1      -8.430   5.342 133.225  0.00  0.00    +0.000 A 
ATOM     20  C   UNL     1      -7.289   5.682 132.493  0.00  0.00    +0.000 A 
ATOM     21  C   UNL     1      -6.176   4.836 132.549  0.00  0.00    +0.000 A 
ATOM     22  C   UNL     1      -6.120   3.745 133.458  0.00  0.00    +0.000 A 
ATOM     23  C   UNL     1      -7.250   3.429 134.241  0.00  0.00    +0.000 A 
ATOM     24  C   UNL     1      -8.390   4.252 134.155  0.00  0.00    +0.000 A 
ENDBRANCH  18  19
ENDBRANCH   3  18
BRANCH   3  25
ATOM     25  C   UNL     1     -11.752   6.442 131.304  0.00  0.00    +0.000 C 
BRANCH  25  26
ATOM     26  C   UNL     1     -11.612   7.672 130.312  0.00  0.00    +0.000 C 
ATOM     27  C   UNL     1     -12.722   7.733 129.267  0.00  0.00    +0.000 C 
ATOM     28  C   UNL     1     -12.023   8.215 128.011  0.00  0.00    +0.000 C 
ATOM     29  C   UNL     1     -10.643   7.657 128.164  0.00  0.00    +0.000 C 
ATOM     30  O   UNL     1     -10.379   7.779 129.571  0.00  0.00    +0.000 OA
ENDBRANCH  25  26
ENDBRANCH   3  25
TORSDOF 7
ENDMDL
MODEL 3
REMARK VINA RESULT:      -7.9      7.165      9.150
REMARK  Name = CHEMBL480584
REMARK  7 active torsions:
REMARK  status: ('A' for Active; 'I' for Inactive)
REMARK    1  A    between atoms: C_2  and  C_3
REMARK    2  A    between atoms: C_8  and  C_9
REMARK    3  A    between atoms: C_12  and  C_13
REMARK    4  A    between atoms: N_15  and  C_16
REMARK    5  A    between atoms: N_15  and  C_23
REMARK    6  A    between atoms: C_16  and  C_17
REMARK    7  A    between atoms: C_23  and  C_24
REMARK                            x       y       z     vdW  Elec       q    Type
REMARK                         _______ _______ _______ _____ _____    ______ ____
ROOT
ATOM      1  C   UNL     1     -10.349   6.021 131.717  0.00  0.00    +0.000 C 
ATOM      2  O   UNL     1     -11.177   6.792 132.207  0.00  0.00    +0.000 OA
ATOM      3  N   UNL     1     -10.730   5.039 130.730  0.00  0.00    +0.000 N 
ENDROOT
BRANCH   1   7
ATOM      4  C   UNL     1      -6.038   6.010 132.555  0.00  0.00    +0.000 A 
ATOM      5  C   UNL     1      -6.912   5.719 133.581  0.00  0.00    +0.000 A 
ATOM      6  C   UNL     1      -8.343   5.723 133.379  0.00  0.00    +0.000 A 
ATOM      7  C   UNL     1      -8.934   6.200 132.197  0.00  0.00    +0.000 A 
ATOM      8  C   UNL     1      -8.080   6.814 131.353  0.00  0.00    +0.000 A 
ATOM      9  C   UNL     1      -6.713   6.593 131.495  0.00  0.00    +0.000 A 
BRANCH   4  15
ATOM     10  C   UNL     1      -3.651   5.803 133.517  0.00  0.00    +0.000 A 
ATOM     11  C   UNL     1      -2.306   5.377 133.430  0.00  0.00    +0.000 A 
ATOM     12  C   UNL     1      -1.844   4.703 132.303  0.00  0.00    +0.000 A 
ATOM     13  C   UNL     1      -2.699   4.539 131.220  0.00  0.00    +0.000 A 
ATOM     14  C   UNL     1      -4.029   5.011 131.285  0.00  0.00    +0.000 A 
ATOM     15  C   UNL     1      -4.580   5.583 132.466  0.00  0.00    +0.000 A 
BRANCH  10  17
ATOM     16  N   UNL     1      -4.273   7.146 135.645  0.00  0.00    +0.000 NA
ATOM     17  C   UNL     1      -4.045   6.535 134.703  0.00  0.00    +0.000 C 
ENDBRANCH  10  17
ENDBRANCH   4  15
ENDBRANCH   1   7
BRANCH   3  18
ATOM     18  C   UNL     1      -9.984   3.857 130.171  0.00  0.00    +0.000 C 
BRANCH  18  19
ATOM     19  C   UNL     1      -8.958   2.984 130.890  0.00  0.00    +0.000 A 
ATOM     20  C   UNL     1      -9.294   2.417 132.123  0.00  0.00    +0.000 A 
ATOM     21  C   UNL     1      -8.266   2.043 132.995  0.00  0.00    +0.000 A 
ATOM     22  C   UNL     1      -6.905   2.068 132.589  0.00  0.00    +0.000 A 
ATOM     23  C   UNL     1      -6.563   2.589 131.323  0.00  0.00    +0.000 A 
ATOM     24  C   UNL     1      -7.592   3.007 130.459  0.00  0.00    +0.000 A 
ENDBRANCH  18  19
ENDBRANCH   3  18
BRANCH   3  25
ATOM     25  C   UNL     1     -12.050   5.311 130.060  0.00  0.00    +0.000 C 
BRANCH  25  26
ATOM     26  C   UNL     1     -12.200   6.435 128.951  0.00  0.00    +0.000 C 
ATOM     27  C   UNL     1     -10.865   7.030 128.511  0.00  0.00    +0.000 C 
ATOM     28  C   UNL     1     -11.167   8.500 128.297  0.00  0.00    +0.000 C 
ATOM     29  C   UNL     1     -12.250   8.766 129.294  0.00  0.00    +0.000 C 
ATOM     30  O   UNL     1     -13.037   7.565 129.273  0.00  0.00    +0.000 OA
ENDBRANCH  25  26
ENDBRANCH   3  25
TORSDOF 7
ENDMDL
MODEL 4
REMARK VINA RESULT:      -7.8      3.556      6.347
REMARK  Name = CHEMBL480584
REMARK  7 active torsions:
REMARK  status: ('A' for Active; 'I' for Inactive)
REMARK    1  A    between atoms: C_2  and  C_3
REMARK    2  A    between atoms: C_8  and  C_9
REMARK    3  A    between atoms: C_12  and  C_13
REMARK    4  A    between atoms: N_15  and  C_16
REMARK    5  A    between atoms: N_15  and  C_23
REMARK    6  A    between atoms: C_16  and  C_17
REMARK    7  A    between atoms: C_23  and  C_24
REMARK                            x       y       z     vdW  Elec       q    Type
REMARK                         _______ _______ _______ _____ _____    ______ ____
ROOT
ATOM      1  C   UNL     1      -4.847   2.663 127.751  0.00  0.00    +0.000 C 
ATOM      2  O   UNL     1      -4.533   2.806 128.935  0.00  0.00    +0.000 OA
ATOM      3  N   UNL     1      -4.383   3.578 126.736  0.00  0.00    +0.000 N 
ENDROOT
BRANCH   1   7
ATOM      4  C   UNL     1      -7.243  -0.630 126.108  0.00  0.00    +0.000 A 
ATOM      5  C   UNL     1      -7.834   0.234 127.007  0.00  0.00    +0.000 A 
ATOM      6  C   UNL     1      -7.097   1.327 127.599  0.00  0.00    +0.000 A 
ATOM      7  C   UNL     1      -5.708   1.466 127.449  0.00  0.00    +0.000 A 
ATOM      8  C   UNL     1      -5.099   0.412 126.868  0.00  0.00    +0.000 A 
ATOM      9  C   UNL     1      -5.865  -0.494 126.140  0.00  0.00    +0.000 A 
BRANCH   4  15
ATOM     10  C   UNL     1      -8.678  -2.656 125.397  0.00  0.00    +0.000 A 
ATOM     11  C   UNL     1      -9.363  -3.414 124.421  0.00  0.00    +0.000 A 
ATOM     12  C   UNL     1      -9.374  -3.017 123.087  0.00  0.00    +0.000 A 
ATOM     13  C   UNL     1      -8.619  -1.913 122.709  0.00  0.00    +0.000 A 
ATOM     14  C   UNL     1      -7.891  -1.183 123.675  0.00  0.00    +0.000 A 
ATOM     15  C   UNL     1      -7.962  -1.474 125.066  0.00  0.00    +0.000 A 
BRANCH  10  17
ATOM     16  N   UNL     1      -8.721  -3.477 127.854  0.00  0.00    +0.000 NA
ATOM     17  C   UNL     1      -8.678  -3.157 126.756  0.00  0.00    +0.000 C 
ENDBRANCH  10  17
ENDBRANCH   4  15
ENDBRANCH   1   7
BRANCH   3  18
ATOM     18  C   UNL     1      -4.803   3.761 125.301  0.00  0.00    +0.000 C 
BRANCH  18  19
ATOM     19  C   UNL     1      -6.203   3.585 124.716  0.00  0.00    +0.000 A 
ATOM     20  C   UNL     1      -7.288   4.184 125.361  0.00  0.00    +0.000 A 
ATOM     21  C   UNL     1      -8.569   3.662 125.149  0.00  0.00    +0.000 A 
ATOM     22  C   UNL     1      -8.807   2.660 124.171  0.00  0.00    +0.000 A 
ATOM     23  C   UNL     1      -7.720   2.089 123.476  0.00  0.00    +0.000 A 
ATOM     24  C   UNL     1      -6.423   2.580 123.719  0.00  0.00    +0.000 A 
ENDBRANCH  18  19
ENDBRANCH   3  18
BRANCH   3  25
ATOM     25  C   UNL     1      -3.198   4.412 127.144  0.00  0.00    +0.000 C 
BRANCH  25  26
ATOM     26  C   UNL     1      -3.379   5.854 127.780  0.00  0.00    +0.000 C 
ATOM     27  C   UNL     1      -2.296   6.205 128.796  0.00  0.00    +0.000 C 
ATOM     28  C   UNL     1      -3.032   6.982 129.870  0.00  0.00    +0.000 C 
ATOM     29  C   UNL     1      -4.400   6.376 129.839  0.00  0.00    +0.000 C 
ATOM     30  O   UNL     1      -4.632   6.124 128.444  0.00  0.00    +0.000 OA
ENDBRANCH  25  26
ENDBRANCH   3  25
TORSDOF 7
ENDMDL
MODEL 5
REMARK VINA RESULT:      -7.5      3.919      6.816
REMARK  Name = CHEMBL480584
REMARK  7 active torsions:
REMARK  status: ('A' for Active; 'I' for Inactive)
REMARK    1  A    between atoms: C_2  and  C_3
REMARK    2  A    between atoms: C_8  and  C_9
REMARK    3  A    between atoms: C_12  and  C_13
REMARK    4  A    between atoms: N_15  and  C_16
REMARK    5  A    between atoms: N_15  and  C_23
REMARK    6  A    between atoms: C_16  and  C_17
REMARK    7  A    between atoms: C_23  and  C_24
REMARK                            x       y       z     vdW  Elec       q    Type
REMARK                         _______ _______ _______ _____ _____    ______ ____
ROOT
ATOM      1  C   UNL     1      -6.168   4.117 128.827  0.00  0.00    +0.000 C 
ATOM      2  O   UNL     1      -5.796   5.033 128.091  0.00  0.00    +0.000 OA
ATOM      3  N   UNL     1      -6.324   4.312 130.248  0.00  0.00    +0.000 N 
ENDROOT
BRANCH   1   7
ATOM      4  C   UNL     1      -7.372   0.105 127.508  0.00  0.00    +0.000 A 
ATOM      5  C   UNL     1      -6.045   0.465 127.404  0.00  0.00    +0.000 A 
ATOM      6  C   UNL     1      -5.584   1.775 127.802  0.00  0.00    +0.000 A 
ATOM      7  C   UNL     1      -6.469   2.814 128.137  0.00  0.00    +0.000 A 
ATOM      8  C   UNL     1      -7.766   2.547 127.883  0.00  0.00    +0.000 A 
ATOM      9  C   UNL     1      -8.163   1.225 127.709  0.00  0.00    +0.000 A 
BRANCH   4  15
ATOM     10  C   UNL     1      -8.614  -1.942 126.541  0.00  0.00    +0.000 A 
ATOM     11  C   UNL     1      -9.089  -3.270 126.639  0.00  0.00    +0.000 A 
ATOM     12  C   UNL     1      -8.871  -4.023 127.789  0.00  0.00    +0.000 A 
ATOM     13  C   UNL     1      -8.263  -3.419 128.882  0.00  0.00    +0.000 A 
ATOM     14  C   UNL     1      -7.834  -2.074 128.806  0.00  0.00    +0.000 A 
ATOM     15  C   UNL     1      -7.915  -1.313 127.606  0.00  0.00    +0.000 A 
BRANCH  10  17
ATOM     16  N   UNL     1      -9.243  -0.630 124.397  0.00  0.00    +0.000 NA
ATOM     17  C   UNL     1      -8.917  -1.210 125.329  0.00  0.00    +0.000 C 
ENDBRANCH  10  17
ENDBRANCH   4  15
ENDBRANCH   1   7
BRANCH   3  18
ATOM     18  C   UNL     1      -6.525   3.324 131.367  0.00  0.00    +0.000 C 
BRANCH  18  19
ATOM     19  C   UNL     1      -7.287   2.001 131.309  0.00  0.00    +0.000 A 
ATOM     20  C   UNL     1      -8.682   2.017 131.392  0.00  0.00    +0.000 A 
ATOM     21  C   UNL     1      -9.344   0.862 131.819  0.00  0.00    +0.000 A 
ATOM     22  C   UNL     1      -8.651  -0.364 132.002  0.00  0.00    +0.000 A 
ATOM     23  C   UNL     1      -7.247  -0.400 131.866  0.00  0.00    +0.000 A 
ATOM     24  C   UNL     1      -6.570   0.773 131.479  0.00  0.00    +0.000 A 
ENDBRANCH  18  19
ENDBRANCH   3  18
BRANCH   3  25
ATOM     25  C   UNL     1      -6.420   5.753 130.671  0.00  0.00    +0.000 C 
BRANCH  25  26
ATOM     26  C   UNL     1      -7.821   6.484 130.810  0.00  0.00    +0.000 C 
ATOM     27  C   UNL     1      -8.539   6.167 132.119  0.00  0.00    +0.000 C 
ATOM     28  C   UNL     1     -10.002   6.085 131.730  0.00  0.00    +0.000 C 
ATOM     29  C   UNL     1      -9.943   5.583 130.321  0.00  0.00    +0.000 C 
ATOM     30  O   UNL     1      -8.792   6.242 129.770  0.00  0.00    +0.000 OA
ENDBRANCH  25  26
ENDBRANCH   3  25
TORSDOF 7
ENDMDL
MODEL 6
REMARK VINA RESULT:      -7.5      5.794     10.114
REMARK  Name = CHEMBL480584
REMARK  7 active torsions:
REMARK  status: ('A' for Active; 'I' for Inactive)
REMARK    1  A    between atoms: C_2  and  C_3
REMARK    2  A    between atoms: C_8  and  C_9
REMARK    3  A    between atoms: C_12  and  C_13
REMARK    4  A    between atoms: N_15  and  C_16
REMARK    5  A    between atoms: N_15  and  C_23
REMARK    6  A    between atoms: C_16  and  C_17
REMARK    7  A    between atoms: C_23  and  C_24
REMARK                            x       y       z     vdW  Elec       q    Type
REMARK                         _______ _______ _______ _____ _____    ______ ____
ROOT
ATOM      1  C   UNL     1      -8.455   1.969 129.821  0.00  0.00    +0.000 C 
ATOM      2  O   UNL     1      -8.634   1.609 128.655  0.00  0.00    +0.000 OA
ATOM      3  N   UNL     1      -7.709   1.156 130.751  0.00  0.00    +0.000 N 
ENDROOT
BRANCH   1   7
ATOM      4  C   UNL     1     -10.517   5.830 130.168  0.00  0.00    +0.000 A 
ATOM      5  C   UNL     1      -9.144   5.801 130.287  0.00  0.00    +0.000 A 
ATOM      6  C   UNL     1      -8.405   4.562 130.201  0.00  0.00    +0.000 A 
ATOM      7  C   UNL     1      -9.038   3.309 130.182  0.00  0.00    +0.000 A 
ATOM      8  C   UNL     1     -10.362   3.347 130.432  0.00  0.00    +0.000 A 
ATOM      9  C   UNL     1     -11.041   4.554 130.294  0.00  0.00    +0.000 A 
BRANCH   4  15
ATOM     10  C   UNL     1     -11.384   7.522 128.420  0.00  0.00    +0.000 A 
ATOM     11  C   UNL     1     -12.191   8.619 128.044  0.00  0.00    +0.000 A 
ATOM     12  C   UNL     1     -13.014   9.251 128.972  0.00  0.00    +0.000 A 
ATOM     13  C   UNL     1     -12.958   8.850 130.302  0.00  0.00    +0.000 A 
ATOM     14  C   UNL     1     -12.112   7.787 130.691  0.00  0.00    +0.000 A 
ATOM     15  C   UNL     1     -11.359   7.027 129.752  0.00  0.00    +0.000 A 
BRANCH  10  17
ATOM     16  N   UNL     1      -9.918   6.481 126.554  0.00  0.00    +0.000 NA
ATOM     17  C   UNL     1     -10.524   6.945 127.407  0.00  0.00    +0.000 C 
ENDBRANCH  10  17
ENDBRANCH   4  15
ENDBRANCH   1   7
BRANCH   3  18
ATOM     18  C   UNL     1      -7.557   1.249 132.246  0.00  0.00    +0.000 C 
BRANCH  18  19
ATOM     19  C   UNL     1      -7.514   2.518 133.096  0.00  0.00    +0.000 A 
ATOM     20  C   UNL     1      -8.693   2.980 133.685  0.00  0.00    +0.000 A 
ATOM     21  C   UNL     1      -8.785   4.331 134.037  0.00  0.00    +0.000 A 
ATOM     22  C   UNL     1      -7.658   5.193 133.967  0.00  0.00    +0.000 A 
ATOM     23  C   UNL     1      -6.447   4.716 133.423  0.00  0.00    +0.000 A 
ATOM     24  C   UNL     1      -6.363   3.368 133.026  0.00  0.00    +0.000 A 
ENDBRANCH  18  19
ENDBRANCH   3  18
BRANCH   3  25
ATOM     25  C   UNL     1      -6.842   0.109 130.105  0.00  0.00    +0.000 C 
BRANCH  25  26
ATOM     26  C   UNL     1      -5.746  -0.685 130.933  0.00  0.00    +0.000 C 
ATOM     27  C   UNL     1      -4.319  -0.243 130.623  0.00  0.00    +0.000 C 
ATOM     28  C   UNL     1      -3.515  -1.527 130.666  0.00  0.00    +0.000 C 
ATOM     29  C   UNL     1      -4.505  -2.554 130.212  0.00  0.00    +0.000 C 
ATOM     30  O   UNL     1      -5.741  -2.122 130.803  0.00  0.00    +0.000 OA
ENDBRANCH  25  26
ENDBRANCH   3  25
TORSDOF 7
ENDMDL
MODEL 7
REMARK VINA RESULT:      -7.5      5.861      8.247
REMARK  Name = CHEMBL480584
REMARK  7 active torsions:
REMARK  status: ('A' for Active; 'I' for Inactive)
REMARK    1  A    between atoms: C_2  and  C_3
REMARK    2  A    between atoms: C_8  and  C_9
REMARK    3  A    between atoms: C_12  and  C_13
REMARK    4  A    between atoms: N_15  and  C_16
REMARK    5  A    between atoms: N_15  and  C_23
REMARK    6  A    between atoms: C_16  and  C_17
REMARK    7  A    between atoms: C_23  and  C_24
REMARK                            x       y       z     vdW  Elec       q    Type
REMARK                         _______ _______ _______ _____ _____    ______ ____
ROOT
ATOM      1  C   UNL     1     -10.694   4.580 130.377  0.00  0.00    +0.000 C 
ATOM      2  O   UNL     1     -11.785   4.199 129.948  0.00  0.00    +0.000 OA
ATOM      3  N   UNL     1     -10.428   5.977 130.619  0.00  0.00    +0.000 N 
ENDROOT
BRANCH   1   7
ATOM      4  C   UNL     1      -7.698   1.749 131.892  0.00  0.00    +0.000 A 
ATOM      5  C   UNL     1      -7.432   2.430 130.723  0.00  0.00    +0.000 A 
ATOM      6  C   UNL     1      -8.382   3.361 130.159  0.00  0.00    +0.000 A 
ATOM      7  C   UNL     1      -9.691   3.491 130.652  0.00  0.00    +0.000 A 
ATOM      8  C   UNL     1     -10.042   2.559 131.561  0.00  0.00    +0.000 A 
ATOM      9  C   UNL     1      -9.043   1.839 132.210  0.00  0.00    +0.000 A 
BRANCH   4  15
ATOM     10  C   UNL     1      -5.959  -0.045 132.545  0.00  0.00    +0.000 A 
ATOM     11  C   UNL     1      -4.986  -0.573 133.423  0.00  0.00    +0.000 A 
ATOM     12  C   UNL     1      -4.672   0.076 134.614  0.00  0.00    +0.000 A 
ATOM     13  C   UNL     1      -5.399   1.203 134.977  0.00  0.00    +0.000 A 
ATOM     14  C   UNL     1      -6.409   1.704 134.125  0.00  0.00    +0.000 A 
ATOM     15  C   UNL     1      -6.667   1.151 132.839  0.00  0.00    +0.000 A 
BRANCH  10  17
ATOM     16  N   UNL     1      -6.415  -1.434 130.406  0.00  0.00    +0.000 NA
ATOM     17  C   UNL     1      -6.260  -0.800 131.347  0.00  0.00    +0.000 C 
ENDBRANCH  10  17
ENDBRANCH   4  15
ENDBRANCH   1   7
BRANCH   3  18
ATOM     18  C   UNL     1      -9.141   6.705 130.903  0.00  0.00    +0.000 C 
BRANCH  18  19
ATOM     19  C   UNL     1      -8.136   6.412 132.016  0.00  0.00    +0.000 A 
ATOM     20  C   UNL     1      -6.770   6.437 131.721  0.00  0.00    +0.000 A 
ATOM     21  C   UNL     1      -5.891   5.727 132.545  0.00  0.00    +0.000 A 
ATOM     22  C   UNL     1      -6.330   5.131 133.757  0.00  0.00    +0.000 A 
ATOM     23  C   UNL     1      -7.701   5.150 134.088  0.00  0.00    +0.000 A 
ATOM     24  C   UNL     1      -8.598   5.826 133.238  0.00  0.00    +0.000 A 
ENDBRANCH  18  19
ENDBRANCH   3  18
BRANCH   3  25
ATOM     25  C   UNL     1     -11.660   6.836 130.722  0.00  0.00    +0.000 C 
BRANCH  25  26
ATOM     26  C   UNL     1     -12.188   7.679 129.486  0.00  0.00    +0.000 C 
ATOM     27  C   UNL     1     -13.369   7.027 128.772  0.00  0.00    +0.000 C 
ATOM     28  C   UNL     1     -13.127   7.325 127.306  0.00  0.00    +0.000 C 
ATOM     29  C   UNL     1     -11.633   7.364 127.217  0.00  0.00    +0.000 C 
ATOM     30  O   UNL     1     -11.234   7.987 128.448  0.00  0.00    +0.000 OA
ENDBRANCH  25  26
ENDBRANCH   3  25
TORSDOF 7
ENDMDL
MODEL 8
REMARK VINA RESULT:      -7.4      2.157      7.479
REMARK  Name = CHEMBL480584
REMARK  7 active torsions:
REMARK  status: ('A' for Active; 'I' for Inactive)
REMARK    1  A    between atoms: C_2  and  C_3
REMARK    2  A    between atoms: C_8  and  C_9
REMARK    3  A    between atoms: C_12  and  C_13
REMARK    4  A    between atoms: N_15  and  C_16
REMARK    5  A    between atoms: N_15  and  C_23
REMARK    6  A    between atoms: C_16  and  C_17
REMARK    7  A    between atoms: C_23  and  C_24
REMARK                            x       y       z     vdW  Elec       q    Type
REMARK                         _______ _______ _______ _____ _____    ______ ____
ROOT
ATOM      1  C   UNL     1      -6.773  -0.439 128.156  0.00  0.00    +0.000 C 
ATOM      2  O   UNL     1      -6.192  -0.193 129.215  0.00  0.00    +0.000 OA
ATOM      3  N   UNL     1      -7.576  -1.628 127.999  0.00  0.00    +0.000 N 
ENDROOT
BRANCH   1   7
ATOM      4  C   UNL     1      -6.890   2.187 124.638  0.00  0.00    +0.000 A 
ATOM      5  C   UNL     1      -5.707   1.550 124.949  0.00  0.00    +0.000 A 
ATOM      6  C   UNL     1      -5.594   0.687 126.103  0.00  0.00    +0.000 A 
ATOM      7  C   UNL     1      -6.607   0.591 127.072  0.00  0.00    +0.000 A 
ATOM      8  C   UNL     1      -7.599   1.494 126.936  0.00  0.00    +0.000 A 
ATOM      9  C   UNL     1      -7.762   2.139 125.714  0.00  0.00    +0.000 A 
BRANCH   4  15
ATOM     10  C   UNL     1      -8.618   2.533 122.751  0.00  0.00    +0.000 A 
ATOM     11  C   UNL     1      -8.994   3.035 121.485  0.00  0.00    +0.000 A 
ATOM     12  C   UNL     1      -8.083   3.728 120.693  0.00  0.00    +0.000 A 
ATOM     13  C   UNL     1      -6.766   3.837 121.123  0.00  0.00    +0.000 A 
ATOM     14  C   UNL     1      -6.375   3.290 122.366  0.00  0.00    +0.000 A 
ATOM     15  C   UNL     1      -7.304   2.695 123.265  0.00  0.00    +0.000 A 
BRANCH  10  17
ATOM     16  N   UNL     1     -10.451   1.268 124.076  0.00  0.00    +0.000 NA
ATOM     17  C   UNL     1      -9.611   1.787 123.497  0.00  0.00    +0.000 C 
ENDBRANCH  10  17
ENDBRANCH   4  15
ENDBRANCH   1   7
BRANCH   3  18
ATOM     18  C   UNL     1      -8.175  -2.263 126.772  0.00  0.00    +0.000 C 
BRANCH  18  19
ATOM     19  C   UNL     1      -7.582  -2.300 125.365  0.00  0.00    +0.000 A 
ATOM     20  C   UNL     1      -6.282  -2.782 125.189  0.00  0.00    +0.000 A 
ATOM     21  C   UNL     1      -5.566  -2.390 124.053  0.00  0.00    +0.000 A 
ATOM     22  C   UNL     1      -6.186  -1.660 123.003  0.00  0.00    +0.000 A 
ATOM     23  C   UNL     1      -7.517  -1.217 123.151  0.00  0.00    +0.000 A 
ATOM     24  C   UNL     1      -8.228  -1.572 124.314  0.00  0.00    +0.000 A 
ENDBRANCH  18  19
ENDBRANCH   3  18
BRANCH   3  25
ATOM     25  C   UNL     1      -7.985  -2.277 129.294  0.00  0.00    +0.000 C 
BRANCH  25  26
ATOM     26  C   UNL     1      -7.121  -3.434 129.949  0.00  0.00    +0.000 C 
ATOM     27  C   UNL     1      -6.991  -3.306 131.465  0.00  0.00    +0.000 C 
ATOM     28  C   UNL     1      -5.573  -3.754 131.756  0.00  0.00    +0.000 C 
ATOM     29  C   UNL     1      -4.835  -3.346 130.519  0.00  0.00    +0.000 C 
ATOM     30  O   UNL     1      -5.773  -3.602 129.461  0.00  0.00    +0.000 OA
ENDBRANCH  25  26
ENDBRANCH   3  25
TORSDOF 7
ENDMDL
MODEL 9
REMARK VINA RESULT:      -7.4      2.264      2.849
REMARK  Name = CHEMBL480584
REMARK  7 active torsions:
REMARK  status: ('A' for Active; 'I' for Inactive)
REMARK    1  A    between atoms: C_2  and  C_3
REMARK    2  A    between atoms: C_8  and  C_9
REMARK    3  A    between atoms: C_12  and  C_13
REMARK    4  A    between atoms: N_15  and  C_16
REMARK    5  A    between atoms: N_15  and  C_23
REMARK    6  A    between atoms: C_16  and  C_17
REMARK    7  A    between atoms: C_23  and  C_24
REMARK                            x       y       z     vdW  Elec       q    Type
REMARK                         _______ _______ _______ _____ _____    ______ ____
ROOT
ATOM      1  C   UNL     1      -8.638   2.315 124.937  0.00  0.00    +0.000 C 
ATOM      2  O   UNL     1      -8.814   3.535 124.947  0.00  0.00    +0.000 OA
ATOM      3  N   UNL     1      -8.992   1.515 123.790  0.00  0.00    +0.000 N 
ENDROOT
BRANCH   1   7
ATOM      4  C   UNL     1      -6.365   0.212 128.051  0.00  0.00    +0.000 A 
ATOM      5  C   UNL     1      -7.742   0.136 128.072  0.00  0.00    +0.000 A 
ATOM      6  C   UNL     1      -8.550   0.819 127.088  0.00  0.00    +0.000 A 
ATOM      7  C   UNL     1      -8.009   1.741 126.178  0.00  0.00    +0.000 A 
ATOM      8  C   UNL     1      -6.722   2.070 126.414  0.00  0.00    +0.000 A 
ATOM      9  C   UNL     1      -5.949   1.240 127.220  0.00  0.00    +0.000 A 
BRANCH   4  15
ATOM     10  C   UNL     1      -4.579  -0.482 129.782  0.00  0.00    +0.000 A 
ATOM     11  C   UNL     1      -3.706  -1.434 130.356  0.00  0.00    +0.000 A 
ATOM     12  C   UNL     1      -3.630  -2.729 129.850  0.00  0.00    +0.000 A 
ATOM     13  C   UNL     1      -4.355  -3.048 128.708  0.00  0.00    +0.000 A 
ATOM     14  C   UNL     1      -5.188  -2.082 128.101  0.00  0.00    +0.000 A 
ATOM     15  C   UNL     1      -5.399  -0.792 128.664  0.00  0.00    +0.000 A 
BRANCH  10  17
ATOM     16  N   UNL     1      -4.639   1.890 130.823  0.00  0.00    +0.000 NA
ATOM     17  C   UNL     1      -4.571   0.855 130.338  0.00  0.00    +0.000 C 
ENDBRANCH  10  17
ENDBRANCH   4  15
ENDBRANCH   1   7
BRANCH   3  18
ATOM     18  C   UNL     1      -9.099   0.023 123.618  0.00  0.00    +0.000 C 
BRANCH  18  19
ATOM     19  C   UNL     1      -7.969  -1.002 123.692  0.00  0.00    +0.000 A 
ATOM     20  C   UNL     1      -8.288  -2.361 123.766  0.00  0.00    +0.000 A 
ATOM     21  C   UNL     1      -7.348  -3.245 124.305  0.00  0.00    +0.000 A 
ATOM     22  C   UNL     1      -6.028  -2.823 124.616  0.00  0.00    +0.000 A 
ATOM     23  C   UNL     1      -5.682  -1.460 124.492  0.00  0.00    +0.000 A 
ATOM     24  C   UNL     1      -6.640  -0.558 123.990  0.00  0.00    +0.000 A 
ENDBRANCH  18  19
ENDBRANCH   3  18
BRANCH   3  25
ATOM     25  C   UNL     1      -9.170   2.298 122.517  0.00  0.00    +0.000 C 
BRANCH  25  26
ATOM     26  C   UNL     1      -8.121   3.400 122.068  0.00  0.00    +0.000 C 
ATOM     27  C   UNL     1      -8.262   3.806 120.604  0.00  0.00    +0.000 C 
ATOM     28  C   UNL     1      -6.835   4.014 120.137  0.00  0.00    +0.000 C 
ATOM     29  C   UNL     1      -6.067   3.037 120.971  0.00  0.00    +0.000 C 
ATOM     30  O   UNL     1      -6.724   3.086 122.248  0.00  0.00    +0.000 OA
ENDBRANCH  25  26
ENDBRANCH   3  25
TORSDOF 7
ENDMDL
