MODEL 1
REMARK VINA RESULT:     -12.5      0.000      0.000
REMARK  Name = CHEMBL1790719
REMARK  25 active torsions:
REMARK  status: ('A' for Active; 'I' for Inactive)
REMARK    1  A    between atoms: C_1  and  C_2
REMARK    2  A    between atoms: C_2  and  C_3
REMARK    3  A    between atoms: C_3  and  C_4
REMARK    4  A    between atoms: C_3  and  C_5
REMARK    5  A    between atoms: C_9  and  C_10
REMARK    6  A    between atoms: C_13  and  O_14
REMARK    7  A    between atoms: C_20  and  O_21
REMARK    8  A    between atoms: C_26  and  C_27
REMARK    9  A    between atoms: C_33  and  C_34
REMARK   10  A    between atoms: N_36  and  C_37
REMARK   11  A    between atoms: C_37  and  C_38
REMARK   12  A    between atoms: C_37  and  C_69
REMARK   13  A    between atoms: C_38  and  C_39
REMARK   14  A    between atoms: C_39  and  C_40
REMARK   15  A    between atoms: C_40  and  N_41
REMARK   16  A    between atoms: C_42  and  C_44
REMARK   17  A    between atoms: C_57  and  O_58
REMARK   18  A    between atoms: C_64  and  O_65
REMARK   19  A    between atoms: N_71  and  C_72
REMARK   20  A    between atoms: C_72  and  N_73
REMARK   21  A    between atoms: C_77  and  C_78
REMARK   22  A    between atoms: C_78  and  C_79
REMARK   23  A    between atoms: C_85  and  C_86
REMARK   24  A    between atoms: C_86  and  C_87
REMARK   25  A    between atoms: C_86  and  O_88
REMARK                            x       y       z     vdW  Elec       q    Type
REMARK                         _______ _______ _______ _____ _____    ______ ____
ROOT
ATOM      1  C   UNL     1      -6.553  -0.541 134.314  0.00  0.00    +0.000 C 
ATOM      2  N   UNL     1      -6.092   1.602 134.098  0.00  0.00    +0.000 N 
ATOM      3  C   UNL     1      -5.839   3.722 133.871  0.00  0.00    +0.000 C 
ATOM      4  O   UNL     1      -4.701   4.799 133.764  0.00  0.00    +0.000 OA
ATOM      5  C   UNL     1      -6.452   5.533 132.861  0.00  0.00    +0.000 C 
ATOM      6  N   UNL     1      -6.346   5.992 131.157  0.00  0.00    +0.000 N 
ATOM      7  C   UNL     1      -5.586   5.169 130.374  0.00  0.00    +0.000 C 
ATOM      8  O   UNL     1      -5.553   5.196 129.153  0.00  0.00    +0.000 OA
ATOM      9  C   UNL     1      -4.824   4.047 131.003  0.00  0.00    +0.000 C 
ATOM     10  C   UNL     1      -5.332   2.678 130.880  0.00  0.00    +0.000 C 
ATOM     11  S   UNL     1      -4.814   2.650 129.281  0.00  0.00    +0.000 S 
ATOM     12  S   UNL     1      -4.910   0.709 129.444  0.00  0.00    +0.000 S 
ATOM     13  C   UNL     1      -5.050  -0.343 126.942  0.00  0.00    +0.000 C 
ATOM     14  C   UNL     1      -5.726  -1.576 126.653  0.00  0.00    +0.000 C 
ATOM     15  N   UNL     1      -5.158  -2.506 127.588  0.00  0.00    +0.000 N 
ATOM     16  C   UNL     1      -5.706  -2.627 128.946  0.00  0.00    +0.000 C 
ATOM     17  O   UNL     1      -5.393  -3.615 129.673  0.00  0.00    +0.000 OA
ATOM     18  C   UNL     1      -6.265  -1.332 129.628  0.00  0.00    +0.000 C 
ATOM     19  N   UNL     1      -7.197  -1.875 130.480  0.00  0.00    +0.000 N 
ATOM     20  C   UNL     1      -6.862  -2.699 131.514  0.00  0.00    +0.000 C 
ATOM     21  O   UNL     1      -7.790  -3.246 132.101  0.00  0.00    +0.000 OA
ATOM     22  C   UNL     1      -5.348  -2.920 131.941  0.00  0.00    +0.000 C 
ATOM     23  N   UNL     1      -5.008  -2.579 133.380  0.00  0.00    +0.000 N 
ATOM     24  C   UNL     1      -5.614  -2.086 134.506  0.00  0.00    +0.000 C 
ATOM     25  O   UNL     1      -5.417  -2.658 135.597  0.00  0.00    +0.000 OA
ATOM     26  H   UNL     1      -5.616   2.887 134.507  0.00  0.00    +0.000 HD
ATOM     27  H   UNL     1      -6.902   6.719 130.563  0.00  0.00    +0.000 HD
ATOM     28  H   UNL     1      -4.414  -3.070 127.169  0.00  0.00    +0.000 HD
ATOM     29  H   UNL     1      -8.126  -1.683 130.173  0.00  0.00    +0.000 HD
ATOM     30  H   UNL     1      -4.367  -1.821 133.395  0.00  0.00    +0.000 HD
ENDROOT
BRANCH  14  31
ATOM     31  C   UNL     1      -7.443  -1.515 126.605  0.00  0.00    +0.000 C 
ATOM     32  O   UNL     1      -8.301  -1.076 127.400  0.00  0.00    +0.000 OA
ATOM     33  N   UNL     1      -7.958  -2.212 125.633  0.00  0.00    +0.000 N 
ATOM     34  C   UNL     1      -7.493  -3.386 124.993  0.00  0.00    +0.000 C 
ATOM     35  C   UNL     1      -7.918  -3.058 123.595  0.00  0.00    +0.000 C 
ATOM     36  C   UNL     1      -9.290  -2.393 123.790  0.00  0.00    +0.000 C 
ATOM     37  C   UNL     1      -9.171  -1.681 125.116  0.00  0.00    +0.000 C 
BRANCH  37  38
ATOM     38  C   UNL     1      -9.161  -0.171 124.885  0.00  0.00    +0.000 C 
ATOM     39  O   UNL     1     -10.167   0.405 125.309  0.00  0.00    +0.000 OA
ATOM     40  N   UNL     1      -8.144   0.442 124.148  0.00  0.00    +0.000 N 
ATOM     41  H   UNL     1      -7.412  -0.099 123.696  0.00  0.00    +0.000 HD
BRANCH  40  42
ATOM     42  C   UNL     1      -8.037   1.922 123.970  0.00  0.00    +0.000 C 
BRANCH  42  43
ATOM     43  C   UNL     1      -8.686   2.393 122.619  0.00  0.00    +0.000 C 
ATOM     44  O   UNL     1      -9.762   1.890 122.275  0.00  0.00    +0.000 OA
ATOM     45  N   UNL     1      -8.047   3.390 121.864  0.00  0.00    +0.000 N 
ATOM     46  H   UNL     1      -7.159   3.790 122.146  0.00  0.00    +0.000 HD
BRANCH  45  47
ATOM     47  C   UNL     1      -8.607   3.837 120.602  0.00  0.00    +0.000 C 
BRANCH  47  48
ATOM     48  N   UNL     1      -7.548   4.213 119.683  0.00  0.00    +0.000 NA
ATOM     49  H   UNL     1      -7.701   3.793 118.771  0.00  0.00    +0.000 HD
ATOM     50  H   UNL     1      -6.653   3.832 120.023  0.00  0.00    +0.000 HD
ENDBRANCH  47  48
ENDBRANCH  45  47
ENDBRANCH  42  43
BRANCH  42  51
ATOM     51  C   UNL     1      -6.577   2.349 124.005  0.00  0.00    +0.000 C 
BRANCH  51  52
ATOM     52  C   UNL     1      -6.176   2.918 125.346  0.00  0.00    +0.000 C 
BRANCH  52  53
ATOM     53  C   UNL     1      -4.740   3.305 125.473  0.00  0.00    +0.000 C 
BRANCH  53  54
ATOM     54  N   UNL     1      -4.546   4.557 126.283  0.00  0.00    +0.000 N 
ATOM     55  C   UNL     1      -3.344   4.827 126.996  0.00  0.00    +0.000 C 
ATOM     56  O   UNL     1      -2.472   3.935 126.919  0.00  0.00    +0.000 OA
ATOM     57  H   UNL     1      -5.325   5.194 126.287  0.00  0.00    +0.000 HD
BRANCH  55  58
ATOM     58  C   UNL     1      -3.007   6.141 128.111  0.00  0.00    +0.000 A 
ATOM     59  C   UNL     1      -2.437   5.766 129.191  0.00  0.00    +0.000 A 
ATOM     60  C   UNL     1      -1.708   6.838 130.085  0.00  0.00    +0.000 A 
ATOM     61  C   UNL     1      -1.717   6.732 131.288  0.00  0.00    +0.000 A 
ATOM     62  C   UNL     1      -2.228   7.821 130.863  0.00  0.00    +0.000 A 
ATOM     63  C   UNL     1      -2.912   7.459 128.908  0.00  0.00    +0.000 A 
ATOM     64  C   UNL     1      -1.463   7.781 132.872  0.00  0.00    +0.000 C 
ATOM     65  O   UNL     1      -0.417   6.616 132.839  0.00  0.00    +0.000 OA
ATOM     66  C   UNL     1      -1.218   5.767 132.102  0.00  0.00    +0.000 C 
ATOM     67  O   UNL     1      -1.516   4.681 131.618  0.00  0.00    +0.000 OA
ATOM     68  C   UNL     1      -0.615   9.276 133.676  0.00  0.00    +0.000 A 
ATOM     69  C   UNL     1       0.738   9.787 133.726  0.00  0.00    +0.000 A 
ATOM     70  C   UNL     1       1.076  11.086 134.282  0.00  0.00    +0.000 A 
ATOM     71  C   UNL     1       0.095  11.841 134.910  0.00  0.00    +0.000 A 
ATOM     72  C   UNL     1      -1.168  11.298 135.069  0.00  0.00    +0.000 A 
ATOM     73  C   UNL     1      -1.491  10.045 134.512  0.00  0.00    +0.000 A 
ATOM     74  O   UNL     1      -2.791   9.632 134.692  0.00  0.00    +0.000 OA
ATOM     75  C   UNL     1      -2.879   8.364 135.168  0.00  0.00    +0.000 A 
ATOM     76  C   UNL     1      -4.193   7.878 135.545  0.00  0.00    +0.000 A 
ATOM     77  C   UNL     1      -4.463   6.674 136.191  0.00  0.00    +0.000 A 
ATOM     78  C   UNL     1      -3.371   6.019 136.698  0.00  0.00    +0.000 A 
ATOM     79  C   UNL     1      -2.044   6.474 136.189  0.00  0.00    +0.000 A 
ATOM     80  C   UNL     1      -1.865   7.499 134.852  0.00  0.00    +0.000 A 
BRANCH  77  81
ATOM     81  O   UNL     1      -5.723   6.158 136.335  0.00  0.00    +0.000 OA
ATOM     82  H   UNL     1      -5.762   5.206 136.551  0.00  0.00    +0.000 HD
ENDBRANCH  77  81
BRANCH  71  83
ATOM     83  O   UNL     1       0.271  13.100 135.405  0.00  0.00    +0.000 OA
ATOM     84  H   UNL     1       1.180  13.434 135.327  0.00  0.00    +0.000 HD
ENDBRANCH  71  83
ENDBRANCH  55  58
ENDBRANCH  53  54
ENDBRANCH  52  53
ENDBRANCH  51  52
ENDBRANCH  42  51
ENDBRANCH  40  42
ENDBRANCH  37  38
ENDBRANCH  14  31
BRANCH   5  85
ATOM     85  C   UNL     1      -7.694   4.908 133.032  0.00  0.00    +0.000 A 
ATOM     86  C   UNL     1      -7.986   4.329 131.808  0.00  0.00    +0.000 A 
ATOM     87  C   UNL     1      -9.271   4.524 131.388  0.00  0.00    +0.000 A 
ATOM     88  C   UNL     1     -10.165   5.224 132.198  0.00  0.00    +0.000 A 
ATOM     89  C   UNL     1      -9.762   5.863 133.351  0.00  0.00    +0.000 A 
ATOM     90  C   UNL     1      -8.516   5.673 133.818  0.00  0.00    +0.000 A 
BRANCH  88  91
ATOM     91  O   UNL     1     -11.486   5.336 131.934  0.00  0.00    +0.000 OA
ATOM     92  H   UNL     1     -11.762   4.774 131.198  0.00  0.00    +0.000 HD
ENDBRANCH  88  91
ENDBRANCH   5  85
BRANCH   1  93
ATOM     93  C   UNL     1      -7.266  -2.797 134.755  0.00  0.00    +0.000 C 
ATOM     94  C   UNL     1      -6.826  -4.861 134.523  0.00  0.00    +0.000 C 
BRANCH  93  96
ATOM     95  C   UNL     1      -8.758  -3.274 136.713  0.00  0.00    +0.000 C 
ATOM     96  C   UNL     1      -8.507  -4.201 135.659  0.00  0.00    +0.000 C 
ENDBRANCH  93  96
ENDBRANCH   1  93
BRANCH  22  97
ATOM     97  C   UNL     1      -4.239  -2.144 131.046  0.00  0.00    +0.000 C 
ATOM     98  C   UNL     1      -3.379  -1.298 131.834  0.00  0.00    +0.000 C 
BRANCH  97  99
ATOM     99  O   UNL     1      -2.855  -2.685 130.389  0.00  0.00    +0.000 OA
ATOM    100  H   UNL     1      -2.571  -2.149 129.508  0.00  0.00    +0.000 HD
ENDBRANCH  97  99
ENDBRANCH  22  97
BRANCH   9 101
ATOM    101  O   UNL     1      -5.079   3.799 132.225  0.00  0.00    +0.000 OA
ATOM    102  H   UNL     1      -4.309   4.156 132.674  0.00  0.00    +0.000 HD
ENDBRANCH   9 101
BRANCH  18 103
ATOM    103  C   UNL     1      -6.774  -0.271 128.698  0.00  0.00    +0.000 C 
BRANCH 103 104
ATOM    104  C   UNL     1      -7.963   1.060 129.103  0.00  0.00    +0.000 C 
ATOM    105  N   UNL     1      -8.242   1.908 127.279  0.00  0.00    +0.000 N 
ATOM    106  O   UNL     1      -8.638   1.311 130.070  0.00  0.00    +0.000 OA
ATOM    107  H   UNL     1      -7.449   1.648 126.558  0.00  0.00    +0.000 HD
ATOM    108  H   UNL     1      -8.759   2.703 127.202  0.00  0.00    +0.000 HD
ENDBRANCH 103 104
ENDBRANCH  18 103
TORSDOF 22
ENDMDL
MODEL 2
REMARK VINA RESULT:     -12.1      2.612      3.601
REMARK  Name = CHEMBL1790719
REMARK  25 active torsions:
REMARK  status: ('A' for Active; 'I' for Inactive)
REMARK    1  A    between atoms: C_1  and  C_2
REMARK    2  A    between atoms: C_2  and  C_3
REMARK    3  A    between atoms: C_3  and  C_4
REMARK    4  A    between atoms: C_3  and  C_5
REMARK    5  A    between atoms: C_9  and  C_10
REMARK    6  A    between atoms: C_13  and  O_14
REMARK    7  A    between atoms: C_20  and  O_21
REMARK    8  A    between atoms: C_26  and  C_27
REMARK    9  A    between atoms: C_33  and  C_34
REMARK   10  A    between atoms: N_36  and  C_37
REMARK   11  A    between atoms: C_37  and  C_38
REMARK   12  A    between atoms: C_37  and  C_69
REMARK   13  A    between atoms: C_38  and  C_39
REMARK   14  A    between atoms: C_39  and  C_40
REMARK   15  A    between atoms: C_40  and  N_41
REMARK   16  A    between atoms: C_42  and  C_44
REMARK   17  A    between atoms: C_57  and  O_58
REMARK   18  A    between atoms: C_64  and  O_65
REMARK   19  A    between atoms: N_71  and  C_72
REMARK   20  A    between atoms: C_72  and  N_73
REMARK   21  A    between atoms: C_77  and  C_78
REMARK   22  A    between atoms: C_78  and  C_79
REMARK   23  A    between atoms: C_85  and  C_86
REMARK   24  A    between atoms: C_86  and  C_87
REMARK   25  A    between atoms: C_86  and  O_88
REMARK                            x       y       z     vdW  Elec       q    Type
REMARK                         _______ _______ _______ _____ _____    ______ ____
ROOT
ATOM      1  C   UNL     1      -6.769  -1.374 136.538  0.00  0.00    +0.000 C 
ATOM      2  N   UNL     1      -5.560   0.467 136.564  0.00  0.00    +0.000 N 
ATOM      3  C   UNL     1      -4.551   2.362 136.555  0.00  0.00    +0.000 C 
ATOM      4  O   UNL     1      -3.104   2.962 136.672  0.00  0.00    +0.000 OA
ATOM      5  C   UNL     1      -4.346   4.314 135.647  0.00  0.00    +0.000 C 
ATOM      6  N   UNL     1      -3.855   4.776 134.013  0.00  0.00    +0.000 N 
ATOM      7  C   UNL     1      -3.333   3.768 133.250  0.00  0.00    +0.000 C 
ATOM      8  O   UNL     1      -3.127   3.834 132.047  0.00  0.00    +0.000 OA
ATOM      9  C   UNL     1      -3.106   2.423 133.859  0.00  0.00    +0.000 C 
ATOM     10  C   UNL     1      -4.041   1.334 133.559  0.00  0.00    +0.000 C 
ATOM     11  S   UNL     1      -3.354   1.189 132.032  0.00  0.00    +0.000 S 
ATOM     12  S   UNL     1      -4.146  -0.592 132.011  0.00  0.00    +0.000 S 
ATOM     13  C   UNL     1      -4.305  -1.417 129.426  0.00  0.00    +0.000 C 
ATOM     14  C   UNL     1      -5.325  -2.311 128.956  0.00  0.00    +0.000 C 
ATOM     15  N   UNL     1      -5.252  -3.422 129.863  0.00  0.00    +0.000 N 
ATOM     16  C   UNL     1      -5.986  -3.395 131.136  0.00  0.00    +0.000 C 
ATOM     17  O   UNL     1      -6.142  -4.459 131.803  0.00  0.00    +0.000 OA
ATOM     18  C   UNL     1      -6.142  -2.016 131.862  0.00  0.00    +0.000 C 
ATOM     19  N   UNL     1      -7.313  -2.223 132.554  0.00  0.00    +0.000 N 
ATOM     20  C   UNL     1      -7.432  -3.156 133.542  0.00  0.00    +0.000 C 
ATOM     21  O   UNL     1      -8.564  -3.357 133.971  0.00  0.00    +0.000 OA
ATOM     22  C   UNL     1      -6.165  -3.924 134.114  0.00  0.00    +0.000 C 
ATOM     23  N   UNL     1      -5.926  -3.790 135.607  0.00  0.00    +0.000 N 
ATOM     24  C   UNL     1      -6.467  -3.159 136.697  0.00  0.00    +0.000 C 
ATOM     25  O   UNL     1      -6.633  -3.811 137.749  0.00  0.00    +0.000 OA
ATOM     26  H   UNL     1      -4.723   1.477 137.136  0.00  0.00    +0.000 HD
ATOM     27  H   UNL     1      -4.034   5.679 133.426  0.00  0.00    +0.000 HD
ATOM     28  H   UNL     1      -4.704  -4.197 129.482  0.00  0.00    +0.000 HD
ATOM     29  H   UNL     1      -8.064  -1.697 132.163  0.00  0.00    +0.000 HD
ATOM     30  H   UNL     1      -5.068  -3.314 135.760  0.00  0.00    +0.000 HD
ENDROOT
BRANCH  14  31
ATOM     31  C   UNL     1      -6.887  -1.635 128.723  0.00  0.00    +0.000 C 
ATOM     32  O   UNL     1      -7.815  -1.345 129.507  0.00  0.00    +0.000 OA
ATOM     33  N   UNL     1      -7.240  -1.568 127.471  0.00  0.00    +0.000 N 
ATOM     34  C   UNL     1      -6.892  -2.388 126.370  0.00  0.00    +0.000 C 
ATOM     35  C   UNL     1      -6.797  -1.321 125.323  0.00  0.00    +0.000 C 
ATOM     36  C   UNL     1      -7.971  -0.389 125.660  0.00  0.00    +0.000 C 
ATOM     37  C   UNL     1      -8.088  -0.469 127.163  0.00  0.00    +0.000 C 
BRANCH  37  38
ATOM     38  C   UNL     1      -7.659   0.861 127.780  0.00  0.00    +0.000 C 
ATOM     39  O   UNL     1      -8.492   1.344 128.553  0.00  0.00    +0.000 OA
ATOM     40  N   UNL     1      -6.481   1.498 127.380  0.00  0.00    +0.000 N 
ATOM     41  H   UNL     1      -5.901   1.128 126.632  0.00  0.00    +0.000 HD
BRANCH  40  42
ATOM     42  C   UNL     1      -5.970   2.751 128.014  0.00  0.00    +0.000 C 
BRANCH  42  43
ATOM     43  C   UNL     1      -7.132   3.764 128.318  0.00  0.00    +0.000 C 
ATOM     44  O   UNL     1      -7.622   4.399 127.376  0.00  0.00    +0.000 OA
ATOM     45  N   UNL     1      -7.601   3.891 129.635  0.00  0.00    +0.000 N 
ATOM     46  H   UNL     1      -7.187   3.377 130.404  0.00  0.00    +0.000 HD
BRANCH  45  47
ATOM     47  C   UNL     1      -8.660   4.829 129.957  0.00  0.00    +0.000 C 
BRANCH  47  48
ATOM     48  N   UNL     1      -9.950   4.290 129.567  0.00  0.00    +0.000 NA
ATOM     49  H   UNL     1     -10.496   4.989 129.072  0.00  0.00    +0.000 HD
ATOM     50  H   UNL     1     -10.490   4.058 130.414  0.00  0.00    +0.000 HD
ENDBRANCH  47  48
ENDBRANCH  45  47
ENDBRANCH  42  43
BRANCH  42  51
ATOM     51  C   UNL     1      -4.945   3.417 127.108  0.00  0.00    +0.000 C 
BRANCH  51  52
ATOM     52  C   UNL     1      -3.588   2.757 127.193  0.00  0.00    +0.000 C 
BRANCH  52  53
ATOM     53  C   UNL     1      -2.515   3.582 127.822  0.00  0.00    +0.000 C 
BRANCH  53  54
ATOM     54  N   UNL     1      -3.004   4.360 129.013  0.00  0.00    +0.000 N 
ATOM     55  C   UNL     1      -2.822   5.766 129.134  0.00  0.00    +0.000 C 
ATOM     56  O   UNL     1      -2.203   6.302 128.190  0.00  0.00    +0.000 OA
ATOM     57  H   UNL     1      -3.471   3.818 129.720  0.00  0.00    +0.000 HD
BRANCH  55  58
ATOM     58  C   UNL     1      -3.177   6.799 130.509  0.00  0.00    +0.000 A 
ATOM     59  C   UNL     1      -2.173   7.004 131.272  0.00  0.00    +0.000 A 
ATOM     60  C   UNL     1      -2.212   8.210 132.284  0.00  0.00    +0.000 A 
ATOM     61  C   UNL     1      -1.687   8.111 133.367  0.00  0.00    +0.000 A 
ATOM     62  C   UNL     1      -2.935   8.367 133.423  0.00  0.00    +0.000 A 
ATOM     63  C   UNL     1      -3.791   7.648 131.642  0.00  0.00    +0.000 A 
ATOM     64  C   UNL     1      -1.717   8.907 135.109  0.00  0.00    +0.000 C 
ATOM     65  O   UNL     1      -0.284   9.043 134.494  0.00  0.00    +0.000 OA
ATOM     66  C   UNL     1      -0.389   7.911 133.713  0.00  0.00    +0.000 C 
ATOM     67  O   UNL     1       0.059   7.031 132.985  0.00  0.00    +0.000 OA
ATOM     68  C   UNL     1      -2.034  10.465 136.146  0.00  0.00    +0.000 A 
ATOM     69  C   UNL     1      -1.629  11.851 136.070  0.00  0.00    +0.000 A 
ATOM     70  C   UNL     1      -2.183  12.889 136.922  0.00  0.00    +0.000 A 
ATOM     71  C   UNL     1      -3.053  12.544 137.946  0.00  0.00    +0.000 A 
ATOM     72  C   UNL     1      -3.307  11.205 138.188  0.00  0.00    +0.000 A 
ATOM     73  C   UNL     1      -2.778  10.207 137.346  0.00  0.00    +0.000 A 
ATOM     74  O   UNL     1      -3.140   8.916 137.654  0.00  0.00    +0.000 OA
ATOM     75  C   UNL     1      -2.078   8.073 137.715  0.00  0.00    +0.000 A 
ATOM     76  C   UNL     1      -2.320   6.722 138.187  0.00  0.00    +0.000 A 
ATOM     77  C   UNL     1      -1.343   5.768 138.463  0.00  0.00    +0.000 A 
ATOM     78  C   UNL     1      -0.055   6.235 138.498  0.00  0.00    +0.000 A 
ATOM     79  C   UNL     1       0.167   7.580 137.892  0.00  0.00    +0.000 A 
ATOM     80  C   UNL     1      -0.990   8.371 136.939  0.00  0.00    +0.000 A 
BRANCH  77  81
ATOM     81  O   UNL     1      -1.620   4.448 138.698  0.00  0.00    +0.000 OA
ATOM     82  H   UNL     1      -2.480   4.272 139.127  0.00  0.00    +0.000 HD
ENDBRANCH  77  81
BRANCH  71  83
ATOM     83  O   UNL     1      -3.693  13.431 138.764  0.00  0.00    +0.000 OA
ATOM     84  H   UNL     1      -3.294  14.316 138.780  0.00  0.00    +0.000 HD
ENDBRANCH  71  83
ENDBRANCH  55  58
ENDBRANCH  53  54
ENDBRANCH  52  53
ENDBRANCH  51  52
ENDBRANCH  42  51
ENDBRANCH  40  42
ENDBRANCH  37  38
ENDBRANCH  14  31
BRANCH   5  85
ATOM     85  C   UNL     1      -5.739   4.170 135.622  0.00  0.00    +0.000 A 
ATOM     86  C   UNL     1      -6.062   3.941 134.295  0.00  0.00    +0.000 A 
ATOM     87  C   UNL     1      -7.134   4.658 133.846  0.00  0.00    +0.000 A 
ATOM     88  C   UNL     1      -7.818   5.500 134.723  0.00  0.00    +0.000 A 
ATOM     89  C   UNL     1      -7.363   5.755 135.998  0.00  0.00    +0.000 A 
ATOM     90  C   UNL     1      -6.331   5.049 136.492  0.00  0.00    +0.000 A 
BRANCH  88  91
ATOM     91  O   UNL     1      -8.973   6.130 134.409  0.00  0.00    +0.000 OA
ATOM     92  H   UNL     1      -9.704   5.512 134.276  0.00  0.00    +0.000 HD
ENDBRANCH  88  91
ENDBRANCH   5  85
BRANCH   1  93
ATOM     93  C   UNL     1      -8.281  -3.240 136.696  0.00  0.00    +0.000 C 
ATOM     94  C   UNL     1      -8.622  -5.278 136.208  0.00  0.00    +0.000 C 
BRANCH  93  96
ATOM     95  C   UNL     1     -10.397  -2.944 138.008  0.00  0.00    +0.000 C 
ATOM     96  C   UNL     1      -9.991  -4.178 137.421  0.00  0.00    +0.000 C 
ENDBRANCH  93  96
ENDBRANCH   1  93
BRANCH  22  97
ATOM     97  C   UNL     1      -4.743  -3.561 133.420  0.00  0.00    +0.000 C 
ATOM     98  C   UNL     1      -3.752  -3.129 134.374  0.00  0.00    +0.000 C 
BRANCH  97  99
ATOM     99  O   UNL     1      -3.568  -4.535 132.864  0.00  0.00    +0.000 OA
ATOM    100  H   UNL     1      -2.748  -4.634 133.544  0.00  0.00    +0.000 HD
ENDBRANCH  97  99
ENDBRANCH  22  97
BRANCH   9 101
ATOM    101  O   UNL     1      -3.595   2.231 135.018  0.00  0.00    +0.000 OA
ATOM    102  H   UNL     1      -3.068   2.817 135.565  0.00  0.00    +0.000 HD
ENDBRANCH   9 101
BRANCH  18 103
ATOM    103  C   UNL     1      -6.116  -0.805 130.979  0.00  0.00    +0.000 C 
BRANCH 103 104
ATOM    104  C   UNL     1      -6.954   0.793 131.286  0.00  0.00    +0.000 C 
ATOM    105  N   UNL     1      -8.866   0.183 131.598  0.00  0.00    +0.000 N 
ATOM    106  O   UNL     1      -6.563   1.912 131.503  0.00  0.00    +0.000 OA
ATOM    107  H   UNL     1      -9.059  -0.836 131.221  0.00  0.00    +0.000 HD
ATOM    108  H   UNL     1      -9.557   0.828 131.696  0.00  0.00    +0.000 HD
ENDBRANCH 103 104
ENDBRANCH  18 103
TORSDOF 22
ENDMDL
MODEL 3
REMARK VINA RESULT:     -10.7      2.803      8.878
REMARK  Name = CHEMBL1790719
REMARK  25 active torsions:
REMARK  status: ('A' for Active; 'I' for Inactive)
REMARK    1  A    between atoms: C_1  and  C_2
REMARK    2  A    between atoms: C_2  and  C_3
REMARK    3  A    between atoms: C_3  and  C_4
REMARK    4  A    between atoms: C_3  and  C_5
REMARK    5  A    between atoms: C_9  and  C_10
REMARK    6  A    between atoms: C_13  and  O_14
REMARK    7  A    between atoms: C_20  and  O_21
REMARK    8  A    between atoms: C_26  and  C_27
REMARK    9  A    between atoms: C_33  and  C_34
REMARK   10  A    between atoms: N_36  and  C_37
REMARK   11  A    between atoms: C_37  and  C_38
REMARK   12  A    between atoms: C_37  and  C_69
REMARK   13  A    between atoms: C_38  and  C_39
REMARK   14  A    between atoms: C_39  and  C_40
REMARK   15  A    between atoms: C_40  and  N_41
REMARK   16  A    between atoms: C_42  and  C_44
REMARK   17  A    between atoms: C_57  and  O_58
REMARK   18  A    between atoms: C_64  and  O_65
REMARK   19  A    between atoms: N_71  and  C_72
REMARK   20  A    between atoms: C_72  and  N_73
REMARK   21  A    between atoms: C_77  and  C_78
REMARK   22  A    between atoms: C_78  and  C_79
REMARK   23  A    between atoms: C_85  and  C_86
REMARK   24  A    between atoms: C_86  and  C_87
REMARK   25  A    between atoms: C_86  and  O_88
REMARK                            x       y       z     vdW  Elec       q    Type
REMARK                         _______ _______ _______ _____ _____    ______ ____
ROOT
ATOM      1  C   UNL     1      -6.636  -2.071 126.292  0.00  0.00    +0.000 C 
ATOM      2  N   UNL     1      -5.146  -2.791 127.745  0.00  0.00    +0.000 N 
ATOM      3  C   UNL     1      -3.846  -3.566 129.268  0.00  0.00    +0.000 C 
ATOM      4  O   UNL     1      -2.323  -3.607 129.652  0.00  0.00    +0.000 OA
ATOM      5  C   UNL     1      -3.493  -3.875 131.379  0.00  0.00    +0.000 C 
ATOM      6  N   UNL     1      -3.268  -2.710 132.690  0.00  0.00    +0.000 N 
ATOM      7  C   UNL     1      -3.093  -1.412 132.298  0.00  0.00    +0.000 C 
ATOM      8  O   UNL     1      -3.126  -0.444 133.043  0.00  0.00    +0.000 OA
ATOM      9  C   UNL     1      -2.986  -1.088 130.843  0.00  0.00    +0.000 C 
ATOM     10  C   UNL     1      -4.135  -0.496 130.154  0.00  0.00    +0.000 C 
ATOM     11  S   UNL     1      -3.805   0.972 130.903  0.00  0.00    +0.000 S 
ATOM     12  S   UNL     1      -4.882   1.765 129.484  0.00  0.00    +0.000 S 
ATOM     13  C   UNL     1      -5.699   4.221 130.315  0.00  0.00    +0.000 C 
ATOM     14  C   UNL     1      -6.932   4.817 129.885  0.00  0.00    +0.000 C 
ATOM     15  N   UNL     1      -6.872   4.735 128.453  0.00  0.00    +0.000 N 
ATOM     16  C   UNL     1      -7.319   3.521 127.756  0.00  0.00    +0.000 C 
ATOM     17  O   UNL     1      -7.520   3.542 126.506  0.00  0.00    +0.000 OA
ATOM     18  C   UNL     1      -7.084   2.143 128.463  0.00  0.00    +0.000 C 
ATOM     19  N   UNL     1      -8.109   1.402 127.923  0.00  0.00    +0.000 N 
ATOM     20  C   UNL     1      -8.187   1.106 126.593  0.00  0.00    +0.000 C 
ATOM     21  O   UNL     1      -9.227   0.579 126.209  0.00  0.00    +0.000 OA
ATOM     22  C   UNL     1      -6.984   1.415 125.604  0.00  0.00    +0.000 C 
ATOM     23  N   UNL     1      -6.430   0.225 124.842  0.00  0.00    +0.000 N 
ATOM     24  C   UNL     1      -6.622  -1.129 124.737  0.00  0.00    +0.000 C 
ATOM     25  O   UNL     1      -6.684  -1.642 123.602  0.00  0.00    +0.000 OA
ATOM     26  H   UNL     1      -4.049  -3.580 128.215  0.00  0.00    +0.000 HD
ATOM     27  H   UNL     1      -3.402  -2.794 133.770  0.00  0.00    +0.000 HD
ATOM     28  H   UNL     1      -6.554   5.610 128.029  0.00  0.00    +0.000 HD
ATOM     29  H   UNL     1      -8.821   1.221 128.597  0.00  0.00    +0.000 HD
ATOM     30  H   UNL     1      -5.489   0.067 125.119  0.00  0.00    +0.000 HD
ENDROOT
BRANCH  14  31
ATOM     31  C   UNL     1      -8.368   4.214 130.611  0.00  0.00    +0.000 C 
ATOM     32  O   UNL     1      -8.774   3.060 130.864  0.00  0.00    +0.000 OA
ATOM     33  N   UNL     1      -9.285   5.124 130.777  0.00  0.00    +0.000 N 
ATOM     34  C   UNL     1      -9.567   6.294 130.031  0.00  0.00    +0.000 C 
ATOM     35  C   UNL     1      -9.939   7.195 131.168  0.00  0.00    +0.000 C 
ATOM     36  C   UNL     1     -10.744   6.275 132.100  0.00  0.00    +0.000 C 
ATOM     37  C   UNL     1     -10.113   4.916 131.914  0.00  0.00    +0.000 C 
BRANCH  37  38
ATOM     38  C   UNL     1      -9.363   4.523 133.186  0.00  0.00    +0.000 C 
ATOM     39  O   UNL     1      -9.728   3.446 133.666  0.00  0.00    +0.000 OA
ATOM     40  N   UNL     1      -8.447   5.393 133.785  0.00  0.00    +0.000 N 
ATOM     41  H   UNL     1      -8.290   6.330 133.428  0.00  0.00    +0.000 HD
BRANCH  40  42
ATOM     42  C   UNL     1      -7.622   5.023 134.975  0.00  0.00    +0.000 C 
BRANCH  42  43
ATOM     43  C   UNL     1      -7.820   6.040 136.157  0.00  0.00    +0.000 C 
ATOM     44  O   UNL     1      -7.138   5.895 137.178  0.00  0.00    +0.000 OA
ATOM     45  N   UNL     1      -8.732   7.096 136.005  0.00  0.00    +0.000 N 
ATOM     46  H   UNL     1      -9.296   7.201 135.170  0.00  0.00    +0.000 HD
BRANCH  45  47
ATOM     47  C   UNL     1      -8.955   8.043 137.081  0.00  0.00    +0.000 C 
BRANCH  47  48
ATOM     48  N   UNL     1     -10.076   8.910 136.769  0.00  0.00    +0.000 NA
ATOM     49  H   UNL     1      -9.976   9.807 137.235  0.00  0.00    +0.000 HD
ATOM     50  H   UNL     1     -10.941   8.493 137.142  0.00  0.00    +0.000 HD
ENDBRANCH  47  48
ENDBRANCH  45  47
ENDBRANCH  42  43
BRANCH  42  51
ATOM     51  C   UNL     1      -6.150   4.969 134.596  0.00  0.00    +0.000 C 
BRANCH  51  52
ATOM     52  C   UNL     1      -5.511   3.648 134.956  0.00  0.00    +0.000 C 
BRANCH  52  53
ATOM     53  C   UNL     1      -4.650   3.666 136.175  0.00  0.00    +0.000 C 
BRANCH  53  54
ATOM     54  N   UNL     1      -3.574   4.715 136.109  0.00  0.00    +0.000 N 
ATOM     55  C   UNL     1      -3.173   5.472 137.246  0.00  0.00    +0.000 C 
ATOM     56  O   UNL     1      -3.801   5.218 138.297  0.00  0.00    +0.000 OA
ATOM     57  H   UNL     1      -3.153   4.845 135.205  0.00  0.00    +0.000 HD
BRANCH  55  58
ATOM     58  C   UNL     1      -2.065   6.831 137.318  0.00  0.00    +0.000 A 
ATOM     59  C   UNL     1      -2.631   7.966 137.162  0.00  0.00    +0.000 A 
ATOM     60  C   UNL     1      -1.869   9.271 137.605  0.00  0.00    +0.000 A 
ATOM     61  C   UNL     1      -2.000  10.294 136.977  0.00  0.00    +0.000 A 
ATOM     62  C   UNL     1      -0.795   9.884 137.045  0.00  0.00    +0.000 A 
ATOM     63  C   UNL     1      -0.867   7.804 137.346  0.00  0.00    +0.000 A 
ATOM     64  C   UNL     1      -1.131  11.975 136.681  0.00  0.00    +0.000 C 
ATOM     65  O   UNL     1      -2.564  12.219 137.263  0.00  0.00    +0.000 OA
ATOM     66  C   UNL     1      -3.097  11.059 136.740  0.00  0.00    +0.000 C 
ATOM     67  O   UNL     1      -4.020  10.307 136.449  0.00  0.00    +0.000 OA
ATOM     68  C   UNL     1      -0.002  13.332 137.378  0.00  0.00    +0.000 A 
ATOM     69  C   UNL     1       0.057  14.089 138.609  0.00  0.00    +0.000 A 
ATOM     70  C   UNL     1       1.167  14.961 138.954  0.00  0.00    +0.000 A 
ATOM     71  C   UNL     1       2.173  15.191 138.026  0.00  0.00    +0.000 A 
ATOM     72  C   UNL     1       2.050  14.651 136.757  0.00  0.00    +0.000 A 
ATOM     73  C   UNL     1       0.979  13.794 136.438  0.00  0.00    +0.000 A 
ATOM     74  O   UNL     1       0.990  13.278 135.162  0.00  0.00    +0.000 OA
ATOM     75  C   UNL     1      -0.199  13.425 134.525  0.00  0.00    +0.000 A 
ATOM     76  C   UNL     1      -0.258  13.062 133.121  0.00  0.00    +0.000 A 
ATOM     77  C   UNL     1      -1.335  13.284 132.266  0.00  0.00    +0.000 A 
ATOM     78  C   UNL     1      -2.314  14.110 132.753  0.00  0.00    +0.000 A 
ATOM     79  C   UNL     1      -2.285  14.359 134.224  0.00  0.00    +0.000 A 
ATOM     80  C   UNL     1      -1.329  13.463 135.298  0.00  0.00    +0.000 A 
BRANCH  77  81
ATOM     81  O   UNL     1      -1.433  12.738 131.015  0.00  0.00    +0.000 OA
ATOM     82  H   UNL     1      -1.720  11.804 130.988  0.00  0.00    +0.000 HD
ENDBRANCH  77  81
BRANCH  71  83
ATOM     83  O   UNL     1       3.299  15.928 138.255  0.00  0.00    +0.000 OA
ATOM     84  H   UNL     1       3.267  16.826 137.888  0.00  0.00    +0.000 HD
ENDBRANCH  71  83
ENDBRANCH  55  58
ENDBRANCH  53  54
ENDBRANCH  52  53
ENDBRANCH  51  52
ENDBRANCH  42  51
ENDBRANCH  40  42
ENDBRANCH  37  38
ENDBRANCH  14  31
BRANCH   5  85
ATOM     85  C   UNL     1      -4.866  -4.144 131.312  0.00  0.00    +0.000 A 
ATOM     86  C   UNL     1      -5.482  -2.905 131.284  0.00  0.00    +0.000 A 
ATOM     87  C   UNL     1      -6.565  -2.798 132.110  0.00  0.00    +0.000 A 
ATOM     88  C   UNL     1      -6.975  -3.901 132.858  0.00  0.00    +0.000 A 
ATOM     89  C   UNL     1      -6.239  -5.065 132.911  0.00  0.00    +0.000 A 
ATOM     90  C   UNL     1      -5.185  -5.225 132.092  0.00  0.00    +0.000 A 
BRANCH  88  91
ATOM     91  O   UNL     1      -8.116  -3.933 133.583  0.00  0.00    +0.000 OA
ATOM     92  H   UNL     1      -7.964  -3.734 134.516  0.00  0.00    +0.000 HD
ENDBRANCH  88  91
ENDBRANCH   5  85
BRANCH   1  93
ATOM     93  C   UNL     1      -8.386  -1.563 124.719  0.00  0.00    +0.000 C 
ATOM     94  C   UNL     1      -9.420  -0.036 123.667  0.00  0.00    +0.000 C 
BRANCH  93  96
ATOM     95  C   UNL     1      -9.604  -3.472 123.644  0.00  0.00    +0.000 C 
ATOM     96  C   UNL     1      -9.832  -2.102 123.324  0.00  0.00    +0.000 C 
ENDBRANCH  93  96
ENDBRANCH   1  93
BRANCH  22  97
ATOM     97  C   UNL     1      -5.690   2.137 126.265  0.00  0.00    +0.000 C 
ATOM     98  C   UNL     1      -4.495   1.337 126.168  0.00  0.00    +0.000 C 
BRANCH  97  99
ATOM     99  O   UNL     1      -4.753   3.337 125.697  0.00  0.00    +0.000 OA
ATOM    100  H   UNL     1      -4.242   3.872 126.469  0.00  0.00    +0.000 HD
ENDBRANCH  97  99
ENDBRANCH  22  97
BRANCH   9 101
ATOM    101  O   UNL     1      -3.257  -2.027 130.028  0.00  0.00    +0.000 OA
ATOM    102  H   UNL     1      -4.109  -1.757 129.676  0.00  0.00    +0.000 HD
ENDBRANCH   9 101
BRANCH  18 103
ATOM    103  C   UNL     1      -7.026   2.177 129.960  0.00  0.00    +0.000 C 
BRANCH 103 104
ATOM    104  C   UNL     1      -7.534   0.844 131.106  0.00  0.00    +0.000 C 
ATOM    105  N   UNL     1      -7.152   1.703 132.906  0.00  0.00    +0.000 N 
ATOM    106  O   UNL     1      -8.149  -0.184 130.971  0.00  0.00    +0.000 OA
ATOM    107  H   UNL     1      -6.470   2.567 132.835  0.00  0.00    +0.000 HD
ATOM    108  H   UNL     1      -7.241   1.190 133.702  0.00  0.00    +0.000 HD
ENDBRANCH 103 104
ENDBRANCH  18 103
TORSDOF 22
ENDMDL
MODEL 4
REMARK VINA RESULT:     -10.6      4.302     13.555
REMARK  Name = CHEMBL1790719
REMARK  25 active torsions:
REMARK  status: ('A' for Active; 'I' for Inactive)
REMARK    1  A    between atoms: C_1  and  C_2
REMARK    2  A    between atoms: C_2  and  C_3
REMARK    3  A    between atoms: C_3  and  C_4
REMARK    4  A    between atoms: C_3  and  C_5
REMARK    5  A    between atoms: C_9  and  C_10
REMARK    6  A    between atoms: C_13  and  O_14
REMARK    7  A    between atoms: C_20  and  O_21
REMARK    8  A    between atoms: C_26  and  C_27
REMARK    9  A    between atoms: C_33  and  C_34
REMARK   10  A    between atoms: N_36  and  C_37
REMARK   11  A    between atoms: C_37  and  C_38
REMARK   12  A    between atoms: C_37  and  C_69
REMARK   13  A    between atoms: C_38  and  C_39
REMARK   14  A    between atoms: C_39  and  C_40
REMARK   15  A    between atoms: C_40  and  N_41
REMARK   16  A    between atoms: C_42  and  C_44
REMARK   17  A    between atoms: C_57  and  O_58
REMARK   18  A    between atoms: C_64  and  O_65
REMARK   19  A    between atoms: N_71  and  C_72
REMARK   20  A    between atoms: C_72  and  N_73
REMARK   21  A    between atoms: C_77  and  C_78
REMARK   22  A    between atoms: C_78  and  C_79
REMARK   23  A    between atoms: C_85  and  C_86
REMARK   24  A    between atoms: C_86  and  C_87
REMARK   25  A    between atoms: C_86  and  O_88
REMARK                            x       y       z     vdW  Elec       q    Type
REMARK                         _______ _______ _______ _____ _____    ______ ____
ROOT
ATOM      1  C   UNL     1      -2.277  11.339 133.144  0.00  0.00    +0.000 C 
ATOM      2  N   UNL     1      -2.476   9.341 132.239  0.00  0.00    +0.000 N 
ATOM      3  C   UNL     1      -2.869   7.414 131.378  0.00  0.00    +0.000 C 
ATOM      4  O   UNL     1      -2.104   6.163 130.816  0.00  0.00    +0.000 OA
ATOM      5  C   UNL     1      -4.026   5.588 131.447  0.00  0.00    +0.000 C 
ATOM      6  N   UNL     1      -4.123   4.334 132.689  0.00  0.00    +0.000 N 
ATOM      7  C   UNL     1      -3.183   4.415 133.678  0.00  0.00    +0.000 C 
ATOM      8  O   UNL     1      -3.204   3.776 134.721  0.00  0.00    +0.000 OA
ATOM      9  C   UNL     1      -2.101   5.442 133.588  0.00  0.00    +0.000 C 
ATOM     10  C   UNL     1      -2.187   6.647 134.418  0.00  0.00    +0.000 C 
ATOM     11  S   UNL     1      -1.742   5.734 135.758  0.00  0.00    +0.000 S 
ATOM     12  S   UNL     1      -1.256   7.439 136.568  0.00  0.00    +0.000 S 
ATOM     13  C   UNL     1      -1.171   7.100 139.264  0.00  0.00    +0.000 C 
ATOM     14  C   UNL     1      -1.463   8.156 140.190  0.00  0.00    +0.000 C 
ATOM     15  N   UNL     1      -0.612   9.232 139.765  0.00  0.00    +0.000 N 
ATOM     16  C   UNL     1      -1.050  10.156 138.709  0.00  0.00    +0.000 C 
ATOM     17  O   UNL     1      -0.433  11.246 138.522  0.00  0.00    +0.000 OA
ATOM     18  C   UNL     1      -1.940   9.581 137.556  0.00  0.00    +0.000 C 
ATOM     19  N   UNL     1      -2.639  10.708 137.189  0.00  0.00    +0.000 N 
ATOM     20  C   UNL     1      -2.038  11.809 136.653  0.00  0.00    +0.000 C 
ATOM     21  O   UNL     1      -2.741  12.805 136.517  0.00  0.00    +0.000 OA
ATOM     22  C   UNL     1      -0.511  11.789 136.214  0.00  0.00    +0.000 C 
ATOM     23  N   UNL     1      -0.235  12.131 134.762  0.00  0.00    +0.000 N 
ATOM     24  C   UNL     1      -0.917  12.450 133.616  0.00  0.00    +0.000 C 
ATOM     25  O   UNL     1      -0.520  13.410 132.925  0.00  0.00    +0.000 OA
ATOM     26  H   UNL     1      -2.386   8.356 131.206  0.00  0.00    +0.000 HD
ATOM     27  H   UNL     1      -4.890   3.592 132.917  0.00  0.00    +0.000 HD
ATOM     28  H   UNL     1       0.249   9.284 140.314  0.00  0.00    +0.000 HD
ATOM     29  H   UNL     1      -3.594  10.651 137.470  0.00  0.00    +0.000 HD
ATOM     30  H   UNL     1       0.155  11.339 134.307  0.00  0.00    +0.000 HD
ENDROOT
BRANCH  14  31
ATOM     31  C   UNL     1      -3.122   8.552 140.402  0.00  0.00    +0.000 C 
ATOM     32  O   UNL     1      -3.988   9.026 139.636  0.00  0.00    +0.000 OA
ATOM     33  N   UNL     1      -3.510   8.510 141.645  0.00  0.00    +0.000 N 
ATOM     34  C   UNL     1      -2.793   8.750 142.842  0.00  0.00    +0.000 C 
ATOM     35  C   UNL     1      -3.428   7.695 143.694  0.00  0.00    +0.000 C 
ATOM     36  C   UNL     1      -4.907   7.748 143.279  0.00  0.00    +0.000 C 
ATOM     37  C   UNL     1      -4.868   8.129 141.818  0.00  0.00    +0.000 C 
BRANCH  37  38
ATOM     38  C   UNL     1      -5.311   6.939 140.968  0.00  0.00    +0.000 C 
ATOM     39  O   UNL     1      -6.265   7.186 140.224  0.00  0.00    +0.000 OA
ATOM     40  N   UNL     1      -4.744   5.674 141.143  0.00  0.00    +0.000 N 
ATOM     41  H   UNL     1      -4.061   5.491 141.872  0.00  0.00    +0.000 HD
BRANCH  40  42
ATOM     42  C   UNL     1      -5.075   4.500 140.279  0.00  0.00    +0.000 C 
BRANCH  42  43
ATOM     43  C   UNL     1      -6.332   3.722 140.813  0.00  0.00    +0.000 C 
ATOM     44  O   UNL     1      -6.260   2.493 140.925  0.00  0.00    +0.000 OA
ATOM     45  N   UNL     1      -7.479   4.445 141.178  0.00  0.00    +0.000 N 
ATOM     46  H   UNL     1      -7.535   5.452 141.073  0.00  0.00    +0.000 HD
BRANCH  45  47
ATOM     47  C   UNL     1      -8.665   3.760 141.658  0.00  0.00    +0.000 C 
BRANCH  47  48
ATOM     48  N   UNL     1      -8.423   3.188 142.970  0.00  0.00    +0.000 NA
ATOM     49  H   UNL     1      -8.978   2.347 143.102  0.00  0.00    +0.000 HD
ATOM     50  H   UNL     1      -8.740   3.851 143.692  0.00  0.00    +0.000 HD
ENDBRANCH  47  48
ENDBRANCH  45  47
ENDBRANCH  42  43
BRANCH  42  51
ATOM     51  C   UNL     1      -3.888   3.551 140.206  0.00  0.00    +0.000 C 
BRANCH  51  52
ATOM     52  C   UNL     1      -3.452   3.284 138.784  0.00  0.00    +0.000 C 
BRANCH  52  53
ATOM     53  C   UNL     1      -4.137   2.143 138.109  0.00  0.00    +0.000 C 
BRANCH  53  54
ATOM     54  N   UNL     1      -4.865   2.559 136.861  0.00  0.00    +0.000 N 
ATOM     55  C   UNL     1      -5.480   1.620 135.985  0.00  0.00    +0.000 C 
ATOM     56  O   UNL     1      -5.348   0.423 136.319  0.00  0.00    +0.000 OA
ATOM     57  H   UNL     1      -4.890   3.549 136.685  0.00  0.00    +0.000 HD
BRANCH  55  58
ATOM     58  C   UNL     1      -6.222   1.909 134.421  0.00  0.00    +0.000 A 
ATOM     59  C   UNL     1      -5.534   1.472 133.436  0.00  0.00    +0.000 A 
ATOM     60  C   UNL     1      -6.232   1.279 132.038  0.00  0.00    +0.000 A 
ATOM     61  C   UNL     1      -5.618   1.488 131.019  0.00  0.00    +0.000 A 
ATOM     62  C   UNL     1      -6.664   2.207 131.146  0.00  0.00    +0.000 A 
ATOM     63  C   UNL     1      -7.057   2.364 133.206  0.00  0.00    +0.000 A 
ATOM     64  C   UNL     1      -5.908   1.865 129.163  0.00  0.00    +0.000 C 
ATOM     65  O   UNL     1      -5.095   0.535 129.309  0.00  0.00    +0.000 OA
ATOM     66  C   UNL     1      -4.512   0.891 130.508  0.00  0.00    +0.000 C 
ATOM     67  O   UNL     1      -3.706   0.754 131.422  0.00  0.00    +0.000 OA
ATOM     68  C   UNL     1      -7.041   1.670 127.654  0.00  0.00    +0.000 A 
ATOM     69  C   UNL     1      -7.729   0.566 127.020  0.00  0.00    +0.000 A 
ATOM     70  C   UNL     1      -8.699   0.742 125.952  0.00  0.00    +0.000 A 
ATOM     71  C   UNL     1      -8.905   2.004 125.413  0.00  0.00    +0.000 A 
ATOM     72  C   UNL     1      -8.116   3.056 125.848  0.00  0.00    +0.000 A 
ATOM     73  C   UNL     1      -7.191   2.878 126.895  0.00  0.00    +0.000 A 
ATOM     74  O   UNL     1      -6.500   4.007 127.275  0.00  0.00    +0.000 OA
ATOM     75  C   UNL     1      -5.160   3.803 127.347  0.00  0.00    +0.000 A 
ATOM     76  C   UNL     1      -4.318   4.961 127.583  0.00  0.00    +0.000 A 
ATOM     77  C   UNL     1      -2.926   4.980 127.536  0.00  0.00    +0.000 A 
ATOM     78  C   UNL     1      -2.339   3.862 127.005  0.00  0.00    +0.000 A 
ATOM     79  C   UNL     1      -3.213   2.658 126.892  0.00  0.00    +0.000 A 
ATOM     80  C   UNL     1      -4.728   2.538 127.640  0.00  0.00    +0.000 A 
BRANCH  77  81
ATOM     81  O   UNL     1      -2.168   6.033 127.973  0.00  0.00    +0.000 OA
ATOM     82  H   UNL     1      -2.350   6.328 128.887  0.00  0.00    +0.000 HD
ENDBRANCH  77  81
BRANCH  71  83
ATOM     83  O   UNL     1      -9.835   2.308 124.462  0.00  0.00    +0.000 OA
ATOM     84  H   UNL     1     -10.642   1.769 124.508  0.00  0.00    +0.000 HD
ENDBRANCH  71  83
ENDBRANCH  55  58
ENDBRANCH  53  54
ENDBRANCH  52  53
ENDBRANCH  51  52
ENDBRANCH  42  51
ENDBRANCH  40  42
ENDBRANCH  37  38
ENDBRANCH  14  31
BRANCH   5  85
ATOM     85  C   UNL     1      -5.021   6.528 131.746  0.00  0.00    +0.000 A 
ATOM     86  C   UNL     1      -5.768   5.960 132.764  0.00  0.00    +0.000 A 
ATOM     87  C   UNL     1      -7.119   6.074 132.599  0.00  0.00    +0.000 A 
ATOM     88  C   UNL     1      -7.625   6.753 131.492  0.00  0.00    +0.000 A 
ATOM     89  C   UNL     1      -6.814   7.192 130.468  0.00  0.00    +0.000 A 
ATOM     90  C   UNL     1      -5.478   7.129 130.602  0.00  0.00    +0.000 A 
BRANCH  88  91
ATOM     91  O   UNL     1      -8.935   7.043 131.325  0.00  0.00    +0.000 OA
ATOM     92  H   UNL     1      -9.512   6.408 131.770  0.00  0.00    +0.000 HD
ENDBRANCH  88  91
ENDBRANCH   5  85
BRANCH   1  93
ATOM     93  C   UNL     1      -2.275  13.612 133.938  0.00  0.00    +0.000 C 
ATOM     94  C   UNL     1      -1.399  15.011 135.273  0.00  0.00    +0.000 C 
BRANCH  93  96
ATOM     95  C   UNL     1      -3.351  15.380 132.524  0.00  0.00    +0.000 C 
ATOM     96  C   UNL     1      -2.875  15.602 133.849  0.00  0.00    +0.000 C 
ENDBRANCH  93  96
ENDBRANCH   1  93
BRANCH  22  97
ATOM     97  C   UNL     1       0.286  10.401 136.485  0.00  0.00    +0.000 C 
ATOM     98  C   UNL     1       0.835   9.830 135.281  0.00  0.00    +0.000 C 
BRANCH  97  99
ATOM     99  O   UNL     1       1.765  10.145 137.104  0.00  0.00    +0.000 OA
ATOM    100  H   UNL     1       1.742   9.754 138.099  0.00  0.00    +0.000 HD
ENDBRANCH  97  99
ENDBRANCH  22  97
BRANCH   9 101
ATOM    101  O   UNL     1      -2.226   6.324 132.679  0.00  0.00    +0.000 OA
ATOM    102  H   UNL     1      -3.135   6.202 132.395  0.00  0.00    +0.000 HD
ENDBRANCH   9 101
BRANCH  18 103
ATOM    103  C   UNL     1      -2.774   8.386 137.907  0.00  0.00    +0.000 C 
BRANCH 103 104
ATOM    104  C   UNL     1      -4.399   7.938 137.196  0.00  0.00    +0.000 C 
ATOM    105  N   UNL     1      -5.381   9.713 137.304  0.00  0.00    +0.000 N 
ATOM    106  O   UNL     1      -4.810   6.980 136.590  0.00  0.00    +0.000 OA
ATOM    107  H   UNL     1      -4.911  10.422 138.006  0.00  0.00    +0.000 HD
ATOM    108  H   UNL     1      -6.303   9.756 137.079  0.00  0.00    +0.000 HD
ENDBRANCH 103 104
ENDBRANCH  18 103
TORSDOF 22
ENDMDL
MODEL 5
REMARK VINA RESULT:     -10.5      2.798      4.293
REMARK  Name = CHEMBL1790719
REMARK  25 active torsions:
REMARK  status: ('A' for Active; 'I' for Inactive)
REMARK    1  A    between atoms: C_1  and  C_2
REMARK    2  A    between atoms: C_2  and  C_3
REMARK    3  A    between atoms: C_3  and  C_4
REMARK    4  A    between atoms: C_3  and  C_5
REMARK    5  A    between atoms: C_9  and  C_10
REMARK    6  A    between atoms: C_13  and  O_14
REMARK    7  A    between atoms: C_20  and  O_21
REMARK    8  A    between atoms: C_26  and  C_27
REMARK    9  A    between atoms: C_33  and  C_34
REMARK   10  A    between atoms: N_36  and  C_37
REMARK   11  A    between atoms: C_37  and  C_38
REMARK   12  A    between atoms: C_37  and  C_69
REMARK   13  A    between atoms: C_38  and  C_39
REMARK   14  A    between atoms: C_39  and  C_40
REMARK   15  A    between atoms: C_40  and  N_41
REMARK   16  A    between atoms: C_42  and  C_44
REMARK   17  A    between atoms: C_57  and  O_58
REMARK   18  A    between atoms: C_64  and  O_65
REMARK   19  A    between atoms: N_71  and  C_72
REMARK   20  A    between atoms: C_72  and  N_73
REMARK   21  A    between atoms: C_77  and  C_78
REMARK   22  A    between atoms: C_78  and  C_79
REMARK   23  A    between atoms: C_85  and  C_86
REMARK   24  A    between atoms: C_86  and  C_87
REMARK   25  A    between atoms: C_86  and  O_88
REMARK                            x       y       z     vdW  Elec       q    Type
REMARK                         _______ _______ _______ _____ _____    ______ ____
ROOT
ATOM      1  C   UNL     1      -5.897  -0.185 138.278  0.00  0.00    +0.000 C 
ATOM      2  N   UNL     1      -4.999   1.824 138.190  0.00  0.00    +0.000 N 
ATOM      3  C   UNL     1      -4.308   3.854 138.073  0.00  0.00    +0.000 C 
ATOM      4  O   UNL     1      -2.973   4.679 138.103  0.00  0.00    +0.000 OA
ATOM      5  C   UNL     1      -4.456   5.776 137.094  0.00  0.00    +0.000 C 
ATOM      6  N   UNL     1      -4.113   6.247 135.425  0.00  0.00    +0.000 N 
ATOM      7  C   UNL     1      -3.468   5.306 134.672  0.00  0.00    +0.000 C 
ATOM      8  O   UNL     1      -3.324   5.356 133.459  0.00  0.00    +0.000 OA
ATOM      9  C   UNL     1      -3.003   4.038 135.312  0.00  0.00    +0.000 C 
ATOM     10  C   UNL     1      -3.763   2.804 135.091  0.00  0.00    +0.000 C 
ATOM     11  S   UNL     1      -3.124   2.710 133.539  0.00  0.00    +0.000 S 
ATOM     12  S   UNL     1      -3.620   0.826 133.612  0.00  0.00    +0.000 S 
ATOM     13  C   UNL     1      -3.750  -0.113 131.065  0.00  0.00    +0.000 C 
ATOM     14  C   UNL     1      -4.632  -1.175 130.671  0.00  0.00    +0.000 C 
ATOM     15  N   UNL     1      -4.345  -2.224 131.609  0.00  0.00    +0.000 N 
ATOM     16  C   UNL     1      -5.021  -2.265 132.913  0.00  0.00    +0.000 C 
ATOM     17  O   UNL     1      -4.977  -3.313 133.620  0.00  0.00    +0.000 OA
ATOM     18  C   UNL     1      -5.367  -0.900 133.601  0.00  0.00    +0.000 C 
ATOM     19  N   UNL     1      -6.460  -1.264 134.353  0.00  0.00    +0.000 N 
ATOM     20  C   UNL     1      -6.388  -2.165 135.375  0.00  0.00    +0.000 C 
ATOM     21  O   UNL     1      -7.454  -2.527 135.862  0.00  0.00    +0.000 OA
ATOM     22  C   UNL     1      -4.991  -2.699 135.911  0.00  0.00    +0.000 C 
ATOM     23  N   UNL     1      -4.716  -2.471 137.386  0.00  0.00    +0.000 N 
ATOM     24  C   UNL     1      -5.307  -1.892 138.480  0.00  0.00    +0.000 C 
ATOM     25  O   UNL     1      -5.323  -2.520 139.558  0.00  0.00    +0.000 OA
ATOM     26  H   UNL     1      -4.313   2.975 138.689  0.00  0.00    +0.000 HD
ATOM     27  H   UNL     1      -4.458   7.086 134.819  0.00  0.00    +0.000 HD
ATOM     28  H   UNL     1      -3.695  -2.916 131.228  0.00  0.00    +0.000 HD
ATOM     29  H   UNL     1      -7.301  -0.880 133.980  0.00  0.00    +0.000 HD
ATOM     30  H   UNL     1      -3.940  -1.859 137.484  0.00  0.00    +0.000 HD
ENDROOT
BRANCH  14  31
ATOM     31  C   UNL     1      -6.291  -0.766 130.489  0.00  0.00    +0.000 C 
ATOM     32  O   UNL     1      -7.103  -0.159 131.220  0.00  0.00    +0.000 OA
ATOM     33  N   UNL     1      -6.858  -1.345 129.469  0.00  0.00    +0.000 N 
ATOM     34  C   UNL     1      -6.590  -2.590 128.851  0.00  0.00    +0.000 C 
ATOM     35  C   UNL     1      -6.826  -2.185 127.429  0.00  0.00    +0.000 C 
ATOM     36  C   UNL     1      -8.045  -1.254 127.524  0.00  0.00    +0.000 C 
ATOM     37  C   UNL     1      -7.891  -0.579 128.866  0.00  0.00    +0.000 C 
BRANCH  37  38
ATOM     38  C   UNL     1      -7.555   0.897 128.658  0.00  0.00    +0.000 C 
ATOM     39  O   UNL     1      -8.522   1.653 128.799  0.00  0.00    +0.000 OA
ATOM     40  N   UNL     1      -6.288   1.297 128.226  0.00  0.00    +0.000 N 
ATOM     41  H   UNL     1      -5.569   0.622 127.984  0.00  0.00    +0.000 HD
BRANCH  40  42
ATOM     42  C   UNL     1      -5.880   2.729 128.096  0.00  0.00    +0.000 C 
BRANCH  42  43
ATOM     43  C   UNL     1      -6.399   3.361 126.753  0.00  0.00    +0.000 C 
ATOM     44  O   UNL     1      -5.638   3.380 125.778  0.00  0.00    +0.000 OA
ATOM     45  N   UNL     1      -7.714   3.848 126.690  0.00  0.00    +0.000 N 
ATOM     46  H   UNL     1      -8.329   3.839 127.496  0.00  0.00    +0.000 HD
BRANCH  45  47
ATOM     47  C   UNL     1      -8.222   4.454 125.474  0.00  0.00    +0.000 C 
BRANCH  47  48
ATOM     48  N   UNL     1      -9.012   3.497 124.722  0.00  0.00    +0.000 NA
ATOM     49  H   UNL     1      -9.861   3.930 124.370  0.00  0.00    +0.000 HD
ATOM     50  H   UNL     1      -9.321   2.743 125.353  0.00  0.00    +0.000 HD
ENDBRANCH  47  48
ENDBRANCH  45  47
ENDBRANCH  42  43
BRANCH  42  51
ATOM     51  C   UNL     1      -4.365   2.850 128.158  0.00  0.00    +0.000 C 
BRANCH  51  52
ATOM     52  C   UNL     1      -3.904   3.723 129.301  0.00  0.00    +0.000 C 
BRANCH  52  53
ATOM     53  C   UNL     1      -4.289   5.162 129.203  0.00  0.00    +0.000 C 
BRANCH  53  54
ATOM     54  N   UNL     1      -3.758   5.984 130.345  0.00  0.00    +0.000 N 
ATOM     55  C   UNL     1      -3.735   7.407 130.317  0.00  0.00    +0.000 C 
ATOM     56  O   UNL     1      -4.166   7.921 129.262  0.00  0.00    +0.000 OA
ATOM     57  H   UNL     1      -3.419   5.459 131.134  0.00  0.00    +0.000 HD
BRANCH  55  58
ATOM     58  C   UNL     1      -3.012   8.511 131.474  0.00  0.00    +0.000 A 
ATOM     59  C   UNL     1      -2.103   7.977 132.197  0.00  0.00    +0.000 A 
ATOM     60  C   UNL     1      -1.094   8.906 132.970  0.00  0.00    +0.000 A 
ATOM     61  C   UNL     1      -0.681   8.582 134.057  0.00  0.00    +0.000 A 
ATOM     62  C   UNL     1      -1.296   9.699 134.053  0.00  0.00    +0.000 A 
ATOM     63  C   UNL     1      -2.628   9.663 132.426  0.00  0.00    +0.000 A 
ATOM     64  C   UNL     1       0.126   9.335 135.623  0.00  0.00    +0.000 C 
ATOM     65  O   UNL     1       1.079   8.256 135.007  0.00  0.00    +0.000 OA
ATOM     66  C   UNL     1       0.061   7.513 134.447  0.00  0.00    +0.000 C 
ATOM     67  O   UNL     1      -0.401   6.519 133.898  0.00  0.00    +0.000 OA
ATOM     68  C   UNL     1       1.221  10.703 136.353  0.00  0.00    +0.000 A 
ATOM     69  C   UNL     1       2.510  11.271 136.027  0.00  0.00    +0.000 A 
ATOM     70  C   UNL     1       3.038  12.463 136.669  0.00  0.00    +0.000 A 
ATOM     71  C   UNL     1       2.350  13.034 137.730  0.00  0.00    +0.000 A 
ATOM     72  C   UNL     1       1.216  12.401 138.212  0.00  0.00    +0.000 A 
ATOM     73  C   UNL     1       0.704  11.255 137.572  0.00  0.00    +0.000 A 
ATOM     74  O   UNL     1      -0.456  10.743 138.110  0.00  0.00    +0.000 OA
ATOM     75  C   UNL     1      -0.385   9.407 138.334  0.00  0.00    +0.000 A 
ATOM     76  C   UNL     1      -1.489   8.787 139.044  0.00  0.00    +0.000 A 
ATOM     77  C   UNL     1      -1.529   7.471 139.500  0.00  0.00    +0.000 A 
ATOM     78  C   UNL     1      -0.336   6.797 139.461  0.00  0.00    +0.000 A 
ATOM     79  C   UNL     1       0.732   7.411 138.621  0.00  0.00    +0.000 A 
ATOM     80  C   UNL     1       0.443   8.673 137.527  0.00  0.00    +0.000 A 
BRANCH  77  81
ATOM     81  O   UNL     1      -2.663   6.868 139.972  0.00  0.00    +0.000 OA
ATOM     82  H   UNL     1      -3.103   6.259 139.346  0.00  0.00    +0.000 HD
ENDBRANCH  77  81
BRANCH  71  83
ATOM     83  O   UNL     1       2.704  14.189 138.365  0.00  0.00    +0.000 OA
ATOM     84  H   UNL     1       3.660  14.293 138.496  0.00  0.00    +0.000 HD
ENDBRANCH  71  83
ENDBRANCH  55  58
ENDBRANCH  53  54
ENDBRANCH  52  53
ENDBRANCH  51  52
ENDBRANCH  42  51
ENDBRANCH  40  42
ENDBRANCH  37  38
ENDBRANCH  14  31
BRANCH   5  85
ATOM     85  C   UNL     1      -5.808   5.412 137.139  0.00  0.00    +0.000 A 
ATOM     86  C   UNL     1      -6.341   5.827 135.930  0.00  0.00    +0.000 A 
ATOM     87  C   UNL     1      -7.546   6.462 136.036  0.00  0.00    +0.000 A 
ATOM     88  C   UNL     1      -8.142   6.608 137.288  0.00  0.00    +0.000 A 
ATOM     89  C   UNL     1      -7.493   6.264 138.454  0.00  0.00    +0.000 A 
ATOM     90  C   UNL     1      -6.320   5.608 138.395  0.00  0.00    +0.000 A 
BRANCH  88  91
ATOM     91  O   UNL     1      -9.394   7.086 137.471  0.00  0.00    +0.000 OA
ATOM     92  H   UNL     1      -9.982   6.434 137.872  0.00  0.00    +0.000 HD
ENDBRANCH  88  91
ENDBRANCH   5  85
BRANCH   1  93
ATOM     93  C   UNL     1      -7.083  -2.260 138.565  0.00  0.00    +0.000 C 
ATOM     94  C   UNL     1      -6.936  -4.376 138.649  0.00  0.00    +0.000 C 
BRANCH  93  96
ATOM     95  C   UNL     1      -9.579  -2.213 138.798  0.00  0.00    +0.000 C 
ATOM     96  C   UNL     1      -8.780  -3.371 139.030  0.00  0.00    +0.000 C 
ENDBRANCH  93  96
ENDBRANCH   1  93
BRANCH  22  97
ATOM     97  C   UNL     1      -3.676  -2.142 135.141  0.00  0.00    +0.000 C 
ATOM     98  C   UNL     1      -2.726  -1.527 136.034  0.00  0.00    +0.000 C 
BRANCH  97  99
ATOM     99  O   UNL     1      -2.386  -2.939 134.557  0.00  0.00    +0.000 OA
ATOM    100  H   UNL     1      -1.974  -2.485 133.681  0.00  0.00    +0.000 HD
ENDBRANCH  97  99
ENDBRANCH  22  97
BRANCH   9 101
ATOM    101  O   UNL     1      -3.408   3.816 136.498  0.00  0.00    +0.000 OA
ATOM    102  H   UNL     1      -2.677   4.138 137.031  0.00  0.00    +0.000 HD
ENDBRANCH   9 101
BRANCH  18 103
ATOM    103  C   UNL     1      -5.571   0.264 132.679  0.00  0.00    +0.000 C 
BRANCH 103 104
ATOM    104  C   UNL     1      -6.636   1.722 132.977  0.00  0.00    +0.000 C 
ATOM    105  N   UNL     1      -6.167   2.887 131.381  0.00  0.00    +0.000 N 
ATOM    106  O   UNL     1      -7.556   1.946 133.723  0.00  0.00    +0.000 OA
ATOM    107  H   UNL     1      -5.219   2.593 130.897  0.00  0.00    +0.000 HD
ATOM    108  H   UNL     1      -6.514   3.770 131.322  0.00  0.00    +0.000 HD
ENDBRANCH 103 104
ENDBRANCH  18 103
TORSDOF 22
ENDMDL
MODEL 6
REMARK VINA RESULT:     -10.5      4.846     12.125
REMARK  Name = CHEMBL1790719
REMARK  25 active torsions:
REMARK  status: ('A' for Active; 'I' for Inactive)
REMARK    1  A    between atoms: C_1  and  C_2
REMARK    2  A    between atoms: C_2  and  C_3
REMARK    3  A    between atoms: C_3  and  C_4
REMARK    4  A    between atoms: C_3  and  C_5
REMARK    5  A    between atoms: C_9  and  C_10
REMARK    6  A    between atoms: C_13  and  O_14
REMARK    7  A    between atoms: C_20  and  O_21
REMARK    8  A    between atoms: C_26  and  C_27
REMARK    9  A    between atoms: C_33  and  C_34
REMARK   10  A    between atoms: N_36  and  C_37
REMARK   11  A    between atoms: C_37  and  C_38
REMARK   12  A    between atoms: C_37  and  C_69
REMARK   13  A    between atoms: C_38  and  C_39
REMARK   14  A    between atoms: C_39  and  C_40
REMARK   15  A    between atoms: C_40  and  N_41
REMARK   16  A    between atoms: C_42  and  C_44
REMARK   17  A    between atoms: C_57  and  O_58
REMARK   18  A    between atoms: C_64  and  O_65
REMARK   19  A    between atoms: N_71  and  C_72
REMARK   20  A    between atoms: C_72  and  N_73
REMARK   21  A    between atoms: C_77  and  C_78
REMARK   22  A    between atoms: C_78  and  C_79
REMARK   23  A    between atoms: C_85  and  C_86
REMARK   24  A    between atoms: C_86  and  C_87
REMARK   25  A    between atoms: C_86  and  O_88
REMARK                            x       y       z     vdW  Elec       q    Type
REMARK                         _______ _______ _______ _____ _____    ______ ____
ROOT
ATOM      1  C   UNL     1      -5.066   4.206 137.333  0.00  0.00    +0.000 C 
ATOM      2  N   UNL     1      -4.448   3.089 135.538  0.00  0.00    +0.000 N 
ATOM      3  C   UNL     1      -4.041   1.968 133.753  0.00  0.00    +0.000 C 
ATOM      4  O   UNL     1      -2.827   1.432 132.914  0.00  0.00    +0.000 OA
ATOM      5  C   UNL     1      -4.525   0.253 132.527  0.00  0.00    +0.000 C 
ATOM      6  N   UNL     1      -4.398  -1.476 132.867  0.00  0.00    +0.000 N 
ATOM      7  C   UNL     1      -3.706  -1.802 134.000  0.00  0.00    +0.000 C 
ATOM      8  O   UNL     1      -3.680  -2.912 134.512  0.00  0.00    +0.000 OA
ATOM      9  C   UNL     1      -3.025  -0.728 134.785  0.00  0.00    +0.000 C 
ATOM     10  C   UNL     1      -3.634  -0.255 136.031  0.00  0.00    +0.000 C 
ATOM     11  S   UNL     1      -3.130  -1.667 136.791  0.00  0.00    +0.000 S 
ATOM     12  S   UNL     1      -3.369  -0.677 138.454  0.00  0.00    +0.000 S 
ATOM     13  C   UNL     1      -3.604  -2.473 140.481  0.00  0.00    +0.000 C 
ATOM     14  C   UNL     1      -4.372  -2.213 141.665  0.00  0.00    +0.000 C 
ATOM     15  N   UNL     1      -3.868  -0.951 142.131  0.00  0.00    +0.000 N 
ATOM     16  C   UNL     1      -4.413   0.309 141.607  0.00  0.00    +0.000 C 
ATOM     17  O   UNL     1      -4.170   1.402 142.198  0.00  0.00    +0.000 OA
ATOM     18  C   UNL     1      -4.870   0.343 140.109  0.00  0.00    +0.000 C 
ATOM     19  N   UNL     1      -5.834   1.322 140.159  0.00  0.00    +0.000 N 
ATOM     20  C   UNL     1      -5.554   2.621 140.470  0.00  0.00    +0.000 C 
ATOM     21  O   UNL     1      -6.515   3.363 140.640  0.00  0.00    +0.000 OA
ATOM     22  C   UNL     1      -4.057   3.140 140.588  0.00  0.00    +0.000 C 
ATOM     23  N   UNL     1      -3.683   4.295 139.677  0.00  0.00    +0.000 N 
ATOM     24  C   UNL     1      -4.242   5.077 138.700  0.00  0.00    +0.000 C 
ATOM     25  O   UNL     1      -4.080   6.313 138.751  0.00  0.00    +0.000 OA
ATOM     26  H   UNL     1      -3.876   2.909 134.240  0.00  0.00    +0.000 HD
ATOM     27  H   UNL     1      -4.902  -2.343 132.436  0.00  0.00    +0.000 HD
ATOM     28  H   UNL     1      -3.171  -1.063 142.871  0.00  0.00    +0.000 HD
ATOM     29  H   UNL     1      -6.748   0.938 140.056  0.00  0.00    +0.000 HD
ATOM     30  H   UNL     1      -2.987   3.995 139.036  0.00  0.00    +0.000 HD
ENDROOT
BRANCH  14  31
ATOM     31  C   UNL     1      -6.080  -2.327 141.512  0.00  0.00    +0.000 C 
ATOM     32  O   UNL     1      -6.949  -1.544 141.071  0.00  0.00    +0.000 OA
ATOM     33  N   UNL     1      -6.587  -3.357 142.127  0.00  0.00    +0.000 N 
ATOM     34  C   UNL     1      -6.153  -4.043 143.287  0.00  0.00    +0.000 C 
ATOM     35  C   UNL     1      -6.500  -5.436 142.861  0.00  0.00    +0.000 C 
ATOM     36  C   UNL     1      -7.844  -5.260 142.137  0.00  0.00    +0.000 C 
ATOM     37  C   UNL     1      -7.748  -3.892 141.506  0.00  0.00    +0.000 C 
BRANCH  37  38
ATOM     38  C   UNL     1      -7.651  -4.036 139.987  0.00  0.00    +0.000 C 
ATOM     39  O   UNL     1      -8.596  -3.528 139.377  0.00  0.00    +0.000 OA
ATOM     40  N   UNL     1      -6.635  -4.791 139.395  0.00  0.00    +0.000 N 
ATOM     41  H   UNL     1      -5.963  -5.311 139.951  0.00  0.00    +0.000 HD
BRANCH  40  42
ATOM     42  C   UNL     1      -6.441  -4.890 137.916  0.00  0.00    +0.000 C 
BRANCH  42  43
ATOM     43  C   UNL     1      -7.794  -5.182 137.172  0.00  0.00    +0.000 C 
ATOM     44  O   UNL     1      -8.043  -4.558 136.134  0.00  0.00    +0.000 OA
ATOM     45  N   UNL     1      -8.659  -6.162 137.685  0.00  0.00    +0.000 N 
ATOM     46  H   UNL     1      -8.454  -6.662 138.543  0.00  0.00    +0.000 HD
BRANCH  45  47
ATOM     47  C   UNL     1      -9.925  -6.447 137.035  0.00  0.00    +0.000 C 
BRANCH  47  48
ATOM     48  N   UNL     1     -10.752  -5.255 136.993  0.00  0.00    +0.000 NA
ATOM     49  H   UNL     1     -10.327  -4.545 136.405  0.00  0.00    +0.000 HD
ATOM     50  H   UNL     1     -10.804  -4.846 137.937  0.00  0.00    +0.000 HD
ENDBRANCH  47  48
ENDBRANCH  45  47
ENDBRANCH  42  43
BRANCH  42  51
ATOM     51  C   UNL     1      -5.439  -5.987 137.591  0.00  0.00    +0.000 C 
BRANCH  51  52
ATOM     52  C   UNL     1      -4.460  -5.572 136.517  0.00  0.00    +0.000 C 
BRANCH  52  53
ATOM     53  C   UNL     1      -4.683  -6.187 135.176  0.00  0.00    +0.000 C 
BRANCH  53  54
ATOM     54  N   UNL     1      -5.643  -5.399 134.328  0.00  0.00    +0.000 N 
ATOM     55  C   UNL     1      -5.460  -5.223 132.928  0.00  0.00    +0.000 C 
ATOM     56  O   UNL     1      -4.428  -5.751 132.461  0.00  0.00    +0.000 OA
ATOM     57  H   UNL     1      -6.428  -5.004 134.819  0.00  0.00    +0.000 HD
BRANCH  55  58
ATOM     58  C   UNL     1      -6.378  -4.213 131.824  0.00  0.00    +0.000 A 
ATOM     59  C   UNL     1      -5.688  -3.753 130.852  0.00  0.00    +0.000 A 
ATOM     60  C   UNL     1      -6.430  -3.193 129.581  0.00  0.00    +0.000 A 
ATOM     61  C   UNL     1      -5.975  -2.252 128.978  0.00  0.00    +0.000 A 
ATOM     62  C   UNL     1      -7.152  -2.053 129.428  0.00  0.00    +0.000 A 
ATOM     63  C   UNL     1      -7.399  -3.320 131.088  0.00  0.00    +0.000 A 
ATOM     64  C   UNL     1      -6.503  -0.883 127.746  0.00  0.00    +0.000 C 
ATOM     65  O   UNL     1      -5.376  -1.761 127.105  0.00  0.00    +0.000 OA
ATOM     66  C   UNL     1      -4.801  -2.104 128.311  0.00  0.00    +0.000 C 
ATOM     67  O   UNL     1      -3.913  -2.580 129.010  0.00  0.00    +0.000 OA
ATOM     68  C   UNL     1      -7.674  -0.362 126.346  0.00  0.00    +0.000 A 
ATOM     69  C   UNL     1      -8.117  -0.952 125.102  0.00  0.00    +0.000 A 
ATOM     70  C   UNL     1      -9.186  -0.391 124.293  0.00  0.00    +0.000 A 
ATOM     71  C   UNL     1      -9.743   0.831 124.642  0.00  0.00    +0.000 A 
ATOM     72  C   UNL     1      -9.206   1.532 125.709  0.00  0.00    +0.000 A 
ATOM     73  C   UNL     1      -8.181   0.972 126.497  0.00  0.00    +0.000 A 
ATOM     74  O   UNL     1      -7.763   1.740 127.560  0.00  0.00    +0.000 OA
ATOM     75  C   UNL     1      -6.413   1.872 127.613  0.00  0.00    +0.000 A 
ATOM     76  C   UNL     1      -5.868   2.789 128.597  0.00  0.00    +0.000 A 
ATOM     77  C   UNL     1      -4.533   3.172 128.702  0.00  0.00    +0.000 A 
ATOM     78  C   UNL     1      -3.733   2.819 127.647  0.00  0.00    +0.000 A 
ATOM     79  C   UNL     1      -4.288   1.783 126.727  0.00  0.00    +0.000 A 
ATOM     80  C   UNL     1      -5.658   0.856 127.092  0.00  0.00    +0.000 A 
BRANCH  77  81
ATOM     81  O   UNL     1      -4.026   3.866 129.768  0.00  0.00    +0.000 OA
ATOM     82  H   UNL     1      -3.123   4.219 129.645  0.00  0.00    +0.000 HD
ENDBRANCH  77  81
BRANCH  71  83
ATOM     83  O   UNL     1     -10.796   1.423 124.007  0.00  0.00    +0.000 OA
ATOM     84  H   UNL     1     -10.538   2.065 123.325  0.00  0.00    +0.000 HD
ENDBRANCH  71  83
ENDBRANCH  55  58
ENDBRANCH  53  54
ENDBRANCH  52  53
ENDBRANCH  51  52
ENDBRANCH  42  51
ENDBRANCH  40  42
ENDBRANCH  37  38
ENDBRANCH  14  31
BRANCH   5  85
ATOM     85  C   UNL     1      -5.809   0.648 132.927  0.00  0.00    +0.000 A 
ATOM     86  C   UNL     1      -6.426  -0.509 133.373  0.00  0.00    +0.000 A 
ATOM     87  C   UNL     1      -7.707  -0.669 132.926  0.00  0.00    +0.000 A 
ATOM     88  C   UNL     1      -8.287   0.312 132.123  0.00  0.00    +0.000 A 
ATOM     89  C   UNL     1      -7.565   1.379 131.633  0.00  0.00    +0.000 A 
ATOM     90  C   UNL     1      -6.312   1.593 132.071  0.00  0.00    +0.000 A 
BRANCH  88  91
ATOM     91  O   UNL     1      -9.589   0.310 131.760  0.00  0.00    +0.000 OA
ATOM     92  H   UNL     1     -10.125  -0.270 132.316  0.00  0.00    +0.000 HD
ENDBRANCH  88  91
ENDBRANCH   5  85
BRANCH   1  93
ATOM     93  C   UNL     1      -5.941   5.568 139.115  0.00  0.00    +0.000 C 
ATOM     94  C   UNL     1      -5.673   6.246 141.109  0.00  0.00    +0.000 C 
BRANCH  93  96
ATOM     95  C   UNL     1      -7.948   6.991 138.637  0.00  0.00    +0.000 C 
ATOM     96  C   UNL     1      -7.260   6.980 139.885  0.00  0.00    +0.000 C 
ENDBRANCH  93  96
ENDBRANCH   1  93
BRANCH  22  97
ATOM     97  C   UNL     1      -2.900   2.025 140.360  0.00  0.00    +0.000 C 
ATOM     98  C   UNL     1      -1.968   2.393 139.324  0.00  0.00    +0.000 C 
BRANCH  97  99
ATOM     99  O   UNL     1      -1.570   1.699 141.234  0.00  0.00    +0.000 OA
ATOM    100  H   UNL     1      -1.028   0.851 140.873  0.00  0.00    +0.000 HD
ENDBRANCH  97  99
ENDBRANCH  22  97
BRANCH   9 101
ATOM    101  O   UNL     1      -3.288   0.473 134.456  0.00  0.00    +0.000 OA
ATOM    102  H   UNL     1      -3.430   0.403 133.509  0.00  0.00    +0.000 HD
ENDBRANCH   9 101
BRANCH  18 103
ATOM    103  C   UNL     1      -5.306  -0.969 139.528  0.00  0.00    +0.000 C 
BRANCH 103 104
ATOM    104  C   UNL     1      -6.576  -1.226 138.236  0.00  0.00    +0.000 C 
ATOM    105  N   UNL     1      -8.263  -0.682 139.226  0.00  0.00    +0.000 N 
ATOM    106  O   UNL     1      -6.530  -1.423 137.048  0.00  0.00    +0.000 OA
ATOM    107  H   UNL     1      -8.135  -0.673 140.322  0.00  0.00    +0.000 HD
ATOM    108  H   UNL     1      -9.112  -0.802 138.815  0.00  0.00    +0.000 HD
ENDBRANCH 103 104
ENDBRANCH  18 103
TORSDOF 22
ENDMDL
MODEL 7
REMARK VINA RESULT:     -10.4      5.381     13.770
REMARK  Name = CHEMBL1790719
REMARK  25 active torsions:
REMARK  status: ('A' for Active; 'I' for Inactive)
REMARK    1  A    between atoms: C_1  and  C_2
REMARK    2  A    between atoms: C_2  and  C_3
REMARK    3  A    between atoms: C_3  and  C_4
REMARK    4  A    between atoms: C_3  and  C_5
REMARK    5  A    between atoms: C_9  and  C_10
REMARK    6  A    between atoms: C_13  and  O_14
REMARK    7  A    between atoms: C_20  and  O_21
REMARK    8  A    between atoms: C_26  and  C_27
REMARK    9  A    between atoms: C_33  and  C_34
REMARK   10  A    between atoms: N_36  and  C_37
REMARK   11  A    between atoms: C_37  and  C_38
REMARK   12  A    between atoms: C_37  and  C_69
REMARK   13  A    between atoms: C_38  and  C_39
REMARK   14  A    between atoms: C_39  and  C_40
REMARK   15  A    between atoms: C_40  and  N_41
REMARK   16  A    between atoms: C_42  and  C_44
REMARK   17  A    between atoms: C_57  and  O_58
REMARK   18  A    between atoms: C_64  and  O_65
REMARK   19  A    between atoms: N_71  and  C_72
REMARK   20  A    between atoms: C_72  and  N_73
REMARK   21  A    between atoms: C_77  and  C_78
REMARK   22  A    between atoms: C_78  and  C_79
REMARK   23  A    between atoms: C_85  and  C_86
REMARK   24  A    between atoms: C_86  and  C_87
REMARK   25  A    between atoms: C_86  and  O_88
REMARK                            x       y       z     vdW  Elec       q    Type
REMARK                         _______ _______ _______ _____ _____    ______ ____
ROOT
ATOM      1  C   UNL     1      -6.588  13.467 140.310  0.00  0.00    +0.000 C 
ATOM      2  N   UNL     1      -4.504  14.180 140.312  0.00  0.00    +0.000 N 
ATOM      3  C   UNL     1      -2.495  14.912 140.119  0.00  0.00    +0.000 C 
ATOM      4  O   UNL     1      -1.192  15.106 140.974  0.00  0.00    +0.000 OA
ATOM      5  C   UNL     1      -0.685  14.979 138.938  0.00  0.00    +0.000 C 
ATOM      6  N   UNL     1       0.429  13.690 138.466  0.00  0.00    +0.000 N 
ATOM      7  C   UNL     1       0.241  12.492 139.097  0.00  0.00    +0.000 C 
ATOM      8  O   UNL     1       0.764  11.437 138.770  0.00  0.00    +0.000 OA
ATOM      9  C   UNL     1      -0.773  12.384 140.190  0.00  0.00    +0.000 C 
ATOM     10  C   UNL     1      -2.060  11.740 139.912  0.00  0.00    +0.000 C 
ATOM     11  S   UNL     1      -1.296  10.243 139.943  0.00  0.00    +0.000 S 
ATOM     12  S   UNL     1      -3.079   9.510 140.234  0.00  0.00    +0.000 S 
ATOM     13  C   UNL     1      -3.031   6.877 139.560  0.00  0.00    +0.000 C 
ATOM     14  C   UNL     1      -4.180   6.183 139.052  0.00  0.00    +0.000 C 
ATOM     15  N   UNL     1      -5.205   6.464 140.018  0.00  0.00    +0.000 N 
ATOM     16  C   UNL     1      -6.010   7.689 139.915  0.00  0.00    +0.000 C 
ATOM     17  O   UNL     1      -7.075   7.809 140.590  0.00  0.00    +0.000 OA
ATOM     18  C   UNL     1      -5.314   8.979 139.363  0.00  0.00    +0.000 C 
ATOM     19  N   UNL     1      -6.393   9.640 138.825  0.00  0.00    +0.000 N 
ATOM     20  C   UNL     1      -7.432  10.098 139.581  0.00  0.00    +0.000 C 
ATOM     21  O   UNL     1      -8.406  10.526 138.972  0.00  0.00    +0.000 OA
ATOM     22  C   UNL     1      -7.367  10.091 141.169  0.00  0.00    +0.000 C 
ATOM     23  N   UNL     1      -7.552  11.436 141.846  0.00  0.00    +0.000 N 
ATOM     24  C   UNL     1      -7.745  12.753 141.516  0.00  0.00    +0.000 C 
ATOM     25  O   UNL     1      -8.627  13.401 142.116  0.00  0.00    +0.000 OA
ATOM     26  H   UNL     1      -3.414  15.040 140.657  0.00  0.00    +0.000 HD
ATOM     27  H   UNL     1       1.144  13.609 137.645  0.00  0.00    +0.000 HD
ATOM     28  H   UNL     1      -5.317   5.705 140.694  0.00  0.00    +0.000 HD
ATOM     29  H   UNL     1      -6.365   9.631 137.828  0.00  0.00    +0.000 HD
ATOM     30  H   UNL     1      -6.716  11.681 142.323  0.00  0.00    +0.000 HD
ENDROOT
BRANCH  14  31
ATOM     31  C   UNL     1      -4.593   6.483 137.411  0.00  0.00    +0.000 C 
ATOM     32  O   UNL     1      -5.069   7.476 136.822  0.00  0.00    +0.000 OA
ATOM     33  N   UNL     1      -4.564   5.415 136.667  0.00  0.00    +0.000 N 
ATOM     34  C   UNL     1      -4.805   4.058 136.992  0.00  0.00    +0.000 C 
ATOM     35  C   UNL     1      -3.763   3.433 136.117  0.00  0.00    +0.000 C 
ATOM     36  C   UNL     1      -3.828   4.275 134.833  0.00  0.00    +0.000 C 
ATOM     37  C   UNL     1      -4.197   5.657 135.315  0.00  0.00    +0.000 C 
BRANCH  37  38
ATOM     38  C   UNL     1      -3.005   6.596 135.135  0.00  0.00    +0.000 C 
ATOM     39  O   UNL     1      -2.136   6.470 136.003  0.00  0.00    +0.000 OA
ATOM     40  N   UNL     1      -3.001   7.577 134.140  0.00  0.00    +0.000 N 
ATOM     41  H   UNL     1      -3.806   7.735 133.542  0.00  0.00    +0.000 HD
BRANCH  40  42
ATOM     42  C   UNL     1      -1.826   8.459 133.862  0.00  0.00    +0.000 C 
BRANCH  42  43
ATOM     43  C   UNL     1      -2.262   9.816 133.200  0.00  0.00    +0.000 C 
ATOM     44  O   UNL     1      -2.638   9.803 132.021  0.00  0.00    +0.000 OA
ATOM     45  N   UNL     1      -2.247  10.989 133.971  0.00  0.00    +0.000 N 
ATOM     46  H   UNL     1      -1.928  10.995 134.933  0.00  0.00    +0.000 HD
BRANCH  45  47
ATOM     47  C   UNL     1      -2.626  12.263 133.389  0.00  0.00    +0.000 C 
BRANCH  47  48
ATOM     48  N   UNL     1      -1.761  12.585 132.268  0.00  0.00    +0.000 NA
ATOM     49  H   UNL     1      -2.276  12.538 131.394  0.00  0.00    +0.000 HD
ATOM     50  H   UNL     1      -1.019  11.874 132.198  0.00  0.00    +0.000 HD
ENDBRANCH  47  48
ENDBRANCH  45  47
ENDBRANCH  42  43
BRANCH  42  51
ATOM     51  C   UNL     1      -0.840   7.746 132.950  0.00  0.00    +0.000 C 
BRANCH  51  52
ATOM     52  C   UNL     1      -1.461   6.565 132.241  0.00  0.00    +0.000 C 
BRANCH  52  53
ATOM     53  C   UNL     1      -1.818   6.794 130.810  0.00  0.00    +0.000 C 
BRANCH  53  54
ATOM     54  N   UNL     1      -2.312   5.548 130.129  0.00  0.00    +0.000 N 
ATOM     55  C   UNL     1      -2.508   5.472 128.721  0.00  0.00    +0.000 C 
ATOM     56  O   UNL     1      -2.264   6.527 128.097  0.00  0.00    +0.000 OA
ATOM     57  H   UNL     1      -2.494   4.767 130.737  0.00  0.00    +0.000 HD
BRANCH  55  58
ATOM     58  C   UNL     1      -3.223   4.170 127.786  0.00  0.00    +0.000 A 
ATOM     59  C   UNL     1      -4.269   3.666 128.321  0.00  0.00    +0.000 A 
ATOM     60  C   UNL     1      -5.243   2.802 127.435  0.00  0.00    +0.000 A 
ATOM     61  C   UNL     1      -5.817   1.853 127.913  0.00  0.00    +0.000 A 
ATOM     62  C   UNL     1      -5.075   1.558 126.919  0.00  0.00    +0.000 A 
ATOM     63  C   UNL     1      -3.575   3.027 126.811  0.00  0.00    +0.000 A 
ATOM     64  C   UNL     1      -6.706   0.239 127.390  0.00  0.00    +0.000 C 
ATOM     65  O   UNL     1      -7.704   1.159 128.170  0.00  0.00    +0.000 OA
ATOM     66  C   UNL     1      -6.723   1.775 128.921  0.00  0.00    +0.000 C 
ATOM     67  O   UNL     1      -6.324   2.486 129.837  0.00  0.00    +0.000 OA
ATOM     68  C   UNL     1      -7.705  -0.672 126.058  0.00  0.00    +0.000 A 
ATOM     69  C   UNL     1      -8.869  -0.365 125.255  0.00  0.00    +0.000 A 
ATOM     70  C   UNL     1      -9.320  -1.203 124.157  0.00  0.00    +0.000 A 
ATOM     71  C   UNL     1      -8.698  -2.421 123.922  0.00  0.00    +0.000 A 
ATOM     72  C   UNL     1      -7.714  -2.851 124.796  0.00  0.00    +0.000 A 
ATOM     73  C   UNL     1      -7.272  -2.024 125.848  0.00  0.00    +0.000 A 
ATOM     74  O   UNL     1      -6.255  -2.538 126.620  0.00  0.00    +0.000 OA
ATOM     75  C   UNL     1      -6.513  -2.457 127.950  0.00  0.00    +0.000 A 
ATOM     76  C   UNL     1      -5.584  -3.109 128.854  0.00  0.00    +0.000 A 
ATOM     77  C   UNL     1      -5.758  -3.267 130.227  0.00  0.00    +0.000 A 
ATOM     78  C   UNL     1      -7.010  -2.975 130.700  0.00  0.00    +0.000 A 
ATOM     79  C   UNL     1      -7.890  -2.198 129.780  0.00  0.00    +0.000 A 
ATOM     80  C   UNL     1      -7.323  -1.438 128.376  0.00  0.00    +0.000 A 
BRANCH  77  81
ATOM     81  O   UNL     1      -4.768  -3.694 131.071  0.00  0.00    +0.000 OA
ATOM     82  H   UNL     1      -3.891  -3.288 130.925  0.00  0.00    +0.000 HD
ENDBRANCH  77  81
BRANCH  71  83
ATOM     83  O   UNL     1      -8.982  -3.259 122.883  0.00  0.00    +0.000 OA
ATOM     84  H   UNL     1      -9.895  -3.588 122.876  0.00  0.00    +0.000 HD
ENDBRANCH  71  83
ENDBRANCH  55  58
ENDBRANCH  53  54
ENDBRANCH  52  53
ENDBRANCH  51  52
ENDBRANCH  42  51
ENDBRANCH  40  42
ENDBRANCH  37  38
ENDBRANCH  14  31
BRANCH   5  85
ATOM     85  C   UNL     1      -1.649  15.067 137.926  0.00  0.00    +0.000 A 
ATOM     86  C   UNL     1      -1.101  14.409 136.837  0.00  0.00    +0.000 A 
ATOM     87  C   UNL     1      -1.249  15.069 135.650  0.00  0.00    +0.000 A 
ATOM     88  C   UNL     1      -1.940  16.279 135.613  0.00  0.00    +0.000 A 
ATOM     89  C   UNL     1      -2.358  16.920 136.760  0.00  0.00    +0.000 A 
ATOM     90  C   UNL     1      -2.261  16.294 137.946  0.00  0.00    +0.000 A 
BRANCH  88  91
ATOM     91  O   UNL     1      -2.262  16.924 134.469  0.00  0.00    +0.000 OA
ATOM     92  H   UNL     1      -2.346  16.321 133.719  0.00  0.00    +0.000 HD
ENDBRANCH  88  91
ENDBRANCH   5  85
BRANCH   1  93
ATOM     93  C   UNL     1      -8.932  12.943 140.155  0.00  0.00    +0.000 C 
ATOM     94  C   UNL     1     -10.484  11.617 140.740  0.00  0.00    +0.000 C 
BRANCH  93  96
ATOM     95  C   UNL     1     -10.504  14.722 139.347  0.00  0.00    +0.000 C 
ATOM     96  C   UNL     1     -10.890  13.372 139.596  0.00  0.00    +0.000 C 
ENDBRANCH  93  96
ENDBRANCH   1  93
BRANCH  22  97
ATOM     97  C   UNL     1      -6.018   9.467 141.820  0.00  0.00    +0.000 C 
ATOM     98  C   UNL     1      -5.365  10.378 142.727  0.00  0.00    +0.000 C 
BRANCH  97  99
ATOM     99  O   UNL     1      -5.834   8.381 143.014  0.00  0.00    +0.000 OA
ATOM    100  H   UNL     1      -4.856   7.951 143.043  0.00  0.00    +0.000 HD
ENDBRANCH  97  99
ENDBRANCH  22  97
BRANCH   9 101
ATOM    101  O   UNL     1      -1.552  13.378 140.346  0.00  0.00    +0.000 OA
ATOM    102  H   UNL     1      -1.580  13.761 139.466  0.00  0.00    +0.000 HD
ENDBRANCH   9 101
BRANCH  18 103
ATOM    103  C   UNL     1      -4.161   8.752 138.431  0.00  0.00    +0.000 C 
BRANCH 103 104
ATOM    104  C   UNL     1      -3.579   9.881 137.115  0.00  0.00    +0.000 C 
ATOM    105  N   UNL     1      -1.635   9.320 136.944  0.00  0.00    +0.000 N 
ATOM    106  O   UNL     1      -4.136  10.613 136.336  0.00  0.00    +0.000 OA
ATOM    107  H   UNL     1      -1.272   8.753 137.818  0.00  0.00    +0.000 HD
ATOM    108  H   UNL     1      -1.049   9.813 136.379  0.00  0.00    +0.000 HD
ENDBRANCH 103 104
ENDBRANCH  18 103
TORSDOF 22
ENDMDL
MODEL 8
REMARK VINA RESULT:     -10.4      2.475      8.097
REMARK  Name = CHEMBL1790719
REMARK  25 active torsions:
REMARK  status: ('A' for Active; 'I' for Inactive)
REMARK    1  A    between atoms: C_1  and  C_2
REMARK    2  A    between atoms: C_2  and  C_3
REMARK    3  A    between atoms: C_3  and  C_4
REMARK    4  A    between atoms: C_3  and  C_5
REMARK    5  A    between atoms: C_9  and  C_10
REMARK    6  A    between atoms: C_13  and  O_14
REMARK    7  A    between atoms: C_20  and  O_21
REMARK    8  A    between atoms: C_26  and  C_27
REMARK    9  A    between atoms: C_33  and  C_34
REMARK   10  A    between atoms: N_36  and  C_37
REMARK   11  A    between atoms: C_37  and  C_38
REMARK   12  A    between atoms: C_37  and  C_69
REMARK   13  A    between atoms: C_38  and  C_39
REMARK   14  A    between atoms: C_39  and  C_40
REMARK   15  A    between atoms: C_40  and  N_41
REMARK   16  A    between atoms: C_42  and  C_44
REMARK   17  A    between atoms: C_57  and  O_58
REMARK   18  A    between atoms: C_64  and  O_65
REMARK   19  A    between atoms: N_71  and  C_72
REMARK   20  A    between atoms: C_72  and  N_73
REMARK   21  A    between atoms: C_77  and  C_78
REMARK   22  A    between atoms: C_78  and  C_79
REMARK   23  A    between atoms: C_85  and  C_86
REMARK   24  A    between atoms: C_86  and  C_87
REMARK   25  A    between atoms: C_86  and  O_88
REMARK                            x       y       z     vdW  Elec       q    Type
REMARK                         _______ _______ _______ _____ _____    ______ ____
ROOT
ATOM      1  C   UNL     1      -6.589  -2.249 126.130  0.00  0.00    +0.000 C 
ATOM      2  N   UNL     1      -5.149  -2.670 127.742  0.00  0.00    +0.000 N 
ATOM      3  C   UNL     1      -3.898  -3.156 129.418  0.00  0.00    +0.000 C 
ATOM      4  O   UNL     1      -2.408  -3.017 129.895  0.00  0.00    +0.000 OA
ATOM      5  C   UNL     1      -3.669  -3.204 131.568  0.00  0.00    +0.000 C 
ATOM      6  N   UNL     1      -3.635  -1.890 132.750  0.00  0.00    +0.000 N 
ATOM      7  C   UNL     1      -3.543  -0.631 132.226  0.00  0.00    +0.000 C 
ATOM      8  O   UNL     1      -3.709   0.404 132.854  0.00  0.00    +0.000 OA
ATOM      9  C   UNL     1      -3.361  -0.456 130.753  0.00  0.00    +0.000 C 
ATOM     10  C   UNL     1      -4.506  -0.049 129.933  0.00  0.00    +0.000 C 
ATOM     11  S   UNL     1      -4.354   1.515 130.531  0.00  0.00    +0.000 S 
ATOM     12  S   UNL     1      -5.392   2.050 128.970  0.00  0.00    +0.000 S 
ATOM     13  C   UNL     1      -6.468   4.496 129.468  0.00  0.00    +0.000 C 
ATOM     14  C   UNL     1      -7.714   4.928 128.900  0.00  0.00    +0.000 C 
ATOM     15  N   UNL     1      -7.547   4.699 127.492  0.00  0.00    +0.000 N 
ATOM     16  C   UNL     1      -7.841   3.382 126.911  0.00  0.00    +0.000 C 
ATOM     17  O   UNL     1      -7.955   3.250 125.657  0.00  0.00    +0.000 OA
ATOM     18  C   UNL     1      -7.541   2.114 127.781  0.00  0.00    +0.000 C 
ATOM     19  N   UNL     1      -8.460   1.229 127.268  0.00  0.00    +0.000 N 
ATOM     20  C   UNL     1      -8.420   0.787 125.978  0.00  0.00    +0.000 C 
ATOM     21  O   UNL     1      -9.382   0.130 125.594  0.00  0.00    +0.000 OA
ATOM     22  C   UNL     1      -7.180   1.097 125.034  0.00  0.00    +0.000 C 
ATOM     23  N   UNL     1      -6.476  -0.112 124.446  0.00  0.00    +0.000 N 
ATOM     24  C   UNL     1      -6.547  -1.481 124.483  0.00  0.00    +0.000 C 
ATOM     25  O   UNL     1      -6.486  -2.117 123.411  0.00  0.00    +0.000 OA
ATOM     26  H   UNL     1      -4.026  -3.301 128.363  0.00  0.00    +0.000 HD
ATOM     27  H   UNL     1      -3.836  -1.870 133.823  0.00  0.00    +0.000 HD
ATOM     28  H   UNL     1      -7.276   5.549 126.992  0.00  0.00    +0.000 HD
ATOM     29  H   UNL     1      -9.199   1.057 127.914  0.00  0.00    +0.000 HD
ATOM     30  H   UNL     1      -5.548  -0.153 124.794  0.00  0.00    +0.000 HD
ENDROOT
BRANCH  14  31
ATOM     31  C   UNL     1      -9.141   4.278 129.602  0.00  0.00    +0.000 C 
ATOM     32  O   UNL     1      -9.592   3.116 129.693  0.00  0.00    +0.000 OA
ATOM     33  N   UNL     1     -10.003   5.187 129.959  0.00  0.00    +0.000 N 
ATOM     34  C   UNL     1     -10.262   6.472 129.423  0.00  0.00    +0.000 C 
ATOM     35  C   UNL     1     -10.533   7.195 130.706  0.00  0.00    +0.000 C 
ATOM     36  C   UNL     1     -11.336   6.172 131.525  0.00  0.00    +0.000 C 
ATOM     37  C   UNL     1     -10.784   4.836 131.093  0.00  0.00    +0.000 C 
BRANCH  37  38
ATOM     38  C   UNL     1      -9.994   4.214 132.245  0.00  0.00    +0.000 C 
ATOM     39  O   UNL     1     -10.266   3.028 132.452  0.00  0.00    +0.000 OA
ATOM     40  N   UNL     1      -9.147   4.988 133.042  0.00  0.00    +0.000 N 
ATOM     41  H   UNL     1      -9.069   5.993 132.919  0.00  0.00    +0.000 HD
BRANCH  40  42
ATOM     42  C   UNL     1      -8.284   4.415 134.120  0.00  0.00    +0.000 C 
BRANCH  42  43
ATOM     43  C   UNL     1      -7.667   5.538 135.029  0.00  0.00    +0.000 C 
ATOM     44  O   UNL     1      -6.677   6.153 134.616  0.00  0.00    +0.000 OA
ATOM     45  N   UNL     1      -8.275   5.833 136.260  0.00  0.00    +0.000 N 
ATOM     46  H   UNL     1      -9.080   5.318 136.597  0.00  0.00    +0.000 HD
BRANCH  45  47
ATOM     47  C   UNL     1      -7.724   6.851 137.134  0.00  0.00    +0.000 C 
BRANCH  47  48
ATOM     48  N   UNL     1      -6.374   6.498 137.535  0.00  0.00    +0.000 NA
ATOM     49  H   UNL     1      -5.693   7.062 137.037  0.00  0.00    +0.000 HD
ATOM     50  H   UNL     1      -6.185   5.522 137.264  0.00  0.00    +0.000 HD
ENDBRANCH  47  48
ENDBRANCH  45  47
ENDBRANCH  42  43
BRANCH  42  51
ATOM     51  C   UNL     1      -7.164   3.587 133.510  0.00  0.00    +0.000 C 
BRANCH  51  52
ATOM     52  C   UNL     1      -6.650   2.528 134.456  0.00  0.00    +0.000 C 
BRANCH  52  53
ATOM     53  C   UNL     1      -5.239   2.705 134.910  0.00  0.00    +0.000 C 
BRANCH  53  54
ATOM     54  N   UNL     1      -4.741   4.112 134.719  0.00  0.00    +0.000 N 
ATOM     55  C   UNL     1      -3.641   4.426 133.873  0.00  0.00    +0.000 C 
ATOM     56  O   UNL     1      -3.104   3.442 133.319  0.00  0.00    +0.000 OA
ATOM     57  H   UNL     1      -5.241   4.819 135.232  0.00  0.00    +0.000 HD
BRANCH  55  58
ATOM     58  C   UNL     1      -2.832   5.969 133.660  0.00  0.00    +0.000 A 
ATOM     59  C   UNL     1      -2.236   6.387 134.711  0.00  0.00    +0.000 A 
ATOM     60  C   UNL     1      -1.143   7.512 134.576  0.00  0.00    +0.000 A 
ATOM     61  C   UNL     1      -1.016   8.342 135.444  0.00  0.00    +0.000 A 
ATOM     62  C   UNL     1      -1.284   8.833 134.298  0.00  0.00    +0.000 A 
ATOM     63  C   UNL     1      -2.296   7.345 133.211  0.00  0.00    +0.000 A 
ATOM     64  C   UNL     1      -0.290  10.092 135.729  0.00  0.00    +0.000 C 
ATOM     65  O   UNL     1       0.409   9.070 136.689  0.00  0.00    +0.000 OA
ATOM     66  C   UNL     1      -0.675   8.218 136.753  0.00  0.00    +0.000 C 
ATOM     67  O   UNL     1      -1.303   7.272 137.214  0.00  0.00    +0.000 OA
ATOM     68  C   UNL     1       1.014  11.379 135.232  0.00  0.00    +0.000 A 
ATOM     69  C   UNL     1       2.445  11.366 135.028  0.00  0.00    +0.000 A 
ATOM     70  C   UNL     1       3.177  12.485 134.460  0.00  0.00    +0.000 A 
ATOM     71  C   UNL     1       2.516  13.679 134.205  0.00  0.00    +0.000 A 
ATOM     72  C   UNL     1       1.190  13.804 134.580  0.00  0.00    +0.000 A 
ATOM     73  C   UNL     1       0.485  12.707 135.114  0.00  0.00    +0.000 A 
ATOM     74  O   UNL     1      -0.841  12.937 135.402  0.00  0.00    +0.000 OA
ATOM     75  C   UNL     1      -1.185  12.534 136.652  0.00  0.00    +0.000 A 
ATOM     76  C   UNL     1      -2.516  12.870 137.122  0.00  0.00    +0.000 A 
ATOM     77  C   UNL     1      -2.995  12.680 138.417  0.00  0.00    +0.000 A 
ATOM     78  C   UNL     1      -2.049  12.361 139.355  0.00  0.00    +0.000 A 
ATOM     79  C   UNL     1      -0.732  11.905 138.822  0.00  0.00    +0.000 A 
ATOM     80  C   UNL     1      -0.478  11.496 137.198  0.00  0.00    +0.000 A 
BRANCH  77  81
ATOM     81  O   UNL     1      -4.314  12.810 138.762  0.00  0.00    +0.000 OA
ATOM     82  H   UNL     1      -4.834  13.418 138.202  0.00  0.00    +0.000 HD
ENDBRANCH  77  81
BRANCH  71  83
ATOM     83  O   UNL     1       3.074  14.773 133.609  0.00  0.00    +0.000 OA
ATOM     84  H   UNL     1       4.039  14.722 133.509  0.00  0.00    +0.000 HD
ENDBRANCH  71  83
ENDBRANCH  55  58
ENDBRANCH  53  54
ENDBRANCH  52  53
ENDBRANCH  51  52
ENDBRANCH  42  51
ENDBRANCH  40  42
ENDBRANCH  37  38
ENDBRANCH  14  31
BRANCH   5  85
ATOM     85  C   UNL     1      -5.006  -3.603 131.449  0.00  0.00    +0.000 A 
ATOM     86  C   UNL     1      -5.746  -2.436 131.527  0.00  0.00    +0.000 A 
ATOM     87  C   UNL     1      -6.842  -2.519 132.338  0.00  0.00    +0.000 A 
ATOM     88  C   UNL     1      -7.144  -3.725 132.970  0.00  0.00    +0.000 A 
ATOM     89  C   UNL     1      -6.293  -4.808 132.927  0.00  0.00    +0.000 A 
ATOM     90  C   UNL     1      -5.220  -4.781 132.117  0.00  0.00    +0.000 A 
BRANCH  88  91
ATOM     91  O   UNL     1      -8.282  -3.941 133.667  0.00  0.00    +0.000 OA
ATOM     92  H   UNL     1      -8.515  -3.193 134.231  0.00  0.00    +0.000 HD
ENDBRANCH  88  91
ENDBRANCH   5  85
BRANCH   1  93
ATOM     93  C   UNL     1      -8.262  -2.074 124.408  0.00  0.00    +0.000 C 
ATOM     94  C   UNL     1      -9.132  -0.839 122.916  0.00  0.00    +0.000 C 
BRANCH  93  96
ATOM     95  C   UNL     1      -9.710  -4.067 123.946  0.00  0.00    +0.000 C 
ATOM     96  C   UNL     1      -9.734  -2.870 123.172  0.00  0.00    +0.000 C 
ENDBRANCH  93  96
ENDBRANCH   1  93
BRANCH  22  97
ATOM     97  C   UNL     1      -6.001   2.001 125.686  0.00  0.00    +0.000 C 
ATOM     98  C   UNL     1      -4.761   1.281 125.830  0.00  0.00    +0.000 C 
BRANCH  97  99
ATOM     99  O   UNL     1      -5.078   3.160 125.020  0.00  0.00    +0.000 OA
ATOM    100  H   UNL     1      -4.072   3.156 125.384  0.00  0.00    +0.000 HD
ENDBRANCH  97  99
ENDBRANCH  22  97
BRANCH   9 101
ATOM    101  O   UNL     1      -3.496  -1.497 130.034  0.00  0.00    +0.000 OA
ATOM    102  H   UNL     1      -3.113  -1.223 129.197  0.00  0.00    +0.000 HD
ENDBRANCH   9 101
BRANCH  18 103
ATOM    103  C   UNL     1      -7.591   2.313 129.266  0.00  0.00    +0.000 C 
BRANCH 103 104
ATOM    104  C   UNL     1      -7.938   1.037 130.531  0.00  0.00    +0.000 C 
ATOM    105  N   UNL     1      -7.905  -0.653 129.406  0.00  0.00    +0.000 N 
ATOM    106  O   UNL     1      -7.959   1.040 131.736  0.00  0.00    +0.000 OA
ATOM    107  H   UNL     1      -8.017  -0.454 128.327  0.00  0.00    +0.000 HD
ATOM    108  H   UNL     1      -8.148  -1.485 129.797  0.00  0.00    +0.000 HD
ENDBRANCH 103 104
ENDBRANCH  18 103
TORSDOF 22
ENDMDL
MODEL 9
REMARK VINA RESULT:     -10.2      3.467     10.266
REMARK  Name = CHEMBL1790719
REMARK  25 active torsions:
REMARK  status: ('A' for Active; 'I' for Inactive)
REMARK    1  A    between atoms: C_1  and  C_2
REMARK    2  A    between atoms: C_2  and  C_3
REMARK    3  A    between atoms: C_3  and  C_4
REMARK    4  A    between atoms: C_3  and  C_5
REMARK    5  A    between atoms: C_9  and  C_10
REMARK    6  A    between atoms: C_13  and  O_14
REMARK    7  A    between atoms: C_20  and  O_21
REMARK    8  A    between atoms: C_26  and  C_27
REMARK    9  A    between atoms: C_33  and  C_34
REMARK   10  A    between atoms: N_36  and  C_37
REMARK   11  A    between atoms: C_37  and  C_38
REMARK   12  A    between atoms: C_37  and  C_69
REMARK   13  A    between atoms: C_38  and  C_39
REMARK   14  A    between atoms: C_39  and  C_40
REMARK   15  A    between atoms: C_40  and  N_41
REMARK   16  A    between atoms: C_42  and  C_44
REMARK   17  A    between atoms: C_57  and  O_58
REMARK   18  A    between atoms: C_64  and  O_65
REMARK   19  A    between atoms: N_71  and  C_72
REMARK   20  A    between atoms: C_72  and  N_73
REMARK   21  A    between atoms: C_77  and  C_78
REMARK   22  A    between atoms: C_78  and  C_79
REMARK   23  A    between atoms: C_85  and  C_86
REMARK   24  A    between atoms: C_86  and  C_87
REMARK   25  A    between atoms: C_86  and  O_88
REMARK                            x       y       z     vdW  Elec       q    Type
REMARK                         _______ _______ _______ _____ _____    ______ ____
ROOT
ATOM      1  C   UNL     1      -6.755  -2.210 126.234  0.00  0.00    +0.000 C 
ATOM      2  N   UNL     1      -5.259  -2.913 127.690  0.00  0.00    +0.000 N 
ATOM      3  C   UNL     1      -3.955  -3.661 129.223  0.00  0.00    +0.000 C 
ATOM      4  O   UNL     1      -2.427  -3.735 129.579  0.00  0.00    +0.000 OA
ATOM      5  C   UNL     1      -3.570  -3.887 131.338  0.00  0.00    +0.000 C 
ATOM      6  N   UNL     1      -3.283  -2.674 132.591  0.00  0.00    +0.000 N 
ATOM      7  C   UNL     1      -3.075  -1.401 132.138  0.00  0.00    +0.000 C 
ATOM      8  O   UNL     1      -3.062  -0.399 132.839  0.00  0.00    +0.000 OA
ATOM      9  C   UNL     1      -2.986  -1.145 130.668  0.00  0.00    +0.000 C 
ATOM     10  C   UNL     1      -4.130  -0.547 129.974  0.00  0.00    +0.000 C 
ATOM     11  S   UNL     1      -3.739   0.941 130.650  0.00  0.00    +0.000 S 
ATOM     12  S   UNL     1      -4.818   1.705 129.217  0.00  0.00    +0.000 S 
ATOM     13  C   UNL     1      -5.541   4.220 129.951  0.00  0.00    +0.000 C 
ATOM     14  C   UNL     1      -6.762   4.836 129.518  0.00  0.00    +0.000 C 
ATOM     15  N   UNL     1      -6.733   4.689 128.090  0.00  0.00    +0.000 N 
ATOM     16  C   UNL     1      -7.232   3.460 127.457  0.00  0.00    +0.000 C 
ATOM     17  O   UNL     1      -7.457   3.432 126.211  0.00  0.00    +0.000 OA
ATOM     18  C   UNL     1      -7.027   2.108 128.220  0.00  0.00    +0.000 C 
ATOM     19  N   UNL     1      -8.086   1.377 127.733  0.00  0.00    +0.000 N 
ATOM     20  C   UNL     1      -8.199   1.025 126.420  0.00  0.00    +0.000 C 
ATOM     21  O   UNL     1      -9.262   0.516 126.080  0.00  0.00    +0.000 OA
ATOM     22  C   UNL     1      -7.006   1.251 125.396  0.00  0.00    +0.000 C 
ATOM     23  N   UNL     1      -6.505   0.011 124.678  0.00  0.00    +0.000 N 
ATOM     24  C   UNL     1      -6.743  -1.339 124.638  0.00  0.00    +0.000 C 
ATOM     25  O   UNL     1      -6.843  -1.901 123.528  0.00  0.00    +0.000 OA
ATOM     26  H   UNL     1      -4.179  -3.716 128.175  0.00  0.00    +0.000 HD
ATOM     27  H   UNL     1      -3.398  -2.705 133.676  0.00  0.00    +0.000 HD
ATOM     28  H   UNL     1      -6.397   5.533 127.621  0.00  0.00    +0.000 HD
ATOM     29  H   UNL     1      -8.789   1.249 128.428  0.00  0.00    +0.000 HD
ATOM     30  H   UNL     1      -5.565  -0.165 124.944  0.00  0.00    +0.000 HD
ENDROOT
BRANCH  14  31
ATOM     31  C   UNL     1      -8.202   4.313 130.296  0.00  0.00    +0.000 C 
ATOM     32  O   UNL     1      -8.578   3.205 130.735  0.00  0.00    +0.000 OA
ATOM     33  N   UNL     1      -9.154   5.202 130.276  0.00  0.00    +0.000 N 
ATOM     34  C   UNL     1      -9.449   6.214 129.330  0.00  0.00    +0.000 C 
ATOM     35  C   UNL     1      -9.889   7.283 130.282  0.00  0.00    +0.000 C 
ATOM     36  C   UNL     1     -10.695   6.507 131.336  0.00  0.00    +0.000 C 
ATOM     37  C   UNL     1     -10.013   5.162 131.407  0.00  0.00    +0.000 C 
BRANCH  37  38
ATOM     38  C   UNL     1      -9.296   5.024 132.749  0.00  0.00    +0.000 C 
ATOM     39  O   UNL     1      -9.747   4.125 133.465  0.00  0.00    +0.000 OA
ATOM     40  N   UNL     1      -8.309   5.934 133.140  0.00  0.00    +0.000 N 
ATOM     41  H   UNL     1      -8.076   6.744 132.574  0.00  0.00    +0.000 HD
BRANCH  40  42
ATOM     42  C   UNL     1      -7.515   5.792 134.398  0.00  0.00    +0.000 C 
BRANCH  42  43
ATOM     43  C   UNL     1      -6.458   4.634 134.290  0.00  0.00    +0.000 C 
ATOM     44  O   UNL     1      -6.743   3.529 134.767  0.00  0.00    +0.000 OA
ATOM     45  N   UNL     1      -5.243   4.877 133.628  0.00  0.00    +0.000 N 
ATOM     46  H   UNL     1      -5.011   5.788 133.250  0.00  0.00    +0.000 HD
BRANCH  45  47
ATOM     47  C   UNL     1      -4.236   3.838 133.525  0.00  0.00    +0.000 C 
BRANCH  47  48
ATOM     48  N   UNL     1      -3.020   4.241 134.207  0.00  0.00    +0.000 NA
ATOM     49  H   UNL     1      -2.436   3.434 134.407  0.00  0.00    +0.000 HD
ATOM     50  H   UNL     1      -3.264   4.647 135.122  0.00  0.00    +0.000 HD
ENDBRANCH  47  48
ENDBRANCH  45  47
ENDBRANCH  42  43
BRANCH  42  51
ATOM     51  C   UNL     1      -8.440   5.522 135.575  0.00  0.00    +0.000 C 
BRANCH  51  52
ATOM     52  C   UNL     1      -8.142   6.413 136.758  0.00  0.00    +0.000 C 
BRANCH  52  53
ATOM     53  C   UNL     1      -6.708   6.476 137.165  0.00  0.00    +0.000 C 
BRANCH  53  54
ATOM     54  N   UNL     1      -6.169   5.141 137.599  0.00  0.00    +0.000 N 
ATOM     55  C   UNL     1      -4.839   4.722 137.310  0.00  0.00    +0.000 C 
ATOM     56  O   UNL     1      -4.162   5.537 136.646  0.00  0.00    +0.000 OA
ATOM     57  H   UNL     1      -6.812   4.562 138.111  0.00  0.00    +0.000 HD
BRANCH  55  58
ATOM     58  C   UNL     1      -4.102   3.155 137.591  0.00  0.00    +0.000 A 
ATOM     59  C   UNL     1      -4.589   2.219 136.870  0.00  0.00    +0.000 A 
ATOM     60  C   UNL     1      -3.779   0.880 136.701  0.00  0.00    +0.000 A 
ATOM     61  C   UNL     1      -4.361  -0.175 136.613  0.00  0.00    +0.000 A 
ATOM     62  C   UNL     1      -3.549  -0.117 137.594  0.00  0.00    +0.000 A 
ATOM     63  C   UNL     1      -3.339   1.913 138.101  0.00  0.00    +0.000 A 
ATOM     64  C   UNL     1      -4.064  -2.056 136.824  0.00  0.00    +0.000 C 
ATOM     65  O   UNL     1      -4.510  -1.756 135.353  0.00  0.00    +0.000 OA
ATOM     66  C   UNL     1      -5.240  -0.632 135.685  0.00  0.00    +0.000 C 
ATOM     67  O   UNL     1      -6.038   0.269 135.451  0.00  0.00    +0.000 OA
ATOM     68  C   UNL     1      -2.827  -3.493 136.754  0.00  0.00    +0.000 A 
ATOM     69  C   UNL     1      -1.838  -3.953 135.804  0.00  0.00    +0.000 A 
ATOM     70  C   UNL     1      -0.882  -5.007 136.100  0.00  0.00    +0.000 A 
ATOM     71  C   UNL     1      -0.978  -5.705 137.295  0.00  0.00    +0.000 A 
ATOM     72  C   UNL     1      -2.039  -5.438 138.144  0.00  0.00    +0.000 A 
ATOM     73  C   UNL     1      -2.950  -4.403 137.856  0.00  0.00    +0.000 A 
ATOM     74  O   UNL     1      -3.932  -4.198 138.798  0.00  0.00    +0.000 OA
ATOM     75  C   UNL     1      -5.175  -4.137 138.256  0.00  0.00    +0.000 A 
ATOM     76  C   UNL     1      -6.303  -4.082 139.168  0.00  0.00    +0.000 A 
ATOM     77  C   UNL     1      -7.646  -4.170 138.809  0.00  0.00    +0.000 A 
ATOM     78  C   UNL     1      -7.888  -4.563 137.519  0.00  0.00    +0.000 A 
ATOM     79  C   UNL     1      -6.725  -4.488 136.587  0.00  0.00    +0.000 A 
ATOM     80  C   UNL     1      -5.281  -3.688 136.967  0.00  0.00    +0.000 A 
BRANCH  77  81
ATOM     81  O   UNL     1      -8.677  -3.901 139.668  0.00  0.00    +0.000 OA
ATOM     82  H   UNL     1      -9.429  -4.524 139.627  0.00  0.00    +0.000 HD
ENDBRANCH  77  81
BRANCH  71  83
ATOM     83  O   UNL     1      -0.101  -6.662 137.717  0.00  0.00    +0.000 OA
ATOM     84  H   UNL     1       0.686  -6.311 138.166  0.00  0.00    +0.000 HD
ENDBRANCH  71  83
ENDBRANCH  55  58
ENDBRANCH  53  54
ENDBRANCH  52  53
ENDBRANCH  51  52
ENDBRANCH  42  51
ENDBRANCH  40  42
ENDBRANCH  37  38
ENDBRANCH  14  31
BRANCH   5  85
ATOM     85  C   UNL     1      -4.952  -4.115 131.309  0.00  0.00    +0.000 A 
ATOM     86  C   UNL     1      -5.529  -2.859 131.230  0.00  0.00    +0.000 A 
ATOM     87  C   UNL     1      -6.592  -2.677 132.069  0.00  0.00    +0.000 A 
ATOM     88  C   UNL     1      -7.023  -3.728 132.877  0.00  0.00    +0.000 A 
ATOM     89  C   UNL     1      -6.322  -4.911 132.975  0.00  0.00    +0.000 A 
ATOM     90  C   UNL     1      -5.290  -5.145 132.147  0.00  0.00    +0.000 A 
BRANCH  88  91
ATOM     91  O   UNL     1      -8.150  -3.687 133.623  0.00  0.00    +0.000 OA
ATOM     92  H   UNL     1      -8.943  -3.867 133.101  0.00  0.00    +0.000 HD
ENDBRANCH  88  91
ENDBRANCH   5  85
BRANCH   1  93
ATOM     93  C   UNL     1      -8.519  -1.716 124.672  0.00  0.00    +0.000 C 
ATOM     94  C   UNL     1      -9.620  -0.195 123.682  0.00  0.00    +0.000 C 
BRANCH  93  96
ATOM     95  C   UNL     1      -9.745  -3.626 123.607  0.00  0.00    +0.000 C 
ATOM     96  C   UNL     1      -9.929  -2.261 123.243  0.00  0.00    +0.000 C 
ENDBRANCH  93  96
ENDBRANCH   1  93
BRANCH  22  97
ATOM     97  C   UNL     1      -5.677   1.960 126.000  0.00  0.00    +0.000 C 
ATOM     98  C   UNL     1      -4.495   1.149 125.848  0.00  0.00    +0.000 C 
BRANCH  97  99
ATOM     99  O   UNL     1      -4.756   3.152 125.392  0.00  0.00    +0.000 OA
ATOM    100  H   UNL     1      -5.321   4.013 125.103  0.00  0.00    +0.000 HD
ENDBRANCH  97  99
ENDBRANCH  22  97
BRANCH   9 101
ATOM    101  O   UNL     1      -3.303  -2.109 129.901  0.00  0.00    +0.000 OA
ATOM    102  H   UNL     1      -2.449  -2.482 129.671  0.00  0.00    +0.000 HD
ENDBRANCH   9 101
BRANCH  18 103
ATOM    103  C   UNL     1      -6.938   2.207 129.714  0.00  0.00    +0.000 C 
BRANCH 103 104
ATOM    104  C   UNL     1      -7.467   0.944 130.927  0.00  0.00    +0.000 C 
ATOM    105  N   UNL     1      -6.691   1.697 132.646  0.00  0.00    +0.000 N 
ATOM    106  O   UNL     1      -8.246   0.025 130.890  0.00  0.00    +0.000 OA
ATOM    107  H   UNL     1      -5.902   2.448 132.469  0.00  0.00    +0.000 HD
ATOM    108  H   UNL     1      -6.737   1.189 133.448  0.00  0.00    +0.000 HD
ENDBRANCH 103 104
ENDBRANCH  18 103
TORSDOF 22
ENDMDL
