MODEL 1
REMARK VINA RESULT:      -9.1      0.000      0.000
REMARK  Name = CHEMBL2037513
REMARK  12 active torsions:
REMARK  status: ('A' for Active; 'I' for Inactive)
REMARK    1  A    between atoms: C_1  and  C_2
REMARK    2  A    between atoms: C_2  and  C_3
REMARK    3  A    between atoms: C_3  and  C_4
REMARK    4  A    between atoms: C_3  and  C_6
REMARK    5  A    between atoms: C_4  and  C_5
REMARK    6  A    between atoms: C_10  and  C_11
REMARK    7  A    between atoms: N_22  and  C_23
REMARK    8  A    between atoms: C_23  and  C_24
REMARK    9  A    between atoms: C_23  and  C_29
REMARK   10  A    between atoms: N_26  and  C_27
REMARK   11  A    between atoms: N_26  and  C_28
REMARK   12  A    between atoms: C_32  and  C_33
REMARK                            x       y       z     vdW  Elec       q    Type
REMARK                         _______ _______ _______ _____ _____    ______ ____
ROOT
ATOM      1  C   UNK A   2      -5.355   4.419 128.114  0.00  0.00    +0.000 C 
ATOM      2  C   UNK A   2      -5.362   3.908 129.620  0.00  0.00    +0.000 C 
ATOM      3  O   UNK A   2      -4.442   3.863 130.409  0.00  0.00    +0.000 OA
ATOM      4  N   UNK A   1      -6.585   3.499 130.037  0.00  0.00    +0.000 N 
ATOM      5  C   UNK A   1      -7.761   3.640 129.214  0.00  0.00    +0.000 C 
ATOM      6  C   UNK A   1      -7.462   3.110 127.830  0.00  0.00    +0.000 C 
ATOM      7  O   UNK A   1      -8.357   2.587 127.196  0.00  0.00    +0.000 OA
ATOM      8  N   UNK A   2      -6.151   3.352 127.412  0.00  0.00    +0.000 N 
ATOM      9  H   UNK A   1      -6.598   3.183 131.000  0.00  0.00    +0.000 HD
ENDROOT
BRANCH   5  10
ATOM     10  C   UNK A   1      -8.959   2.827 129.725  0.00  0.00    +0.000 C 
ATOM     11  C   UNK A   1      -9.989   3.809 130.272  0.00  0.00    +0.000 C 
ATOM     12  C   UNK A   1      -9.566   3.875 131.709  0.00  0.00    +0.000 A 
ATOM     13  C   UNK A   1      -9.711   4.951 132.564  0.00  0.00    +0.000 A 
ATOM     14  C   UNK A   1      -9.084   4.892 133.809  0.00  0.00    +0.000 A 
ATOM     15  C   UNK A   1      -8.307   3.782 134.176  0.00  0.00    +0.000 A 
ATOM     16  C   UNK A   1      -8.121   2.718 133.292  0.00  0.00    +0.000 A 
ATOM     17  C   UNK A   1      -8.759   2.779 132.064  0.00  0.00    +0.000 A 
ATOM     18  C   UNK A   1      -8.569   1.868 130.891  0.00  0.00    +0.000 C 
ENDBRANCH   5  10
BRANCH   1  19
ATOM     19  C   UNK A   2      -3.894   4.533 127.624  0.00  0.00    +0.000 C 
BRANCH  19  21
ATOM     20  C   UNK A   2      -2.076   6.500 129.122  0.00  0.00    +0.000 C 
ATOM     21  C   UNK A   2      -2.946   6.037 127.867  0.00  0.00    +0.000 C 
ENDBRANCH  19  21
BRANCH  19  22
ATOM     22  C   UNK A   2      -2.996   3.123 127.657  0.00  0.00    +0.000 C 
ATOM     23  C   UNK A   2      -1.721   2.873 126.726  0.00  0.00    +0.000 C 
ENDBRANCH  19  22
ENDBRANCH   1  19
BRANCH   8  24
ATOM     24  C   UNK A   0      -5.559   2.564 126.312  0.00  0.00    +0.000 C 
BRANCH  24  25
ATOM     25  C   UNK A   0      -5.911   3.033 124.861  0.00  0.00    +0.000 A 
ATOM     26  C   UNK A   0      -6.824   2.296 124.057  0.00  0.00    +0.000 A 
ATOM     27  C   UNK A   0      -6.938   2.562 122.694  0.00  0.00    +0.000 A 
ATOM     28  C   UNK A   0      -6.272   3.666 122.197  0.00  0.00    +0.000 A 
ATOM     29  C   UNK A   0      -6.310   4.049 120.763  0.00  0.00    +0.000 C 
ATOM     30  N   UNK A   0      -5.541   4.489 122.966  0.00  0.00    +0.000 NA
ATOM     31  C   UNK A   0      -5.361   4.144 124.254  0.00  0.00    +0.000 A 
ENDBRANCH  24  25
BRANCH  24  32
ATOM     32  C   UNK A   0      -5.408   0.778 126.500  0.00  0.00    +0.000 C 
ATOM     33  O   UNK A   0      -4.671   0.225 125.662  0.00  0.00    +0.000 OA
ATOM     34  N   UNK A   0      -5.895  -0.180 127.463  0.00  0.00    +0.000 N 
ATOM     35  C   UNK A   0      -6.676  -0.306 128.696  0.00  0.00    +0.000 C 
ATOM     36  C   UNK A   0      -5.668  -1.569 127.222  0.00  0.00    +0.000 C 
ENDBRANCH  24  32
ENDBRANCH   8  24
TORSDOF 7
ENDMDL
MODEL 2
REMARK VINA RESULT:      -9.0      2.474      4.491
REMARK  Name = CHEMBL2037513
REMARK  12 active torsions:
REMARK  status: ('A' for Active; 'I' for Inactive)
REMARK    1  A    between atoms: C_1  and  C_2
REMARK    2  A    between atoms: C_2  and  C_3
REMARK    3  A    between atoms: C_3  and  C_4
REMARK    4  A    between atoms: C_3  and  C_6
REMARK    5  A    between atoms: C_4  and  C_5
REMARK    6  A    between atoms: C_10  and  C_11
REMARK    7  A    between atoms: N_22  and  C_23
REMARK    8  A    between atoms: C_23  and  C_24
REMARK    9  A    between atoms: C_23  and  C_29
REMARK   10  A    between atoms: N_26  and  C_27
REMARK   11  A    between atoms: N_26  and  C_28
REMARK   12  A    between atoms: C_32  and  C_33
REMARK                            x       y       z     vdW  Elec       q    Type
REMARK                         _______ _______ _______ _____ _____    ______ ____
ROOT
ATOM      1  C   UNK A   2      -7.114   2.604 126.859  0.00  0.00    +0.000 C 
ATOM      2  C   UNK A   2      -6.822   3.977 127.606  0.00  0.00    +0.000 C 
ATOM      3  O   UNK A   2      -6.069   4.871 127.284  0.00  0.00    +0.000 OA
ATOM      4  N   UNK A   1      -7.554   4.133 128.737  0.00  0.00    +0.000 N 
ATOM      5  C   UNK A   1      -8.570   3.187 129.127  0.00  0.00    +0.000 C 
ATOM      6  C   UNK A   1      -8.001   1.788 129.045  0.00  0.00    +0.000 C 
ATOM      7  O   UNK A   1      -8.394   0.948 129.830  0.00  0.00    +0.000 OA
ATOM      8  N   UNK A   2      -7.099   1.615 127.993  0.00  0.00    +0.000 N 
ATOM      9  H   UNK A   1      -7.381   5.011 129.212  0.00  0.00    +0.000 HD
ENDROOT
BRANCH   5  10
ATOM     10  C   UNK A   1      -9.039   3.365 130.579  0.00  0.00    +0.000 C 
ATOM     11  C   UNK A   1     -10.563   3.394 130.575  0.00  0.00    +0.000 C 
ATOM     12  C   UNK A   1     -10.807   4.868 130.435  0.00  0.00    +0.000 A 
ATOM     13  C   UNK A   1     -11.892   5.471 129.829  0.00  0.00    +0.000 A 
ATOM     14  C   UNK A   1     -11.850   6.851 129.626  0.00  0.00    +0.000 A 
ATOM     15  C   UNK A   1     -10.727   7.604 130.006  0.00  0.00    +0.000 A 
ATOM     16  C   UNK A   1      -9.612   6.985 130.574  0.00  0.00    +0.000 A 
ATOM     17  C   UNK A   1      -9.669   5.618 130.784  0.00  0.00    +0.000 A 
ATOM     18  C   UNK A   1      -8.551   4.711 131.196  0.00  0.00    +0.000 C 
ENDBRANCH   5  10
BRANCH   1  19
ATOM     19  C   UNK A   2      -6.014   2.360 125.802  0.00  0.00    +0.000 C 
BRANCH  19  21
ATOM     20  C   UNK A   2      -3.145   3.068 126.630  0.00  0.00    +0.000 C 
ATOM     21  C   UNK A   2      -4.315   2.040 126.283  0.00  0.00    +0.000 C 
ENDBRANCH  19  21
BRANCH  19  22
ATOM     22  C   UNK A   2      -6.501   1.596 124.396  0.00  0.00    +0.000 C 
ATOM     23  C   UNK A   2      -7.904   0.847 124.244  0.00  0.00    +0.000 C 
ENDBRANCH  19  22
ENDBRANCH   1  19
BRANCH   8  24
ATOM     24  C   UNK A   0      -6.142   0.489 128.004  0.00  0.00    +0.000 C 
BRANCH  24  25
ATOM     25  C   UNK A   0      -6.581  -0.796 127.227  0.00  0.00    +0.000 A 
ATOM     26  C   UNK A   0      -5.692  -1.443 126.325  0.00  0.00    +0.000 A 
ATOM     27  C   UNK A   0      -6.162  -2.420 125.450  0.00  0.00    +0.000 A 
ATOM     28  C   UNK A   0      -7.465  -2.853 125.610  0.00  0.00    +0.000 A 
ATOM     29  C   UNK A   0      -8.082  -3.884 124.737  0.00  0.00    +0.000 C 
ATOM     30  N   UNK A   0      -8.279  -2.388 126.571  0.00  0.00    +0.000 NA
ATOM     31  C   UNK A   0      -7.833  -1.369 127.328  0.00  0.00    +0.000 A 
ENDBRANCH  24  25
BRANCH  24  32
ATOM     32  C   UNK A   0      -5.194   0.165 129.503  0.00  0.00    +0.000 C 
ATOM     33  O   UNK A   0      -4.192   0.890 129.654  0.00  0.00    +0.000 OA
ATOM     34  N   UNK A   0      -5.367  -0.709 130.637  0.00  0.00    +0.000 N 
ATOM     35  C   UNK A   0      -6.264  -1.714 131.215  0.00  0.00    +0.000 C 
ATOM     36  C   UNK A   0      -4.324  -0.784 131.610  0.00  0.00    +0.000 C 
ENDBRANCH  24  32
ENDBRANCH   8  24
TORSDOF 7
ENDMDL
MODEL 3
REMARK VINA RESULT:      -9.0      3.220      6.727
REMARK  Name = CHEMBL2037513
REMARK  12 active torsions:
REMARK  status: ('A' for Active; 'I' for Inactive)
REMARK    1  A    between atoms: C_1  and  C_2
REMARK    2  A    between atoms: C_2  and  C_3
REMARK    3  A    between atoms: C_3  and  C_4
REMARK    4  A    between atoms: C_3  and  C_6
REMARK    5  A    between atoms: C_4  and  C_5
REMARK    6  A    between atoms: C_10  and  C_11
REMARK    7  A    between atoms: N_22  and  C_23
REMARK    8  A    between atoms: C_23  and  C_24
REMARK    9  A    between atoms: C_23  and  C_29
REMARK   10  A    between atoms: N_26  and  C_27
REMARK   11  A    between atoms: N_26  and  C_28
REMARK   12  A    between atoms: C_32  and  C_33
REMARK                            x       y       z     vdW  Elec       q    Type
REMARK                         _______ _______ _______ _____ _____    ______ ____
ROOT
ATOM      1  C   UNK A   2      -8.380   2.452 128.702  0.00  0.00    +0.000 C 
ATOM      2  C   UNK A   2      -8.314   3.911 128.071  0.00  0.00    +0.000 C 
ATOM      3  O   UNK A   2      -7.986   4.238 126.950  0.00  0.00    +0.000 OA
ATOM      4  N   UNK A   1      -8.705   4.882 128.933  0.00  0.00    +0.000 N 
ATOM      5  C   UNK A   1      -9.236   4.577 130.238  0.00  0.00    +0.000 C 
ATOM      6  C   UNK A   1      -8.323   3.587 130.926  0.00  0.00    +0.000 C 
ATOM      7  O   UNK A   1      -8.206   3.636 132.133  0.00  0.00    +0.000 OA
ATOM      8  N   UNK A   2      -7.748   2.661 130.051  0.00  0.00    +0.000 N 
ATOM      9  H   UNK A   1      -8.676   5.812 128.533  0.00  0.00    +0.000 HD
ENDROOT
BRANCH   5  10
ATOM     10  C   UNK A   1      -9.304   5.799 131.166  0.00  0.00    +0.000 C 
ATOM     11  C   UNK A   1     -10.752   5.959 131.619  0.00  0.00    +0.000 C 
ATOM     12  C   UNK A   1     -11.269   6.881 130.554  0.00  0.00    +0.000 A 
ATOM     13  C   UNK A   1     -12.566   6.950 130.082  0.00  0.00    +0.000 A 
ATOM     14  C   UNK A   1     -12.815   7.736 128.956  0.00  0.00    +0.000 A 
ATOM     15  C   UNK A   1     -11.775   8.418 128.305  0.00  0.00    +0.000 A 
ATOM     16  C   UNK A   1     -10.458   8.306 128.754  0.00  0.00    +0.000 A 
ATOM     17  C   UNK A   1     -10.222   7.536 129.880  0.00  0.00    +0.000 A 
ATOM     18  C   UNK A   1      -8.898   7.116 130.438  0.00  0.00    +0.000 C 
ENDBRANCH   5  10
BRANCH   1  19
ATOM     19  C   UNK A   2      -7.606   1.472 127.793  0.00  0.00    +0.000 C 
BRANCH  19  21
ATOM     20  C   UNK A   2      -8.229  -1.336 126.724  0.00  0.00    +0.000 C 
ATOM     21  C   UNK A   2      -8.463   0.240 126.810  0.00  0.00    +0.000 C 
ENDBRANCH  19  21
BRANCH  19  22
ATOM     22  C   UNK A   2      -6.197   2.059 127.111  0.00  0.00    +0.000 C 
ATOM     23  C   UNK A   2      -5.001   1.119 126.619  0.00  0.00    +0.000 C 
ENDBRANCH  19  22
ENDBRANCH   1  19
BRANCH   8  24
ATOM     24  C   UNK A   0      -6.537   1.912 130.445  0.00  0.00    +0.000 C 
BRANCH  24  25
ATOM     25  C   UNK A   0      -6.771   0.620 131.296  0.00  0.00    +0.000 A 
ATOM     26  C   UNK A   0      -6.945  -0.645 130.670  0.00  0.00    +0.000 A 
ATOM     27  C   UNK A   0      -7.407  -1.737 131.401  0.00  0.00    +0.000 A 
ATOM     28  C   UNK A   0      -7.518  -1.592 132.772  0.00  0.00    +0.000 A 
ATOM     29  C   UNK A   0      -8.003  -2.680 133.658  0.00  0.00    +0.000 C 
ATOM     30  N   UNK A   0      -7.190  -0.461 133.418  0.00  0.00    +0.000 NA
ATOM     31  C   UNK A   0      -6.854   0.608 132.674  0.00  0.00    +0.000 A 
ENDBRANCH  24  25
BRANCH  24  32
ATOM     32  C   UNK A   0      -5.047   2.830 130.879  0.00  0.00    +0.000 C 
ATOM     33  O   UNK A   0      -4.256   3.018 129.935  0.00  0.00    +0.000 OA
ATOM     34  N   UNK A   0      -4.575   3.478 132.077  0.00  0.00    +0.000 N 
ATOM     35  C   UNK A   0      -4.933   3.773 133.468  0.00  0.00    +0.000 C 
ATOM     36  C   UNK A   0      -3.255   4.023 132.087  0.00  0.00    +0.000 C 
ENDBRANCH  24  32
ENDBRANCH   8  24
TORSDOF 7
ENDMDL
MODEL 4
REMARK VINA RESULT:      -9.0      3.002      6.880
REMARK  Name = CHEMBL2037513
REMARK  12 active torsions:
REMARK  status: ('A' for Active; 'I' for Inactive)
REMARK    1  A    between atoms: C_1  and  C_2
REMARK    2  A    between atoms: C_2  and  C_3
REMARK    3  A    between atoms: C_3  and  C_4
REMARK    4  A    between atoms: C_3  and  C_6
REMARK    5  A    between atoms: C_4  and  C_5
REMARK    6  A    between atoms: C_10  and  C_11
REMARK    7  A    between atoms: N_22  and  C_23
REMARK    8  A    between atoms: C_23  and  C_24
REMARK    9  A    between atoms: C_23  and  C_29
REMARK   10  A    between atoms: N_26  and  C_27
REMARK   11  A    between atoms: N_26  and  C_28
REMARK   12  A    between atoms: C_32  and  C_33
REMARK                            x       y       z     vdW  Elec       q    Type
REMARK                         _______ _______ _______ _____ _____    ______ ____
ROOT
ATOM      1  C   UNK A   2      -6.883   1.990 131.894  0.00  0.00    +0.000 C 
ATOM      2  C   UNK A   2      -5.664   0.992 131.672  0.00  0.00    +0.000 C 
ATOM      3  O   UNK A   2      -4.644   0.886 132.318  0.00  0.00    +0.000 OA
ATOM      4  N   UNK A   1      -5.846   0.156 130.620  0.00  0.00    +0.000 N 
ATOM      5  C   UNK A   1      -7.081   0.119 129.877  0.00  0.00    +0.000 C 
ATOM      6  C   UNK A   1      -7.483   1.531 129.514  0.00  0.00    +0.000 C 
ATOM      7  O   UNK A   1      -8.075   1.723 128.472  0.00  0.00    +0.000 OA
ATOM      8  N   UNK A   2      -7.158   2.471 130.496  0.00  0.00    +0.000 N 
ATOM      9  H   UNK A   1      -5.078  -0.490 130.480  0.00  0.00    +0.000 HD
ENDROOT
BRANCH   5  10
ATOM     10  C   UNK A   1      -6.967  -0.639 128.547  0.00  0.00    +0.000 C 
ATOM     11  C   UNK A   1      -7.694  -1.970 128.706  0.00  0.00    +0.000 C 
ATOM     12  C   UNK A   1      -6.566  -2.843 129.170  0.00  0.00    +0.000 A 
ATOM     13  C   UNK A   1      -6.664  -3.950 129.992  0.00  0.00    +0.000 A 
ATOM     14  C   UNK A   1      -5.484  -4.520 130.470  0.00  0.00    +0.000 A 
ATOM     15  C   UNK A   1      -4.232  -3.973 130.146  0.00  0.00    +0.000 A 
ATOM     16  C   UNK A   1      -4.138  -2.826 129.357  0.00  0.00    +0.000 A 
ATOM     17  C   UNK A   1      -5.313  -2.275 128.875  0.00  0.00    +0.000 A 
ATOM     18  C   UNK A   1      -5.487  -0.962 128.177  0.00  0.00    +0.000 C 
ENDBRANCH   5  10
BRANCH   1  19
ATOM     19  C   UNK A   2      -6.449   3.109 132.867  0.00  0.00    +0.000 C 
BRANCH  19  21
ATOM     20  C   UNK A   2      -5.081   5.850 132.690  0.00  0.00    +0.000 C 
ATOM     21  C   UNK A   2      -5.162   4.279 132.425  0.00  0.00    +0.000 C 
ENDBRANCH  19  21
BRANCH  19  22
ATOM     22  C   UNK A   2      -7.645   3.723 133.862  0.00  0.00    +0.000 C 
ATOM     23  C   UNK A   2      -9.204   3.464 133.624  0.00  0.00    +0.000 C 
ENDBRANCH  19  22
ENDBRANCH   1  19
BRANCH   8  24
ATOM     24  C   UNK A   0      -7.078   3.908 130.159  0.00  0.00    +0.000 C 
BRANCH  24  25
ATOM     25  C   UNK A   0      -8.396   4.733 130.337  0.00  0.00    +0.000 A 
ATOM     26  C   UNK A   0      -8.375   6.019 130.944  0.00  0.00    +0.000 A 
ATOM     27  C   UNK A   0      -9.563   6.634 131.334  0.00  0.00    +0.000 A 
ATOM     28  C   UNK A   0     -10.751   6.036 130.955  0.00  0.00    +0.000 A 
ATOM     29  C   UNK A   0     -12.080   6.591 131.315  0.00  0.00    +0.000 C 
ATOM     30  N   UNK A   0     -10.805   4.910 130.226  0.00  0.00    +0.000 NA
ATOM     31  C   UNK A   0      -9.645   4.282 129.960  0.00  0.00    +0.000 A 
ENDBRANCH  24  25
BRANCH  24  32
ATOM     32  C   UNK A   0      -6.063   4.420 128.760  0.00  0.00    +0.000 C 
ATOM     33  O   UNK A   0      -6.701   4.705 127.728  0.00  0.00    +0.000 OA
ATOM     34  N   UNK A   0      -4.653   4.654 128.569  0.00  0.00    +0.000 N 
ATOM     35  C   UNK A   0      -3.360   4.643 129.259  0.00  0.00    +0.000 C 
ATOM     36  C   UNK A   0      -4.178   4.947 127.254  0.00  0.00    +0.000 C 
ENDBRANCH  24  32
ENDBRANCH   8  24
TORSDOF 7
ENDMDL
MODEL 5
REMARK VINA RESULT:      -8.9      3.994      7.476
REMARK  Name = CHEMBL2037513
REMARK  12 active torsions:
REMARK  status: ('A' for Active; 'I' for Inactive)
REMARK    1  A    between atoms: C_1  and  C_2
REMARK    2  A    between atoms: C_2  and  C_3
REMARK    3  A    between atoms: C_3  and  C_4
REMARK    4  A    between atoms: C_3  and  C_6
REMARK    5  A    between atoms: C_4  and  C_5
REMARK    6  A    between atoms: C_10  and  C_11
REMARK    7  A    between atoms: N_22  and  C_23
REMARK    8  A    between atoms: C_23  and  C_24
REMARK    9  A    between atoms: C_23  and  C_29
REMARK   10  A    between atoms: N_26  and  C_27
REMARK   11  A    between atoms: N_26  and  C_28
REMARK   12  A    between atoms: C_32  and  C_33
REMARK                            x       y       z     vdW  Elec       q    Type
REMARK                         _______ _______ _______ _____ _____    ______ ____
ROOT
ATOM      1  C   UNK A   2      -8.390   2.323 130.803  0.00  0.00    +0.000 C 
ATOM      2  C   UNK A   2      -8.980   0.892 131.172  0.00  0.00    +0.000 C 
ATOM      3  O   UNK A   2     -10.015   0.623 131.743  0.00  0.00    +0.000 OA
ATOM      4  N   UNK A   1      -8.195  -0.130 130.752  0.00  0.00    +0.000 N 
ATOM      5  C   UNK A   1      -7.016   0.088 129.951  0.00  0.00    +0.000 C 
ATOM      6  C   UNK A   1      -6.181   1.178 130.586  0.00  0.00    +0.000 C 
ATOM      7  O   UNK A   1      -4.973   1.129 130.479  0.00  0.00    +0.000 OA
ATOM      8  N   UNK A   2      -6.943   2.180 131.192  0.00  0.00    +0.000 N 
ATOM      9  H   UNK A   1      -8.571  -1.045 130.974  0.00  0.00    +0.000 HD
ENDROOT
BRANCH   5  10
ATOM     10  C   UNK A   1      -6.103  -1.143 129.866  0.00  0.00    +0.000 C 
ATOM     11  C   UNK A   1      -5.686  -1.314 128.409  0.00  0.00    +0.000 C 
ATOM     12  C   UNK A   1      -6.772  -2.226 127.920  0.00  0.00    +0.000 A 
ATOM     13  C   UNK A   1      -7.274  -2.295 126.635  0.00  0.00    +0.000 A 
ATOM     14  C   UNK A   1      -8.414  -3.069 126.415  0.00  0.00    +0.000 A 
ATOM     15  C   UNK A   1      -9.048  -3.741 127.473  0.00  0.00    +0.000 A 
ATOM     16  C   UNK A   1      -8.567  -3.630 128.778  0.00  0.00    +0.000 A 
ATOM     17  C   UNK A   1      -7.428  -2.871 128.985  0.00  0.00    +0.000 A 
ATOM     18  C   UNK A   1      -6.835  -2.452 130.294  0.00  0.00    +0.000 C 
ENDBRANCH   5  10
BRANCH   1  19
ATOM     19  C   UNK A   2      -9.149   3.405 131.604  0.00  0.00    +0.000 C 
BRANCH  19  21
ATOM     20  C   UNK A   2     -10.979   5.834 131.196  0.00  0.00    +0.000 C 
ATOM     21  C   UNK A   2     -10.469   4.361 130.855  0.00  0.00    +0.000 C 
ENDBRANCH  19  21
BRANCH  19  22
ATOM     22  C   UNK A   2      -9.332   3.116 133.240  0.00  0.00    +0.000 C 
ATOM     23  C   UNK A   2      -8.946   4.180 134.369  0.00  0.00    +0.000 C 
ENDBRANCH  19  22
ENDBRANCH   1  19
BRANCH   8  24
ATOM     24  C   UNK A   0      -6.338   3.072 132.203  0.00  0.00    +0.000 C 
BRANCH  24  25
ATOM     25  C   UNK A   0      -5.679   4.383 131.659  0.00  0.00    +0.000 A 
ATOM     26  C   UNK A   0      -6.280   5.651 131.888  0.00  0.00    +0.000 A 
ATOM     27  C   UNK A   0      -5.841   6.776 131.194  0.00  0.00    +0.000 A 
ATOM     28  C   UNK A   0      -4.703   6.649 130.419  0.00  0.00    +0.000 A 
ATOM     29  C   UNK A   0      -4.140   7.772 129.628  0.00  0.00    +0.000 C 
ATOM     30  N   UNK A   0      -4.006   5.506 130.322  0.00  0.00    +0.000 NA
ATOM     31  C   UNK A   0      -4.517   4.411 130.915  0.00  0.00    +0.000 A 
ENDBRANCH  24  25
BRANCH  24  32
ATOM     32  C   UNK A   0      -5.487   2.340 133.614  0.00  0.00    +0.000 C 
ATOM     33  O   UNK A   0      -6.230   2.013 134.559  0.00  0.00    +0.000 OA
ATOM     34  N   UNK A   0      -4.121   1.966 133.885  0.00  0.00    +0.000 N 
ATOM     35  C   UNK A   0      -2.778   1.932 133.299  0.00  0.00    +0.000 C 
ATOM     36  C   UNK A   0      -3.784   1.507 135.194  0.00  0.00    +0.000 C 
ENDBRANCH  24  32
ENDBRANCH   8  24
TORSDOF 7
ENDMDL
MODEL 6
REMARK VINA RESULT:      -8.8      3.258      5.387
REMARK  Name = CHEMBL2037513
REMARK  12 active torsions:
REMARK  status: ('A' for Active; 'I' for Inactive)
REMARK    1  A    between atoms: C_1  and  C_2
REMARK    2  A    between atoms: C_2  and  C_3
REMARK    3  A    between atoms: C_3  and  C_4
REMARK    4  A    between atoms: C_3  and  C_6
REMARK    5  A    between atoms: C_4  and  C_5
REMARK    6  A    between atoms: C_10  and  C_11
REMARK    7  A    between atoms: N_22  and  C_23
REMARK    8  A    between atoms: C_23  and  C_24
REMARK    9  A    between atoms: C_23  and  C_29
REMARK   10  A    between atoms: N_26  and  C_27
REMARK   11  A    between atoms: N_26  and  C_28
REMARK   12  A    between atoms: C_32  and  C_33
REMARK                            x       y       z     vdW  Elec       q    Type
REMARK                         _______ _______ _______ _____ _____    ______ ____
ROOT
ATOM      1  C   UNK A   2      -7.124   6.158 131.486  0.00  0.00    +0.000 C 
ATOM      2  C   UNK A   2      -8.435   6.168 132.386  0.00  0.00    +0.000 C 
ATOM      3  O   UNK A   2      -8.527   6.270 133.590  0.00  0.00    +0.000 OA
ATOM      4  N   UNK A   1      -9.577   6.068 131.662  0.00  0.00    +0.000 N 
ATOM      5  C   UNK A   1      -9.573   6.077 130.220  0.00  0.00    +0.000 C 
ATOM      6  C   UNK A   1      -8.536   5.094 129.723  0.00  0.00    +0.000 C 
ATOM      7  O   UNK A   1      -8.737   4.507 128.679  0.00  0.00    +0.000 OA
ATOM      8  N   UNK A   2      -7.400   5.026 130.534  0.00  0.00    +0.000 N 
ATOM      9  H   UNK A   1     -10.417   6.086 132.229  0.00  0.00    +0.000 HD
ENDROOT
BRANCH   5  10
ATOM     10  C   UNK A   1     -10.906   5.626 129.606  0.00  0.00    +0.000 C 
ATOM     11  C   UNK A   1     -11.207   6.540 128.424  0.00  0.00    +0.000 C 
ATOM     12  C   UNK A   1     -12.011   7.608 129.104  0.00  0.00    +0.000 A 
ATOM     13  C   UNK A   1     -12.094   8.938 128.738  0.00  0.00    +0.000 A 
ATOM     14  C   UNK A   1     -12.740   9.820 129.605  0.00  0.00    +0.000 A 
ATOM     15  C   UNK A   1     -13.271   9.376 130.826  0.00  0.00    +0.000 A 
ATOM     16  C   UNK A   1     -13.143   8.042 131.217  0.00  0.00    +0.000 A 
ATOM     17  C   UNK A   1     -12.513   7.171 130.344  0.00  0.00    +0.000 A 
ATOM     18  C   UNK A   1     -12.092   5.759 130.609  0.00  0.00    +0.000 C 
ENDBRANCH   5  10
BRANCH   1  19
ATOM     19  C   UNK A   2      -5.892   5.928 132.390  0.00  0.00    +0.000 C 
BRANCH  19  21
ATOM     20  C   UNK A   2      -6.394   3.894 134.632  0.00  0.00    +0.000 C 
ATOM     21  C   UNK A   2      -5.677   4.395 133.298  0.00  0.00    +0.000 C 
ENDBRANCH  19  21
BRANCH  19  22
ATOM     22  C   UNK A   2      -4.470   6.656 131.895  0.00  0.00    +0.000 C 
ATOM     23  C   UNK A   2      -4.330   7.471 130.527  0.00  0.00    +0.000 C 
ENDBRANCH  19  22
ENDBRANCH   1  19
BRANCH   8  24
ATOM     24  C   UNK A   0      -6.498   3.858 130.462  0.00  0.00    +0.000 C 
BRANCH  24  25
ATOM     25  C   UNK A   0      -5.322   3.957 129.435  0.00  0.00    +0.000 A 
ATOM     26  C   UNK A   0      -5.575   4.202 128.057  0.00  0.00    +0.000 A 
ATOM     27  C   UNK A   0      -4.564   4.034 127.113  0.00  0.00    +0.000 A 
ATOM     28  C   UNK A   0      -3.285   3.796 127.577  0.00  0.00    +0.000 A 
ATOM     29  C   UNK A   0      -2.126   3.593 126.671  0.00  0.00    +0.000 C 
ATOM     30  N   UNK A   0      -2.978   3.735 128.883  0.00  0.00    +0.000 NA
ATOM     31  C   UNK A   0      -3.992   3.791 129.766  0.00  0.00    +0.000 A 
ENDBRANCH  24  25
BRANCH  24  32
ATOM     32  C   UNK A   0      -7.196   2.205 130.636  0.00  0.00    +0.000 C 
ATOM     33  O   UNK A   0      -7.392   1.843 131.812  0.00  0.00    +0.000 OA
ATOM     34  N   UNK A   0      -7.662   1.204 129.709  0.00  0.00    +0.000 N 
ATOM     35  C   UNK A   0      -7.850   0.926 128.282  0.00  0.00    +0.000 C 
ATOM     36  C   UNK A   0      -8.054  -0.072 130.218  0.00  0.00    +0.000 C 
ENDBRANCH  24  32
ENDBRANCH   8  24
TORSDOF 7
ENDMDL
MODEL 7
REMARK VINA RESULT:      -8.8      2.903      4.747
REMARK  Name = CHEMBL2037513
REMARK  12 active torsions:
REMARK  status: ('A' for Active; 'I' for Inactive)
REMARK    1  A    between atoms: C_1  and  C_2
REMARK    2  A    between atoms: C_2  and  C_3
REMARK    3  A    between atoms: C_3  and  C_4
REMARK    4  A    between atoms: C_3  and  C_6
REMARK    5  A    between atoms: C_4  and  C_5
REMARK    6  A    between atoms: C_10  and  C_11
REMARK    7  A    between atoms: N_22  and  C_23
REMARK    8  A    between atoms: C_23  and  C_24
REMARK    9  A    between atoms: C_23  and  C_29
REMARK   10  A    between atoms: N_26  and  C_27
REMARK   11  A    between atoms: N_26  and  C_28
REMARK   12  A    between atoms: C_32  and  C_33
REMARK                            x       y       z     vdW  Elec       q    Type
REMARK                         _______ _______ _______ _____ _____    ______ ____
ROOT
ATOM      1  C   UNK A   2      -8.138   2.768 125.901  0.00  0.00    +0.000 C 
ATOM      2  C   UNK A   2      -7.596   4.140 126.495  0.00  0.00    +0.000 C 
ATOM      3  O   UNK A   2      -6.966   5.012 125.937  0.00  0.00    +0.000 OA
ATOM      4  N   UNK A   1      -7.926   4.322 127.798  0.00  0.00    +0.000 N 
ATOM      5  C   UNK A   1      -8.784   3.404 128.506  0.00  0.00    +0.000 C 
ATOM      6  C   UNK A   1      -8.300   1.991 128.268  0.00  0.00    +0.000 C 
ATOM      7  O   UNK A   1      -8.439   1.167 129.150  0.00  0.00    +0.000 OA
ATOM      8  N   UNK A   2      -7.783   1.788 126.986  0.00  0.00    +0.000 N 
ATOM      9  H   UNK A   1      -7.593   5.200 128.180  0.00  0.00    +0.000 HD
ENDROOT
BRANCH   5  10
ATOM     10  C   UNK A   1      -8.763   3.605 130.028  0.00  0.00    +0.000 C 
ATOM     11  C   UNK A   1     -10.200   3.520 130.529  0.00  0.00    +0.000 C 
ATOM     12  C   UNK A   1     -10.598   4.965 130.458  0.00  0.00    +0.000 A 
ATOM     13  C   UNK A   1     -11.869   5.461 130.236  0.00  0.00    +0.000 A 
ATOM     14  C   UNK A   1     -12.011   6.831 130.013  0.00  0.00    +0.000 A 
ATOM     15  C   UNK A   1     -10.892   7.680 129.990  0.00  0.00    +0.000 A 
ATOM     16  C   UNK A   1      -9.605   7.169 130.164  0.00  0.00    +0.000 A 
ATOM     17  C   UNK A   1      -9.476   5.811 130.399  0.00  0.00    +0.000 A 
ATOM     18  C   UNK A   1      -8.213   5.007 130.431  0.00  0.00    +0.000 C 
ENDBRANCH   5  10
BRANCH   1  19
ATOM     19  C   UNK A   2      -7.437   2.489 124.553  0.00  0.00    +0.000 C 
BRANCH  19  21
ATOM     20  C   UNK A   2      -9.614   1.120 122.877  0.00  0.00    +0.000 C 
ATOM     21  C   UNK A   2      -8.381   2.113 123.073  0.00  0.00    +0.000 C 
ENDBRANCH  19  21
BRANCH  19  22
ATOM     22  C   UNK A   2      -6.006   3.311 124.283  0.00  0.00    +0.000 C 
ATOM     23  C   UNK A   2      -5.670   4.063 122.914  0.00  0.00    +0.000 C 
ENDBRANCH  19  22
ENDBRANCH   1  19
BRANCH   8  24
ATOM     24  C   UNK A   0      -6.896   0.639 126.710  0.00  0.00    +0.000 C 
BRANCH  24  25
ATOM     25  C   UNK A   0      -7.522  -0.532 125.882  0.00  0.00    +0.000 A 
ATOM     26  C   UNK A   0      -6.810  -1.123 124.801  0.00  0.00    +0.000 A 
ATOM     27  C   UNK A   0      -7.460  -1.975 123.911  0.00  0.00    +0.000 A 
ATOM     28  C   UNK A   0      -8.754  -2.356 124.214  0.00  0.00    +0.000 A 
ATOM     29  C   UNK A   0      -9.552  -3.254 123.341  0.00  0.00    +0.000 C 
ATOM     30  N   UNK A   0      -9.395  -1.955 125.323  0.00  0.00    +0.000 NA
ATOM     31  C   UNK A   0      -8.783  -1.047 126.105  0.00  0.00    +0.000 A 
ENDBRANCH  24  25
BRANCH  24  32
ATOM     32  C   UNK A   0      -5.731   0.112 127.981  0.00  0.00    +0.000 C 
ATOM     33  O   UNK A   0      -4.819   0.926 128.223  0.00  0.00    +0.000 OA
ATOM     34  N   UNK A   0      -5.644  -1.029 128.859  0.00  0.00    +0.000 N 
ATOM     35  C   UNK A   0      -6.323  -2.272 129.234  0.00  0.00    +0.000 C 
ATOM     36  C   UNK A   0      -4.484  -1.175 129.679  0.00  0.00    +0.000 C 
ENDBRANCH  24  32
ENDBRANCH   8  24
TORSDOF 7
ENDMDL
MODEL 8
REMARK VINA RESULT:      -8.7      3.040      6.994
REMARK  Name = CHEMBL2037513
REMARK  12 active torsions:
REMARK  status: ('A' for Active; 'I' for Inactive)
REMARK    1  A    between atoms: C_1  and  C_2
REMARK    2  A    between atoms: C_2  and  C_3
REMARK    3  A    between atoms: C_3  and  C_4
REMARK    4  A    between atoms: C_3  and  C_6
REMARK    5  A    between atoms: C_4  and  C_5
REMARK    6  A    between atoms: C_10  and  C_11
REMARK    7  A    between atoms: N_22  and  C_23
REMARK    8  A    between atoms: C_23  and  C_24
REMARK    9  A    between atoms: C_23  and  C_29
REMARK   10  A    between atoms: N_26  and  C_27
REMARK   11  A    between atoms: N_26  and  C_28
REMARK   12  A    between atoms: C_32  and  C_33
REMARK                            x       y       z     vdW  Elec       q    Type
REMARK                         _______ _______ _______ _____ _____    ______ ____
ROOT
ATOM      1  C   UNK A   2      -8.006   2.696 129.530  0.00  0.00    +0.000 C 
ATOM      2  C   UNK A   2      -8.284   3.917 128.550  0.00  0.00    +0.000 C 
ATOM      3  O   UNK A   2      -8.142   3.972 127.347  0.00  0.00    +0.000 OA
ATOM      4  N   UNK A   1      -8.762   5.013 129.189  0.00  0.00    +0.000 N 
ATOM      5  C   UNK A   1      -9.088   4.999 130.593  0.00  0.00    +0.000 C 
ATOM      6  C   UNK A   1      -7.937   4.390 131.362  0.00  0.00    +0.000 C 
ATOM      7  O   UNK A   1      -7.708   4.787 132.487  0.00  0.00    +0.000 OA
ATOM      8  N   UNK A   2      -7.289   3.362 130.673  0.00  0.00    +0.000 N 
ATOM      9  H   UNK A   1      -8.953   5.791 128.568  0.00  0.00    +0.000 HD
ENDROOT
BRANCH   5  10
ATOM     10  C   UNK A   1      -9.292   6.401 131.183  0.00  0.00    +0.000 C 
ATOM     11  C   UNK A   1     -10.738   6.502 131.655  0.00  0.00    +0.000 C 
ATOM     12  C   UNK A   1     -11.390   7.051 130.421  0.00  0.00    +0.000 A 
ATOM     13  C   UNK A   1     -12.694   6.843 130.014  0.00  0.00    +0.000 A 
ATOM     14  C   UNK A   1     -13.064   7.277 128.741  0.00  0.00    +0.000 A 
ATOM     15  C   UNK A   1     -12.132   7.886 127.885  0.00  0.00    +0.000 A 
ATOM     16  C   UNK A   1     -10.803   8.049 128.278  0.00  0.00    +0.000 A 
ATOM     17  C   UNK A   1     -10.449   7.629 129.549  0.00  0.00    +0.000 A 
ATOM     18  C   UNK A   1      -9.071   7.525 130.125  0.00  0.00    +0.000 C 
ENDBRANCH   5  10
BRANCH   1  19
ATOM     19  C   UNK A   2      -7.156   1.638 128.791  0.00  0.00    +0.000 C 
BRANCH  19  21
ATOM     20  C   UNK A   2      -4.909   1.719 126.702  0.00  0.00    +0.000 C 
ATOM     21  C   UNK A   2      -5.535   2.039 128.134  0.00  0.00    +0.000 C 
ENDBRANCH  19  21
BRANCH  19  22
ATOM     22  C   UNK A   2      -7.331   0.058 129.312  0.00  0.00    +0.000 C 
ATOM     23  C   UNK A   2      -8.247  -0.360 130.553  0.00  0.00    +0.000 C 
ENDBRANCH  19  22
ENDBRANCH   1  19
BRANCH   8  24
ATOM     24  C   UNK A   0      -5.923   2.949 131.055  0.00  0.00    +0.000 C 
BRANCH  24  25
ATOM     25  C   UNK A   0      -5.821   1.812 132.126  0.00  0.00    +0.000 A 
ATOM     26  C   UNK A   0      -4.867   0.766 131.991  0.00  0.00    +0.000 A 
ATOM     27  C   UNK A   0      -4.948  -0.370 132.793  0.00  0.00    +0.000 A 
ATOM     28  C   UNK A   0      -5.867  -0.364 133.825  0.00  0.00    +0.000 A 
ATOM     29  C   UNK A   0      -6.052  -1.516 134.744  0.00  0.00    +0.000 C 
ATOM     30  N   UNK A   0      -6.663   0.683 134.091  0.00  0.00    +0.000 NA
ATOM     31  C   UNK A   0      -6.639   1.720 133.234  0.00  0.00    +0.000 A 
ENDBRANCH  24  25
BRANCH  24  32
ATOM     32  C   UNK A   0      -4.634   4.204 131.176  0.00  0.00    +0.000 C 
ATOM     33  O   UNK A   0      -4.554   4.764 132.286  0.00  0.00    +0.000 OA
ATOM     34  N   UNK A   0      -3.598   4.674 130.291  0.00  0.00    +0.000 N 
ATOM     35  C   UNK A   0      -3.013   4.473 128.962  0.00  0.00    +0.000 C 
ATOM     36  C   UNK A   0      -2.811   5.796 130.692  0.00  0.00    +0.000 C 
ENDBRANCH  24  32
ENDBRANCH   8  24
TORSDOF 7
ENDMDL
MODEL 9
REMARK VINA RESULT:      -8.6      2.450      7.271
REMARK  Name = CHEMBL2037513
REMARK  12 active torsions:
REMARK  status: ('A' for Active; 'I' for Inactive)
REMARK    1  A    between atoms: C_1  and  C_2
REMARK    2  A    between atoms: C_2  and  C_3
REMARK    3  A    between atoms: C_3  and  C_4
REMARK    4  A    between atoms: C_3  and  C_6
REMARK    5  A    between atoms: C_4  and  C_5
REMARK    6  A    between atoms: C_10  and  C_11
REMARK    7  A    between atoms: N_22  and  C_23
REMARK    8  A    between atoms: C_23  and  C_24
REMARK    9  A    between atoms: C_23  and  C_29
REMARK   10  A    between atoms: N_26  and  C_27
REMARK   11  A    between atoms: N_26  and  C_28
REMARK   12  A    between atoms: C_32  and  C_33
REMARK                            x       y       z     vdW  Elec       q    Type
REMARK                         _______ _______ _______ _____ _____    ______ ____
ROOT
ATOM      1  C   UNK A   2      -8.184   1.104 129.513  0.00  0.00    +0.000 C 
ATOM      2  C   UNK A   2      -7.326  -0.214 129.275  0.00  0.00    +0.000 C 
ATOM      3  O   UNK A   2      -7.052  -1.093 130.063  0.00  0.00    +0.000 OA
ATOM      4  N   UNK A   1      -6.880  -0.335 128.000  0.00  0.00    +0.000 N 
ATOM      5  C   UNK A   1      -7.266   0.591 126.963  0.00  0.00    +0.000 C 
ATOM      6  C   UNK A   1      -7.074   2.004 127.466  0.00  0.00    +0.000 C 
ATOM      7  O   UNK A   1      -6.758   2.870 126.675  0.00  0.00    +0.000 OA
ATOM      8  N   UNK A   2      -7.352   2.154 128.827  0.00  0.00    +0.000 N 
ATOM      9  H   UNK A   1      -6.343  -1.179 127.839  0.00  0.00    +0.000 HD
ENDROOT
BRANCH   5  10
ATOM     10  C   UNK A   1      -6.406   0.475 125.697  0.00  0.00    +0.000 C 
ATOM     11  C   UNK A   1      -7.334   0.594 124.492  0.00  0.00    +0.000 C 
ATOM     12  C   UNK A   1      -7.666  -0.851 124.261  0.00  0.00    +0.000 A 
ATOM     13  C   UNK A   1      -8.836  -1.352 123.723  0.00  0.00    +0.000 A 
ATOM     14  C   UNK A   1      -9.040  -2.732 123.763  0.00  0.00    +0.000 A 
ATOM     15  C   UNK A   1      -8.097  -3.586 124.356  0.00  0.00    +0.000 A 
ATOM     16  C   UNK A   1      -6.940  -3.072 124.944  0.00  0.00    +0.000 A 
ATOM     17  C   UNK A   1      -6.738  -1.704 124.886  0.00  0.00    +0.000 A 
ATOM     18  C   UNK A   1      -5.688  -0.905 125.594  0.00  0.00    +0.000 C 
ENDBRANCH   5  10
BRANCH   1  19
ATOM     19  C   UNK A   2      -8.350   1.332 131.032  0.00  0.00    +0.000 C 
BRANCH  19  21
ATOM     20  C   UNK A   2      -6.740   2.699 133.259  0.00  0.00    +0.000 C 
ATOM     21  C   UNK A   2      -6.930   1.632 132.088  0.00  0.00    +0.000 C 
ENDBRANCH  19  21
BRANCH  19  22
ATOM     22  C   UNK A   2      -9.756   2.098 131.512  0.00  0.00    +0.000 C 
ATOM     23  C   UNK A   2     -10.679   2.944 130.518  0.00  0.00    +0.000 C 
ENDBRANCH  19  22
ENDBRANCH   1  19
BRANCH   8  24
ATOM     24  C   UNK A   0      -6.829   3.315 129.575  0.00  0.00    +0.000 C 
BRANCH  24  25
ATOM     25  C   UNK A   0      -7.754   4.576 129.625  0.00  0.00    +0.000 A 
ATOM     26  C   UNK A   0      -7.838   5.373 130.801  0.00  0.00    +0.000 A 
ATOM     27  C   UNK A   0      -8.842   6.329 130.934  0.00  0.00    +0.000 A 
ATOM     28  C   UNK A   0      -9.630   6.593 129.829  0.00  0.00    +0.000 A 
ATOM     29  C   UNK A   0     -10.735   7.585 129.848  0.00  0.00    +0.000 C 
ATOM     30  N   UNK A   0      -9.460   5.982 128.646  0.00  0.00    +0.000 NA
ATOM     31  C   UNK A   0      -8.557   4.987 128.581  0.00  0.00    +0.000 A 
ENDBRANCH  24  25
BRANCH  24  32
ATOM     32  C   UNK A   0      -5.067   3.687 129.487  0.00  0.00    +0.000 C 
ATOM     33  O   UNK A   0      -4.370   3.117 130.348  0.00  0.00    +0.000 OA
ATOM     34  N   UNK A   0      -4.241   4.452 128.586  0.00  0.00    +0.000 N 
ATOM     35  C   UNK A   0      -4.281   5.269 127.369  0.00  0.00    +0.000 C 
ATOM     36  C   UNK A   0      -2.860   4.626 128.902  0.00  0.00    +0.000 C 
ENDBRANCH  24  32
ENDBRANCH   8  24
TORSDOF 7
ENDMDL
