MODEL 1
REMARK VINA RESULT:      -8.8      0.000      0.000
REMARK  Name = CHEMBL1765667
REMARK  30 active torsions:
REMARK  status: ('A' for Active; 'I' for Inactive)
REMARK    1  A    between atoms: CD1_1  and  CG_2
REMARK    2  A    between atoms: CG_2  and  CD2_3
REMARK    3  A    between atoms: CG_2  and  CB_4
REMARK    4  A    between atoms: CB_4  and  CA_5
REMARK    5  A    between atoms: CA_9  and  CB_10
REMARK    6  A    between atoms: CB_10  and  CG_11
REMARK    7  A    between atoms: CA_20  and  CB_21
REMARK    8  A    between atoms: CB_21  and  CG_22
REMARK    9  A    between atoms: CZ_25  and  OH_26
REMARK   10  A    between atoms: C_37  and  C_38
REMARK   11  A    between atoms: CA_44  and  C_45
REMARK   12  A    between atoms: N_47  and  C_48
REMARK   13  A    between atoms: C_48  and  C_49
REMARK   14  A    between atoms: C_48  and  C_63
REMARK   15  A    between atoms: C_49  and  C_50
REMARK   16  A    between atoms: C_50  and  C_51
REMARK   17  A    between atoms: C_51  and  C_52
REMARK   18  A    between atoms: C_52  and  N_53
REMARK   19  A    between atoms: C_54  and  C_56
REMARK   20  A    between atoms: C_56  and  C_57
REMARK   21  A    between atoms: C_57  and  C_58
REMARK   22  A    between atoms: C_58  and  C_59
REMARK   23  A    between atoms: C_59  and  C_60
REMARK   24  A    between atoms: C_60  and  C_61
REMARK   25  A    between atoms: C_61  and  N_62
REMARK   26  A    between atoms: N_65  and  CA_66
REMARK   27  A    between atoms: CA_66  and  C_67
REMARK   28  A    between atoms: C_67  and  OXT_69
REMARK   29  A    between atoms: CA_73  and  CB_74
REMARK   30  A    between atoms: CB_74  and  CG_75
REMARK                            x       y       z     vdW  Elec       q    Type
REMARK                         _______ _______ _______ _____ _____    ______ ____
ROOT
ATOM      1  CA  TYR A   1      -7.066   3.455 125.611  0.00  0.00    +0.000 C 
ATOM      2  N   TYR A   1      -7.982   1.973 125.864  0.00  0.00    +0.000 N 
ATOM      3  C   TYR A   1      -8.026   0.645 126.413  0.00  0.00    +0.000 C 
ATOM      4  O   TYR A   1      -9.044   0.289 127.025  0.00  0.00    +0.000 OA
ATOM      5  CA  TYR A   1      -6.873  -0.430 126.122  0.00  0.00    +0.000 C 
ATOM      6  N   TYR A   1      -5.812  -0.621 127.076  0.00  0.00    +0.000 N 
ATOM      7  C   TYR A   1      -5.770  -1.193 128.292  0.00  0.00    +0.000 C 
ATOM      8  O   TYR A   1      -4.600  -1.403 128.642  0.00  0.00    +0.000 OA
ATOM      9  CA  TYR A   1      -7.124  -1.624 129.134  0.00  0.00    +0.000 C 
ATOM     10  N   TYR A   1      -6.730  -2.941 129.519  0.00  0.00    +0.000 N 
ATOM     11  C   UNK A   0      -5.803  -3.210 130.477  0.00  0.00    +0.000 C 
ATOM     12  O   UNK A   0      -5.587  -4.408 130.692  0.00  0.00    +0.000 OA
ATOM     13  C   UNK A   0      -5.034  -2.117 131.302  0.00  0.00    +0.000 C 
ATOM     14  C   UNK A   0      -5.181  -0.594 131.171  0.00  0.00    +0.000 C 
ATOM     15  S   UNK A   3      -4.125   0.588 132.054  0.00  0.00    +0.000 S 
ATOM     16  S   UNK A   3      -5.389   2.232 131.841  0.00  0.00    +0.000 S 
ATOM     17  C   UNK A   3      -4.358   3.724 131.708  0.00  0.00    +0.000 C 
ATOM     18  C   UNK A   3      -4.871   5.094 131.220  0.00  0.00    +0.000 C 
ATOM     19  N   UNK A   3      -4.507   5.365 129.791  0.00  0.00    +0.000 N 
ATOM     20  C   ASN A   2      -4.886   4.727 128.662  0.00  0.00    +0.000 C 
ATOM     21  O   ASN A   2      -4.476   4.971 127.534  0.00  0.00    +0.000 OA
ATOM     22  CA  ASN A   2      -5.902   3.699 128.835  0.00  0.00    +0.000 C 
ATOM     23  N   ASN A   2      -7.218   4.325 127.881  0.00  0.00    +0.000 N 
ATOM     24  C   TYR A   1      -7.804   4.223 126.624  0.00  0.00    +0.000 C 
ATOM     25  O   TYR A   1      -9.044   4.262 126.582  0.00  0.00    +0.000 OA
ATOM     26  H   TYR A   1      -8.955   2.283 125.986  0.00  0.00    +0.000 HD
ATOM     27  H   TYR A   1      -4.872  -0.383 126.741  0.00  0.00    +0.000 HD
ATOM     28  H   TYR A   1      -7.114  -3.728 129.005  0.00  0.00    +0.000 HD
ATOM     29  H   UNK A   3      -3.902   6.159 129.603  0.00  0.00    +0.000 HD
ATOM     30  H   ASN A   2      -8.155   4.241 128.272  0.00  0.00    +0.000 HD
ENDROOT
BRANCH  18  31
ATOM     31  C   UNK A   3      -4.298   6.295 132.057  0.00  0.00    +0.000 C 
ATOM     32  O   UNK A   3      -5.079   6.950 132.758  0.00  0.00    +0.000 OA
ATOM     33  N   PRO A   4      -2.921   6.441 132.177  0.00  0.00    +0.000 N 
ATOM     34  CD  PRO A   4      -1.903   6.434 131.139  0.00  0.00    +0.000 C 
ATOM     35  CG  PRO A   4      -0.699   5.945 131.886  0.00  0.00    +0.000 C 
ATOM     36  CB  PRO A   4      -0.773   6.760 133.160  0.00  0.00    +0.000 C 
ATOM     37  CA  PRO A   4      -2.280   7.005 133.398  0.00  0.00    +0.000 C 
BRANCH  37  38
ATOM     38  C   PRO A   4      -2.404   8.537 133.512  0.00  0.00    +0.000 C 
ATOM     39  O   PRO A   4      -2.417   9.231 132.493  0.00  0.00    +0.000 OA
ATOM     40  N   UNK A   5      -2.408   9.087 134.791  0.00  0.00    +0.000 N 
ATOM     41  H   UNK A   5      -2.091   8.545 135.591  0.00  0.00    +0.000 HD
BRANCH  40  42
ATOM     42  C   UNK A   5      -2.711  10.522 135.056  0.00  0.00    +0.000 C 
BRANCH  42  43
ATOM     43  C   UNK A   5      -1.471  11.438 134.738  0.00  0.00    +0.000 C 
ATOM     44  O   UNK A   5      -0.685  11.780 135.624  0.00  0.00    +0.000 OA
ATOM     45  N   GLY A   6      -1.291  11.847 133.426  0.00  0.00    +0.000 N 
ATOM     46  H   GLY A   6      -1.930  11.557 132.688  0.00  0.00    +0.000 HD
BRANCH  45  47
ATOM     47  CA  GLY A   6      -0.185  12.727 133.009  0.00  0.00    +0.000 C 
BRANCH  47  48
ATOM     48  C   GLY A   6      -0.276  13.081 131.521  0.00  0.00    +0.000 C 
ATOM     49  O   GLY A   6       0.666  12.950 130.747  0.00  0.00    +0.000 OA
BRANCH  48  50
ATOM     50  OXT GLY A   6      -1.474  13.552 131.101  0.00  0.00    +0.000 OA
ATOM     51  HXT GLY A   6      -1.594  13.703 130.145  0.00  0.00    +0.000 HD
ENDBRANCH  48  50
ENDBRANCH  47  48
ENDBRANCH  45  47
ENDBRANCH  42  43
BRANCH  42  52
ATOM     52  C   UNK A   5      -3.117  10.719 136.533  0.00  0.00    +0.000 C 
BRANCH  52  53
ATOM     53  C   UNK A   5      -4.413   9.999 136.882  0.00  0.00    +0.000 C 
BRANCH  53  54
ATOM     54  C   UNK A   5      -5.012  10.347 138.218  0.00  0.00    +0.000 C 
BRANCH  54  55
ATOM     55  C   UNK A   5      -6.523  10.145 138.152  0.00  0.00    +0.000 C 
BRANCH  55  56
ATOM     56  N   UNK A   5      -6.867   8.743 138.227  0.00  0.00    +0.000 N 
ATOM     57  C   UNK A   5      -8.062   8.300 137.709  0.00  0.00    +0.000 C 
ATOM     58  O   UNK A   5      -8.870   9.057 137.181  0.00  0.00    +0.000 OA
ATOM     59  H   UNK A   5      -6.203   8.096 138.629  0.00  0.00    +0.000 HD
BRANCH  57  60
ATOM     60  C   UNK A   5      -8.296   6.807 137.851  0.00  0.00    +0.000 C 
BRANCH  60  61
ATOM     61  C   UNK A   5      -7.088   6.037 137.319  0.00  0.00    +0.000 C 
BRANCH  61  62
ATOM     62  C   UNK A   5      -7.009   6.068 135.799  0.00  0.00    +0.000 C 
BRANCH  62  63
ATOM     63  C   UNK A   5      -6.863   4.653 135.244  0.00  0.00    +0.000 C 
BRANCH  63  64
ATOM     64  C   UNK A   5      -7.827   4.431 134.083  0.00  0.00    +0.000 C 
BRANCH  64  65
ATOM     65  C   UNK A   5      -8.468   5.746 133.658  0.00  0.00    +0.000 C 
BRANCH  65  66
ATOM     66  N   UNK A   5      -8.069   6.070 132.295  0.00  0.00    +0.000 NA
ATOM     67  H   UNK A   5      -7.418   6.854 132.307  0.00  0.00    +0.000 HD
ATOM     68  H   UNK A   5      -8.886   6.380 131.772  0.00  0.00    +0.000 HD
ENDBRANCH  65  66
ENDBRANCH  64  65
ENDBRANCH  63  64
ENDBRANCH  62  63
ENDBRANCH  61  62
ENDBRANCH  60  61
ENDBRANCH  57  60
ENDBRANCH  55  56
ENDBRANCH  54  55
ENDBRANCH  53  54
ENDBRANCH  52  53
ENDBRANCH  42  52
ENDBRANCH  40  42
ENDBRANCH  37  38
ENDBRANCH  18  31
BRANCH  22  69
ATOM     69  CB  ASN A   2      -4.994   2.273 128.789  0.00  0.00    +0.000 C 
BRANCH  69  70
ATOM     70  CG  ASN A   2      -3.717   2.445 128.125  0.00  0.00    +0.000 C 
ATOM     71  ND2 ASN A   2      -3.979   1.876 126.998  0.00  0.00    +0.000 N 
ATOM     72  OD1 ASN A   2      -2.531   2.671 128.413  0.00  0.00    +0.000 OA
ATOM     73 HD21 ASN A   2      -4.933   1.940 126.710  0.00  0.00    +0.000 HD
ATOM     74 HD22 ASN A   2      -3.333   1.863 126.233  0.00  0.00    +0.000 HD
ENDBRANCH  69  70
ENDBRANCH  22  69
BRANCH   9  75
ATOM     75  CB  TYR A   1      -7.983  -1.022 130.380  0.00  0.00    +0.000 C 
BRANCH  75  76
ATOM     76  CG  TYR A   1      -8.442   0.399 130.363  0.00  0.00    +0.000 A 
ATOM     77  CD1 TYR A   1      -9.015   0.748 131.499  0.00  0.00    +0.000 A 
ATOM     78  CE1 TYR A   1      -9.363   2.033 131.734  0.00  0.00    +0.000 A 
ATOM     79  CZ  TYR A   1      -9.505   3.036 130.809  0.00  0.00    +0.000 A 
ATOM     80  CE2 TYR A   1      -9.029   2.697 129.588  0.00  0.00    +0.000 A 
ATOM     81  CD2 TYR A   1      -8.437   1.407 129.391  0.00  0.00    +0.000 A 
BRANCH  79  82
ATOM     82  OH  TYR A   1     -10.171   4.226 130.964  0.00  0.00    +0.000 OA
ATOM     83  HH  TYR A   1     -10.504   4.549 131.833  0.00  0.00    +0.000 HD
ENDBRANCH  79  82
ENDBRANCH  75  76
ENDBRANCH   9  75
BRANCH   5  84
ATOM     84  CB  TYR A   1      -7.303  -1.821 125.762  0.00  0.00    +0.000 C 
BRANCH  84  85
ATOM     85  CG  TYR A   1      -6.570  -2.351 124.593  0.00  0.00    +0.000 A 
ATOM     86  CD1 TYR A   1      -5.631  -3.388 124.655  0.00  0.00    +0.000 A 
ATOM     87  CE1 TYR A   1      -4.682  -3.575 123.693  0.00  0.00    +0.000 A 
ATOM     88  CZ  TYR A   1      -4.916  -2.965 122.489  0.00  0.00    +0.000 A 
ATOM     89  CE2 TYR A   1      -5.963  -2.046 122.338  0.00  0.00    +0.000 A 
ATOM     90  CD2 TYR A   1      -6.758  -1.685 123.409  0.00  0.00    +0.000 A 
ENDBRANCH  84  85
ENDBRANCH   5  84
BRANCH   1  91
ATOM     91  CB  TYR A   1      -5.781   3.544 124.782  0.00  0.00    +0.000 C 
BRANCH  91  93
ATOM     92  CD1 TYR A   1      -4.930   4.479 122.752  0.00  0.00    +0.000 C 
ATOM     93  CG  TYR A   1      -6.176   3.894 123.396  0.00  0.00    +0.000 C 
ATOM     94  CD2 TYR A   1      -6.623   2.619 122.730  0.00  0.00    +0.000 C 
ENDBRANCH  91  93
ENDBRANCH   1  91
TORSDOF 28
ENDMDL
MODEL 2
REMARK VINA RESULT:      -8.6      1.337      1.699
REMARK  Name = CHEMBL1765667
REMARK  30 active torsions:
REMARK  status: ('A' for Active; 'I' for Inactive)
REMARK    1  A    between atoms: CD1_1  and  CG_2
REMARK    2  A    between atoms: CG_2  and  CD2_3
REMARK    3  A    between atoms: CG_2  and  CB_4
REMARK    4  A    between atoms: CB_4  and  CA_5
REMARK    5  A    between atoms: CA_9  and  CB_10
REMARK    6  A    between atoms: CB_10  and  CG_11
REMARK    7  A    between atoms: CA_20  and  CB_21
REMARK    8  A    between atoms: CB_21  and  CG_22
REMARK    9  A    between atoms: CZ_25  and  OH_26
REMARK   10  A    between atoms: C_37  and  C_38
REMARK   11  A    between atoms: CA_44  and  C_45
REMARK   12  A    between atoms: N_47  and  C_48
REMARK   13  A    between atoms: C_48  and  C_49
REMARK   14  A    between atoms: C_48  and  C_63
REMARK   15  A    between atoms: C_49  and  C_50
REMARK   16  A    between atoms: C_50  and  C_51
REMARK   17  A    between atoms: C_51  and  C_52
REMARK   18  A    between atoms: C_52  and  N_53
REMARK   19  A    between atoms: C_54  and  C_56
REMARK   20  A    between atoms: C_56  and  C_57
REMARK   21  A    between atoms: C_57  and  C_58
REMARK   22  A    between atoms: C_58  and  C_59
REMARK   23  A    between atoms: C_59  and  C_60
REMARK   24  A    between atoms: C_60  and  C_61
REMARK   25  A    between atoms: C_61  and  N_62
REMARK   26  A    between atoms: N_65  and  CA_66
REMARK   27  A    between atoms: CA_66  and  C_67
REMARK   28  A    between atoms: C_67  and  OXT_69
REMARK   29  A    between atoms: CA_73  and  CB_74
REMARK   30  A    between atoms: CB_74  and  CG_75
REMARK                            x       y       z     vdW  Elec       q    Type
REMARK                         _______ _______ _______ _____ _____    ______ ____
ROOT
ATOM      1  CA  TYR A   1      -6.898   3.323 126.113  0.00  0.00    +0.000 C 
ATOM      2  N   TYR A   1      -7.751   1.815 126.426  0.00  0.00    +0.000 N 
ATOM      3  C   TYR A   1      -7.729   0.498 127.002  0.00  0.00    +0.000 C 
ATOM      4  O   TYR A   1      -8.714   0.118 127.654  0.00  0.00    +0.000 OA
ATOM      5  CA  TYR A   1      -6.547  -0.541 126.695  0.00  0.00    +0.000 C 
ATOM      6  N   TYR A   1      -5.450  -0.674 127.618  0.00  0.00    +0.000 N 
ATOM      7  C   TYR A   1      -5.349  -1.218 128.844  0.00  0.00    +0.000 C 
ATOM      8  O   TYR A   1      -4.162  -1.379 129.160  0.00  0.00    +0.000 OA
ATOM      9  CA  TYR A   1      -6.659  -1.680 129.737  0.00  0.00    +0.000 C 
ATOM     10  N   TYR A   1      -6.206  -2.973 130.136  0.00  0.00    +0.000 N 
ATOM     11  C   UNK A   0      -5.239  -3.188 131.068  0.00  0.00    +0.000 C 
ATOM     12  O   UNK A   0      -4.973  -4.374 131.299  0.00  0.00    +0.000 OA
ATOM     13  C   UNK A   0      -4.485  -2.052 131.846  0.00  0.00    +0.000 C 
ATOM     14  C   UNK A   0      -4.692  -0.539 131.689  0.00  0.00    +0.000 C 
ATOM     15  S   UNK A   3      -3.652   0.699 132.514  0.00  0.00    +0.000 S 
ATOM     16  S   UNK A   3      -4.981   2.292 132.310  0.00  0.00    +0.000 S 
ATOM     17  C   UNK A   3      -4.010   3.817 132.114  0.00  0.00    +0.000 C 
ATOM     18  C   UNK A   3      -4.588   5.157 131.615  0.00  0.00    +0.000 C 
ATOM     19  N   UNK A   3      -4.279   5.411 130.170  0.00  0.00    +0.000 N 
ATOM     20  C   ASN A   2      -4.671   4.736 129.066  0.00  0.00    +0.000 C 
ATOM     21  O   ASN A   2      -4.306   4.970 127.921  0.00  0.00    +0.000 OA
ATOM     22  CA  ASN A   2      -5.642   3.677 129.292  0.00  0.00    +0.000 C 
ATOM     23  N   ASN A   2      -7.010   4.234 128.369  0.00  0.00    +0.000 N 
ATOM     24  C   TYR A   1      -7.632   4.085 127.135  0.00  0.00    +0.000 C 
ATOM     25  O   TYR A   1      -8.873   4.079 127.133  0.00  0.00    +0.000 OA
ATOM     26  H   TYR A   1      -8.730   2.092 126.573  0.00  0.00    +0.000 HD
ATOM     27  H   TYR A   1      -4.531  -0.410 127.249  0.00  0.00    +0.000 HD
ATOM     28  H   TYR A   1      -6.577  -3.784 129.650  0.00  0.00    +0.000 HD
ATOM     29  H   UNK A   3      -3.710   6.222 129.946  0.00  0.00    +0.000 HD
ATOM     30  H   ASN A   2      -7.930   4.125 128.792  0.00  0.00    +0.000 HD
ENDROOT
BRANCH  18  31
ATOM     31  C   UNK A   3      -4.033   6.395 132.409  0.00  0.00    +0.000 C 
ATOM     32  O   UNK A   3      -4.780   6.960 133.217  0.00  0.00    +0.000 OA
ATOM     33  N   PRO A   4      -2.672   6.674 132.365  0.00  0.00    +0.000 N 
ATOM     34  CD  PRO A   4      -1.795   6.783 131.210  0.00  0.00    +0.000 C 
ATOM     35  CG  PRO A   4      -0.466   6.403 131.792  0.00  0.00    +0.000 C 
ATOM     36  CB  PRO A   4      -0.459   7.186 133.087  0.00  0.00    +0.000 C 
ATOM     37  CA  PRO A   4      -1.941   7.278 133.513  0.00  0.00    +0.000 C 
BRANCH  37  38
ATOM     38  C   PRO A   4      -2.196   8.790 133.684  0.00  0.00    +0.000 C 
ATOM     39  O   PRO A   4      -2.222   9.524 132.695  0.00  0.00    +0.000 OA
ATOM     40  N   UNK A   5      -2.300   9.279 134.983  0.00  0.00    +0.000 N 
ATOM     41  H   UNK A   5      -1.975   8.729 135.774  0.00  0.00    +0.000 HD
BRANCH  40  42
ATOM     42  C   UNK A   5      -2.731  10.673 135.292  0.00  0.00    +0.000 C 
BRANCH  42  43
ATOM     43  C   UNK A   5      -1.502  11.654 135.349  0.00  0.00    +0.000 C 
ATOM     44  O   UNK A   5      -1.094  12.105 136.421  0.00  0.00    +0.000 OA
ATOM     45  N   GLY A   6      -0.892  11.994 134.152  0.00  0.00    +0.000 N 
ATOM     46  H   GLY A   6      -1.217  11.614 133.265  0.00  0.00    +0.000 HD
BRANCH  45  47
ATOM     47  CA  GLY A   6       0.248  12.923 134.073  0.00  0.00    +0.000 C 
BRANCH  47  48
ATOM     48  C   GLY A   6       1.576  12.176 133.907  0.00  0.00    +0.000 C 
ATOM     49  O   GLY A   6       1.938  11.690 132.842  0.00  0.00    +0.000 OA
BRANCH  48  50
ATOM     50  OXT GLY A   6       2.341  12.085 135.020  0.00  0.00    +0.000 OA
ATOM     51  HXT GLY A   6       2.737  12.905 135.369  0.00  0.00    +0.000 HD
ENDBRANCH  48  50
ENDBRANCH  47  48
ENDBRANCH  45  47
ENDBRANCH  42  43
BRANCH  42  52
ATOM     52  C   UNK A   5      -3.474  10.715 136.645  0.00  0.00    +0.000 C 
BRANCH  52  53
ATOM     53  C   UNK A   5      -4.205   9.415 136.950  0.00  0.00    +0.000 C 
BRANCH  53  54
ATOM     54  C   UNK A   5      -5.610   9.563 137.469  0.00  0.00    +0.000 C 
BRANCH  54  55
ATOM     55  C   UNK A   5      -6.042   8.250 138.115  0.00  0.00    +0.000 C 
BRANCH  55  56
ATOM     56  N   UNK A   5      -6.991   7.545 137.283  0.00  0.00    +0.000 N 
ATOM     57  C   UNK A   5      -6.578   6.475 136.525  0.00  0.00    +0.000 C 
ATOM     58  O   UNK A   5      -5.414   6.086 136.515  0.00  0.00    +0.000 OA
ATOM     59  H   UNK A   5      -7.961   7.828 137.299  0.00  0.00    +0.000 HD
BRANCH  57  60
ATOM     60  C   UNK A   5      -7.675   5.825 135.701  0.00  0.00    +0.000 C 
BRANCH  60  61
ATOM     61  C   UNK A   5      -7.069   4.790 134.753  0.00  0.00    +0.000 C 
BRANCH  61  62
ATOM     62  C   UNK A   5      -7.967   4.509 133.556  0.00  0.00    +0.000 C 
BRANCH  62  63
ATOM     63  C   UNK A   5      -8.595   5.804 133.045  0.00  0.00    +0.000 C 
BRANCH  63  64
ATOM     64  C   UNK A   5      -8.041   6.162 131.671  0.00  0.00    +0.000 C 
BRANCH  64  65
ATOM     65  C   UNK A   5      -9.117   6.818 130.813  0.00  0.00    +0.000 C 
BRANCH  65  66
ATOM     66  N   UNK A   5      -9.249   6.097 129.554  0.00  0.00    +0.000 NA
ATOM     67  H   UNK A   5     -10.212   5.779 129.444  0.00  0.00    +0.000 HD
ATOM     68  H   UNK A   5      -8.670   5.260 129.585  0.00  0.00    +0.000 HD
ENDBRANCH  65  66
ENDBRANCH  64  65
ENDBRANCH  63  64
ENDBRANCH  62  63
ENDBRANCH  61  62
ENDBRANCH  60  61
ENDBRANCH  57  60
ENDBRANCH  55  56
ENDBRANCH  54  55
ENDBRANCH  53  54
ENDBRANCH  52  53
ENDBRANCH  42  52
ENDBRANCH  40  42
ENDBRANCH  37  38
ENDBRANCH  18  31
BRANCH  22  69
ATOM     69  CB  ASN A   2      -4.685   2.283 129.246  0.00  0.00    +0.000 C 
BRANCH  69  70
ATOM     70  CG  ASN A   2      -4.023   2.102 127.969  0.00  0.00    +0.000 C 
ATOM     71  ND2 ASN A   2      -2.851   2.550 128.266  0.00  0.00    +0.000 N 
ATOM     72  OD1 ASN A   2      -4.316   1.954 126.772  0.00  0.00    +0.000 OA
ATOM     73 HD21 ASN A   2      -2.583   2.419 129.218  0.00  0.00    +0.000 HD
ATOM     74 HD22 ASN A   2      -2.080   2.518 127.628  0.00  0.00    +0.000 HD
ENDBRANCH  69  70
ENDBRANCH  22  69
BRANCH   9  75
ATOM     75  CB  TYR A   1      -7.500  -1.083 130.998  0.00  0.00    +0.000 C 
BRANCH  75  76
ATOM     76  CG  TYR A   1      -8.188   0.238 130.888  0.00  0.00    +0.000 A 
ATOM     77  CD1 TYR A   1      -9.190   0.347 131.741  0.00  0.00    +0.000 A 
ATOM     78  CE1 TYR A   1      -9.841   1.521 131.897  0.00  0.00    +0.000 A 
ATOM     79  CZ  TYR A   1      -9.831   2.595 131.045  0.00  0.00    +0.000 A 
ATOM     80  CE2 TYR A   1      -8.890   2.491 130.079  0.00  0.00    +0.000 A 
ATOM     81  CD2 TYR A   1      -8.028   1.347 130.048  0.00  0.00    +0.000 A 
BRANCH  79  82
ATOM     82  OH  TYR A   1     -10.726   3.636 131.003  0.00  0.00    +0.000 OA
ATOM     83  HH  TYR A   1     -11.519   3.644 130.419  0.00  0.00    +0.000 HD
ENDBRANCH  79  82
ENDBRANCH  75  76
ENDBRANCH   9  75
BRANCH   5  84
ATOM     84  CB  TYR A   1      -6.938  -1.954 126.378  0.00  0.00    +0.000 C 
BRANCH  84  85
ATOM     85  CG  TYR A   1      -7.712  -2.054 125.122  0.00  0.00    +0.000 A 
ATOM     86  CD1 TYR A   1      -8.910  -2.768 124.989  0.00  0.00    +0.000 A 
ATOM     87  CE1 TYR A   1      -9.374  -3.200 123.782  0.00  0.00    +0.000 A 
ATOM     88  CZ  TYR A   1      -8.842  -2.588 122.677  0.00  0.00    +0.000 A 
ATOM     89  CE2 TYR A   1      -7.745  -1.723 122.791  0.00  0.00    +0.000 A 
ATOM     90  CD2 TYR A   1      -7.133  -1.501 124.009  0.00  0.00    +0.000 A 
ENDBRANCH  84  85
ENDBRANCH   5  84
BRANCH   1  91
ATOM     91  CB  TYR A   1      -5.644   3.440 125.242  0.00  0.00    +0.000 C 
BRANCH  91  93
ATOM     92  CD1 TYR A   1      -4.853   4.471 123.234  0.00  0.00    +0.000 C 
ATOM     93  CG  TYR A   1      -6.086   3.875 123.894  0.00  0.00    +0.000 C 
ATOM     94  CD2 TYR A   1      -6.585   2.648 123.178  0.00  0.00    +0.000 C 
ENDBRANCH  91  93
ENDBRANCH   1  91
TORSDOF 28
ENDMDL
MODEL 3
REMARK VINA RESULT:      -8.1      2.609      5.223
REMARK  Name = CHEMBL1765667
REMARK  30 active torsions:
REMARK  status: ('A' for Active; 'I' for Inactive)
REMARK    1  A    between atoms: CD1_1  and  CG_2
REMARK    2  A    between atoms: CG_2  and  CD2_3
REMARK    3  A    between atoms: CG_2  and  CB_4
REMARK    4  A    between atoms: CB_4  and  CA_5
REMARK    5  A    between atoms: CA_9  and  CB_10
REMARK    6  A    between atoms: CB_10  and  CG_11
REMARK    7  A    between atoms: CA_20  and  CB_21
REMARK    8  A    between atoms: CB_21  and  CG_22
REMARK    9  A    between atoms: CZ_25  and  OH_26
REMARK   10  A    between atoms: C_37  and  C_38
REMARK   11  A    between atoms: CA_44  and  C_45
REMARK   12  A    between atoms: N_47  and  C_48
REMARK   13  A    between atoms: C_48  and  C_49
REMARK   14  A    between atoms: C_48  and  C_63
REMARK   15  A    between atoms: C_49  and  C_50
REMARK   16  A    between atoms: C_50  and  C_51
REMARK   17  A    between atoms: C_51  and  C_52
REMARK   18  A    between atoms: C_52  and  N_53
REMARK   19  A    between atoms: C_54  and  C_56
REMARK   20  A    between atoms: C_56  and  C_57
REMARK   21  A    between atoms: C_57  and  C_58
REMARK   22  A    between atoms: C_58  and  C_59
REMARK   23  A    between atoms: C_59  and  C_60
REMARK   24  A    between atoms: C_60  and  C_61
REMARK   25  A    between atoms: C_61  and  N_62
REMARK   26  A    between atoms: N_65  and  CA_66
REMARK   27  A    between atoms: CA_66  and  C_67
REMARK   28  A    between atoms: C_67  and  OXT_69
REMARK   29  A    between atoms: CA_73  and  CB_74
REMARK   30  A    between atoms: CB_74  and  CG_75
REMARK                            x       y       z     vdW  Elec       q    Type
REMARK                         _______ _______ _______ _____ _____    ______ ____
ROOT
ATOM      1  CA  TYR A   1      -8.034   2.714 128.995  0.00  0.00    +0.000 C 
ATOM      2  N   TYR A   1      -8.353   1.001 129.245  0.00  0.00    +0.000 N 
ATOM      3  C   TYR A   1      -7.847  -0.293 129.614  0.00  0.00    +0.000 C 
ATOM      4  O   TYR A   1      -8.523  -0.999 130.378  0.00  0.00    +0.000 OA
ATOM      5  CA  TYR A   1      -6.525  -0.907 128.948  0.00  0.00    +0.000 C 
ATOM      6  N   TYR A   1      -5.258  -0.785 129.621  0.00  0.00    +0.000 N 
ATOM      7  C   TYR A   1      -4.746  -1.373 130.716  0.00  0.00    +0.000 C 
ATOM      8  O   TYR A   1      -3.520  -1.201 130.778  0.00  0.00    +0.000 OA
ATOM      9  CA  TYR A   1      -5.651  -2.273 131.765  0.00  0.00    +0.000 C 
ATOM     10  N   TYR A   1      -4.787  -3.403 131.884  0.00  0.00    +0.000 N 
ATOM     11  C   UNK A   0      -3.617  -3.397 132.579  0.00  0.00    +0.000 C 
ATOM     12  O   UNK A   0      -2.994  -4.466 132.586  0.00  0.00    +0.000 OA
ATOM     13  C   UNK A   0      -3.049  -2.156 133.355  0.00  0.00    +0.000 C 
ATOM     14  C   UNK A   0      -3.690  -0.765 133.456  0.00  0.00    +0.000 C 
ATOM     15  S   UNK A   3      -2.871   0.654 134.238  0.00  0.00    +0.000 S 
ATOM     16  S   UNK A   3      -4.594   1.793 134.514  0.00  0.00    +0.000 S 
ATOM     17  C   UNK A   3      -4.144   3.547 134.358  0.00  0.00    +0.000 C 
ATOM     18  C   UNK A   3      -5.159   4.693 134.171  0.00  0.00    +0.000 C 
ATOM     19  N   UNK A   3      -5.257   5.144 132.745  0.00  0.00    +0.000 N 
ATOM     20  C   ASN A   2      -5.683   4.477 131.649  0.00  0.00    +0.000 C 
ATOM     21  O   ASN A   2      -5.656   4.901 130.501  0.00  0.00    +0.000 OA
ATOM     22  CA  ASN A   2      -6.254   3.162 131.901  0.00  0.00    +0.000 C 
ATOM     23  N   ASN A   2      -7.890   3.363 131.338  0.00  0.00    +0.000 N 
ATOM     24  C   TYR A   1      -8.703   3.139 130.233  0.00  0.00    +0.000 C 
ATOM     25  O   TYR A   1      -9.865   2.766 130.462  0.00  0.00    +0.000 OA
ATOM     26  H   TYR A   1      -9.314   0.963 129.611  0.00  0.00    +0.000 HD
ATOM     27  H   TYR A   1      -4.550  -0.231 129.127  0.00  0.00    +0.000 HD
ATOM     28  H   TYR A   1      -5.020  -4.244 131.366  0.00  0.00    +0.000 HD
ATOM     29  H   UNK A   3      -4.993   6.103 132.536  0.00  0.00    +0.000 HD
ATOM     30  H   ASN A   2      -8.630   2.953 131.906  0.00  0.00    +0.000 HD
ENDROOT
BRANCH  18  31
ATOM     31  C   UNK A   3      -4.802   5.971 135.015  0.00  0.00    +0.000 C 
ATOM     32  O   UNK A   3      -4.157   6.875 134.470  0.00  0.00    +0.000 OA
ATOM     33  N   PRO A   4      -5.410   6.158 136.250  0.00  0.00    +0.000 N 
ATOM     34  CD  PRO A   4      -5.537   5.229 137.361  0.00  0.00    +0.000 C 
ATOM     35  CG  PRO A   4      -6.791   5.710 138.028  0.00  0.00    +0.000 C 
ATOM     36  CB  PRO A   4      -6.579   7.209 138.042  0.00  0.00    +0.000 C 
ATOM     37  CA  PRO A   4      -5.730   7.510 136.787  0.00  0.00    +0.000 C 
BRANCH  37  38
ATOM     38  C   PRO A   4      -4.502   8.268 137.331  0.00  0.00    +0.000 C 
ATOM     39  O   PRO A   4      -4.278   8.286 138.543  0.00  0.00    +0.000 OA
ATOM     40  N   UNK A   5      -3.735   8.986 136.417  0.00  0.00    +0.000 N 
ATOM     41  H   UNK A   5      -4.101   9.211 135.496  0.00  0.00    +0.000 HD
BRANCH  40  42
ATOM     42  C   UNK A   5      -2.425   9.604 136.768  0.00  0.00    +0.000 C 
BRANCH  42  43
ATOM     43  C   UNK A   5      -2.508  11.176 136.751  0.00  0.00    +0.000 C 
ATOM     44  O   UNK A   5      -3.167  11.790 137.593  0.00  0.00    +0.000 OA
ATOM     45  N   GLY A   6      -1.815  11.848 135.757  0.00  0.00    +0.000 N 
ATOM     46  H   GLY A   6      -1.260  11.347 135.067  0.00  0.00    +0.000 HD
BRANCH  45  47
ATOM     47  CA  GLY A   6      -1.838  13.314 135.621  0.00  0.00    +0.000 C 
BRANCH  47  48
ATOM     48  C   GLY A   6      -1.827  13.746 134.150  0.00  0.00    +0.000 C 
ATOM     49  O   GLY A   6      -2.608  14.573 133.693  0.00  0.00    +0.000 OA
BRANCH  48  50
ATOM     50  OXT GLY A   6      -0.890  13.155 133.372  0.00  0.00    +0.000 OA
ATOM     51  HXT GLY A   6      -0.557  12.280 133.645  0.00  0.00    +0.000 HD
ENDBRANCH  48  50
ENDBRANCH  47  48
ENDBRANCH  45  47
ENDBRANCH  42  43
BRANCH  42  52
ATOM     52  C   UNK A   5      -1.335   9.146 135.773  0.00  0.00    +0.000 C 
BRANCH  52  53
ATOM     53  C   UNK A   5      -0.835   7.738 136.064  0.00  0.00    +0.000 C 
BRANCH  53  54
ATOM     54  C   UNK A   5       0.224   7.216 135.131  0.00  0.00    +0.000 C 
BRANCH  54  55
ATOM     55  C   UNK A   5       0.188   8.025 133.837  0.00  0.00    +0.000 C 
BRANCH  55  56
ATOM     56  N   UNK A   5      -0.143   7.189 132.706  0.00  0.00    +0.000 N 
ATOM     57  C   UNK A   5      -1.340   7.361 132.050  0.00  0.00    +0.000 C 
ATOM     58  O   UNK A   5      -2.161   8.207 132.392  0.00  0.00    +0.000 OA
ATOM     59  H   UNK A   5       0.531   6.507 132.387  0.00  0.00    +0.000 HD
BRANCH  57  60
ATOM     60  C   UNK A   5      -1.559   6.420 130.880  0.00  0.00    +0.000 C 
BRANCH  60  61
ATOM     61  C   UNK A   5      -2.781   6.865 130.076  0.00  0.00    +0.000 C 
BRANCH  61  62
ATOM     62  C   UNK A   5      -2.571   6.711 128.576  0.00  0.00    +0.000 C 
BRANCH  62  63
ATOM     63  C   UNK A   5      -2.484   5.235 128.198  0.00  0.00    +0.000 C 
BRANCH  63  64
ATOM     64  C   UNK A   5      -3.656   4.841 127.305  0.00  0.00    +0.000 C 
BRANCH  64  65
ATOM     65  C   UNK A   5      -3.251   3.723 126.351  0.00  0.00    +0.000 C 
BRANCH  65  66
ATOM     66  N   UNK A   5      -2.388   2.775 127.042  0.00  0.00    +0.000 NA
ATOM     67  H   UNK A   5      -1.533   2.639 126.503  0.00  0.00    +0.000 HD
ATOM     68  H   UNK A   5      -2.851   1.869 127.083  0.00  0.00    +0.000 HD
ENDBRANCH  65  66
ENDBRANCH  64  65
ENDBRANCH  63  64
ENDBRANCH  62  63
ENDBRANCH  61  62
ENDBRANCH  60  61
ENDBRANCH  57  60
ENDBRANCH  55  56
ENDBRANCH  54  55
ENDBRANCH  53  54
ENDBRANCH  52  53
ENDBRANCH  42  52
ENDBRANCH  40  42
ENDBRANCH  37  38
ENDBRANCH  18  31
BRANCH  22  69
ATOM     69  CB  ASN A   2      -4.988   2.123 131.479  0.00  0.00    +0.000 C 
BRANCH  69  70
ATOM     70  CG  ASN A   2      -3.884   2.816 130.846  0.00  0.00    +0.000 C 
ATOM     71  ND2 ASN A   2      -3.945   2.294 129.669  0.00  0.00    +0.000 N 
ATOM     72  OD1 ASN A   2      -2.860   3.441 131.165  0.00  0.00    +0.000 OA
ATOM     73 HD21 ASN A   2      -4.861   2.024 129.379  0.00  0.00    +0.000 HD
ATOM     74 HD22 ASN A   2      -3.360   2.591 128.913  0.00  0.00    +0.000 HD
ENDBRANCH  69  70
ENDBRANCH  22  69
BRANCH   9  75
ATOM     75  CB  TYR A   1      -6.324  -2.057 133.232  0.00  0.00    +0.000 C 
BRANCH  75  76
ATOM     76  CG  TYR A   1      -6.849  -3.223 134.001  0.00  0.00    +0.000 A 
ATOM     77  CD1 TYR A   1      -8.128  -3.088 134.296  0.00  0.00    +0.000 A 
ATOM     78  CE1 TYR A   1      -8.820  -4.103 134.859  0.00  0.00    +0.000 A 
ATOM     79  CZ  TYR A   1      -8.307  -5.206 135.492  0.00  0.00    +0.000 A 
ATOM     80  CE2 TYR A   1      -6.973  -5.341 135.314  0.00  0.00    +0.000 A 
ATOM     81  CD2 TYR A   1      -6.264  -4.388 134.513  0.00  0.00    +0.000 A 
BRANCH  79  82
ATOM     82  OH  TYR A   1      -8.961  -6.055 136.351  0.00  0.00    +0.000 OA
ATOM     83  HH  TYR A   1      -8.960  -5.940 137.329  0.00  0.00    +0.000 HD
ENDBRANCH  79  82
ENDBRANCH  75  76
ENDBRANCH   9  75
BRANCH   5  84
ATOM     84  CB  TYR A   1      -6.576  -2.341 128.512  0.00  0.00    +0.000 C 
BRANCH  84  85
ATOM     85  CG  TYR A   1      -7.055  -2.489 127.121  0.00  0.00    +0.000 A 
ATOM     86  CD1 TYR A   1      -8.321  -2.976 126.771  0.00  0.00    +0.000 A 
ATOM     87  CE1 TYR A   1      -8.591  -3.496 125.539  0.00  0.00    +0.000 A 
ATOM     88  CZ  TYR A   1      -7.706  -3.176 124.543  0.00  0.00    +0.000 A 
ATOM     89  CE2 TYR A   1      -6.498  -2.528 124.834  0.00  0.00    +0.000 A 
ATOM     90  CD2 TYR A   1      -6.136  -2.237 126.135  0.00  0.00    +0.000 A 
ENDBRANCH  84  85
ENDBRANCH   5  84
BRANCH   1  91
ATOM     91  CB  TYR A   1      -7.083   3.268 127.930  0.00  0.00    +0.000 C 
BRANCH  91  93
ATOM     92  CD1 TYR A   1      -7.791   4.440 125.970  0.00  0.00    +0.000 C 
ATOM     93  CG  TYR A   1      -7.733   3.064 126.613  0.00  0.00    +0.000 C 
ATOM     94  CD2 TYR A   1      -6.868   2.104 125.839  0.00  0.00    +0.000 C 
ENDBRANCH  91  93
ENDBRANCH   1  91
TORSDOF 28
ENDMDL
MODEL 4
REMARK VINA RESULT:      -8.0      3.311      6.527
REMARK  Name = CHEMBL1765667
REMARK  30 active torsions:
REMARK  status: ('A' for Active; 'I' for Inactive)
REMARK    1  A    between atoms: CD1_1  and  CG_2
REMARK    2  A    between atoms: CG_2  and  CD2_3
REMARK    3  A    between atoms: CG_2  and  CB_4
REMARK    4  A    between atoms: CB_4  and  CA_5
REMARK    5  A    between atoms: CA_9  and  CB_10
REMARK    6  A    between atoms: CB_10  and  CG_11
REMARK    7  A    between atoms: CA_20  and  CB_21
REMARK    8  A    between atoms: CB_21  and  CG_22
REMARK    9  A    between atoms: CZ_25  and  OH_26
REMARK   10  A    between atoms: C_37  and  C_38
REMARK   11  A    between atoms: CA_44  and  C_45
REMARK   12  A    between atoms: N_47  and  C_48
REMARK   13  A    between atoms: C_48  and  C_49
REMARK   14  A    between atoms: C_48  and  C_63
REMARK   15  A    between atoms: C_49  and  C_50
REMARK   16  A    between atoms: C_50  and  C_51
REMARK   17  A    between atoms: C_51  and  C_52
REMARK   18  A    between atoms: C_52  and  N_53
REMARK   19  A    between atoms: C_54  and  C_56
REMARK   20  A    between atoms: C_56  and  C_57
REMARK   21  A    between atoms: C_57  and  C_58
REMARK   22  A    between atoms: C_58  and  C_59
REMARK   23  A    between atoms: C_59  and  C_60
REMARK   24  A    between atoms: C_60  and  C_61
REMARK   25  A    between atoms: C_61  and  N_62
REMARK   26  A    between atoms: N_65  and  CA_66
REMARK   27  A    between atoms: CA_66  and  C_67
REMARK   28  A    between atoms: C_67  and  OXT_69
REMARK   29  A    between atoms: CA_73  and  CB_74
REMARK   30  A    between atoms: CB_74  and  CG_75
REMARK                            x       y       z     vdW  Elec       q    Type
REMARK                         _______ _______ _______ _____ _____    ______ ____
ROOT
ATOM      1  CA  TYR A   1      -3.432   5.118 127.877  0.00  0.00    +0.000 C 
ATOM      2  N   TYR A   1      -5.121   4.958 127.410  0.00  0.00    +0.000 N 
ATOM      3  C   TYR A   1      -6.417   4.401 127.691  0.00  0.00    +0.000 C 
ATOM      4  O   TYR A   1      -7.413   5.132 127.585  0.00  0.00    +0.000 OA
ATOM      5  CA  TYR A   1      -6.622   2.837 127.979  0.00  0.00    +0.000 C 
ATOM      6  N   TYR A   1      -6.687   2.360 129.336  0.00  0.00    +0.000 N 
ATOM      7  C   TYR A   1      -7.623   2.462 130.296  0.00  0.00    +0.000 C 
ATOM      8  O   TYR A   1      -7.403   1.660 131.214  0.00  0.00    +0.000 OA
ATOM      9  CA  TYR A   1      -8.926   3.471 130.182  0.00  0.00    +0.000 C 
ATOM     10  N   TYR A   1      -9.946   2.553 130.574  0.00  0.00    +0.000 N 
ATOM     11  C   UNK A   0     -10.134   2.123 131.851  0.00  0.00    +0.000 C 
ATOM     12  O   UNK A   0     -11.071   1.333 132.017  0.00  0.00    +0.000 OA
ATOM     13  C   UNK A   0      -9.265   2.573 133.079  0.00  0.00    +0.000 C 
ATOM     14  C   UNK A   0      -8.076   3.543 133.056  0.00  0.00    +0.000 C 
ATOM     15  S   UNK A   3      -7.029   3.870 134.502  0.00  0.00    +0.000 S 
ATOM     16  S   UNK A   3      -6.216   5.657 133.800  0.00  0.00    +0.000 S 
ATOM     17  C   UNK A   3      -4.517   5.791 134.431  0.00  0.00    +0.000 C 
ATOM     18  C   UNK A   3      -3.465   6.783 133.894  0.00  0.00    +0.000 C 
ATOM     19  N   UNK A   3      -2.494   6.134 132.953  0.00  0.00    +0.000 N 
ATOM     20  C   ASN A   2      -2.702   5.570 131.743  0.00  0.00    +0.000 C 
ATOM     21  O   ASN A   2      -1.857   4.990 131.072  0.00  0.00    +0.000 OA
ATOM     22  CA  ASN A   2      -4.045   5.721 131.204  0.00  0.00    +0.000 C 
ATOM     23  N   ASN A   2      -3.754   6.639 129.752  0.00  0.00    +0.000 N 
ATOM     24  C   TYR A   1      -3.580   6.491 128.381  0.00  0.00    +0.000 C 
ATOM     25  O   TYR A   1      -4.093   7.359 127.658  0.00  0.00    +0.000 OA
ATOM     26  H   TYR A   1      -5.368   5.868 127.000  0.00  0.00    +0.000 HD
ATOM     27  H   TYR A   1      -5.935   1.720 129.613  0.00  0.00    +0.000 HD
ATOM     28  H   TYR A   1     -10.528   2.143 129.851  0.00  0.00    +0.000 HD
ATOM     29  H   UNK A   3      -1.515   6.120 133.224  0.00  0.00    +0.000 HD
ATOM     30  H   ASN A   2      -4.406   7.391 129.541  0.00  0.00    +0.000 HD
ENDROOT
BRANCH  18  31
ATOM     31  C   UNK A   3      -2.604   7.439 135.034  0.00  0.00    +0.000 C 
ATOM     32  O   UNK A   3      -2.729   7.010 136.187  0.00  0.00    +0.000 OA
ATOM     33  N   PRO A   4      -1.570   8.302 134.690  0.00  0.00    +0.000 N 
ATOM     34  CD  PRO A   4      -1.588   9.442 133.788  0.00  0.00    +0.000 C 
ATOM     35  CG  PRO A   4      -0.164   9.494 133.322  0.00  0.00    +0.000 C 
ATOM     36  CB  PRO A   4       0.594   9.299 134.618  0.00  0.00    +0.000 C 
ATOM     37  CA  PRO A   4      -0.321   8.415 135.494  0.00  0.00    +0.000 C 
BRANCH  37  38
ATOM     38  C   PRO A   4      -0.494   9.219 136.799  0.00  0.00    +0.000 C 
ATOM     39  O   PRO A   4       0.476   9.410 137.535  0.00  0.00    +0.000 OA
ATOM     40  N   UNK A   5      -1.782   9.626 137.135  0.00  0.00    +0.000 N 
ATOM     41  H   UNK A   5      -2.593   9.205 136.691  0.00  0.00    +0.000 HD
BRANCH  40  42
ATOM     42  C   UNK A   5      -2.068  10.564 138.258  0.00  0.00    +0.000 C 
BRANCH  42  43
ATOM     43  C   UNK A   5      -3.289  10.072 139.120  0.00  0.00    +0.000 C 
ATOM     44  O   UNK A   5      -3.803  10.798 139.974  0.00  0.00    +0.000 OA
ATOM     45  N   GLY A   6      -3.771   8.794 138.886  0.00  0.00    +0.000 N 
ATOM     46  H   GLY A   6      -3.359   8.195 138.174  0.00  0.00    +0.000 HD
BRANCH  45  47
ATOM     47  CA  GLY A   6      -4.890   8.211 139.646  0.00  0.00    +0.000 C 
BRANCH  47  48
ATOM     48  C   GLY A   6      -5.913   7.541 138.722  0.00  0.00    +0.000 C 
ATOM     49  O   GLY A   6      -7.030   7.205 139.098  0.00  0.00    +0.000 OA
BRANCH  48  50
ATOM     50  OXT GLY A   6      -5.507   7.341 137.446  0.00  0.00    +0.000 OA
ATOM     51  HXT GLY A   6      -5.504   8.108 136.844  0.00  0.00    +0.000 HD
ENDBRANCH  48  50
ENDBRANCH  47  48
ENDBRANCH  45  47
ENDBRANCH  42  43
BRANCH  42  52
ATOM     52  C   UNK A   5      -2.372  11.975 137.711  0.00  0.00    +0.000 C 
BRANCH  52  53
ATOM     53  C   UNK A   5      -1.131  12.855 137.642  0.00  0.00    +0.000 C 
BRANCH  53  54
ATOM     54  C   UNK A   5      -1.213  14.026 136.700  0.00  0.00    +0.000 C 
BRANCH  54  55
ATOM     55  C   UNK A   5       0.143  14.724 136.657  0.00  0.00    +0.000 C 
BRANCH  55  56
ATOM     56  N   UNK A   5       0.945  14.240 135.557  0.00  0.00    +0.000 N 
ATOM     57  C   UNK A   5       2.108  13.548 135.805  0.00  0.00    +0.000 C 
ATOM     58  O   UNK A   5       2.508  13.322 136.944  0.00  0.00    +0.000 OA
ATOM     59  H   UNK A   5       0.619  14.386 134.611  0.00  0.00    +0.000 HD
BRANCH  57  60
ATOM     60  C   UNK A   5       2.851  13.095 134.561  0.00  0.00    +0.000 C 
BRANCH  60  61
ATOM     61  C   UNK A   5       2.115  13.577 133.311  0.00  0.00    +0.000 C 
BRANCH  61  62
ATOM     62  C   UNK A   5       1.361  12.451 132.617  0.00  0.00    +0.000 C 
BRANCH  62  63
ATOM     63  C   UNK A   5       0.667  12.970 131.360  0.00  0.00    +0.000 C 
BRANCH  63  64
ATOM     64  C   UNK A   5      -0.843  12.782 131.467  0.00  0.00    +0.000 C 
BRANCH  64  65
ATOM     65  C   UNK A   5      -1.335  13.166 132.857  0.00  0.00    +0.000 C 
BRANCH  65  66
ATOM     66  N   UNK A   5      -2.742  12.818 132.994  0.00  0.00    +0.000 NA
ATOM     67  H   UNK A   5      -3.300  13.669 133.052  0.00  0.00    +0.000 HD
ATOM     68  H   UNK A   5      -2.881  12.322 133.874  0.00  0.00    +0.000 HD
ENDBRANCH  65  66
ENDBRANCH  64  65
ENDBRANCH  63  64
ENDBRANCH  62  63
ENDBRANCH  61  62
ENDBRANCH  60  61
ENDBRANCH  57  60
ENDBRANCH  55  56
ENDBRANCH  54  55
ENDBRANCH  53  54
ENDBRANCH  52  53
ENDBRANCH  42  52
ENDBRANCH  40  42
ENDBRANCH  37  38
ENDBRANCH  18  31
BRANCH  22  69
ATOM     69  CB  ASN A   2      -4.741   4.211 131.518  0.00  0.00    +0.000 C 
BRANCH  69  70
ATOM     70  CG  ASN A   2      -3.776   3.240 131.992  0.00  0.00    +0.000 C 
ATOM     71  ND2 ASN A   2      -3.788   2.419 130.998  0.00  0.00    +0.000 N 
ATOM     72  OD1 ASN A   2      -3.259   2.872 133.058  0.00  0.00    +0.000 OA
ATOM     73 HD21 ASN A   2      -3.984   2.837 130.113  0.00  0.00    +0.000 HD
ATOM     74 HD22 ASN A   2      -3.173   1.631 130.937  0.00  0.00    +0.000 HD
ENDBRANCH  69  70
ENDBRANCH  22  69
BRANCH   9  75
ATOM     75  CB  TYR A   1      -9.355   4.919 130.791  0.00  0.00    +0.000 C 
BRANCH  75  76
ATOM     76  CG  TYR A   1     -10.283   5.811 130.034  0.00  0.00    +0.000 A 
ATOM     77  CD1 TYR A   1      -9.736   6.981 129.765  0.00  0.00    +0.000 A 
ATOM     78  CE1 TYR A   1     -10.361   7.870 128.961  0.00  0.00    +0.000 A 
ATOM     79  CZ  TYR A   1     -11.686   7.879 128.606  0.00  0.00    +0.000 A 
ATOM     80  CE2 TYR A   1     -12.330   6.741 128.953  0.00  0.00    +0.000 A 
ATOM     81  CD2 TYR A   1     -11.609   5.686 129.602  0.00  0.00    +0.000 A 
BRANCH  79  82
ATOM     82  OH  TYR A   1     -12.404   8.928 128.088  0.00  0.00    +0.000 OA
ATOM     83  HH  TYR A   1     -12.667   9.716 128.617  0.00  0.00    +0.000 HD
ENDBRANCH  79  82
ENDBRANCH  75  76
ENDBRANCH   9  75
BRANCH   5  84
ATOM     84  CB  TYR A   1      -7.766   2.155 127.290  0.00  0.00    +0.000 C 
BRANCH  84  85
ATOM     85  CG  TYR A   1      -7.668   2.242 125.818  0.00  0.00    +0.000 A 
ATOM     86  CD1 TYR A   1      -6.461   2.271 125.108  0.00  0.00    +0.000 A 
ATOM     87  CE1 TYR A   1      -6.368   2.766 123.841  0.00  0.00    +0.000 A 
ATOM     88  CZ  TYR A   1      -7.545   2.873 123.148  0.00  0.00    +0.000 A 
ATOM     89  CE2 TYR A   1      -8.777   2.679 123.787  0.00  0.00    +0.000 A 
ATOM     90  CD2 TYR A   1      -8.848   2.424 125.143  0.00  0.00    +0.000 A 
ENDBRANCH  84  85
ENDBRANCH   5  84
BRANCH   1  91
ATOM     91  CB  TYR A   1      -2.436   3.955 127.925  0.00  0.00    +0.000 C 
BRANCH  91  93
ATOM     92  CD1 TYR A   1      -1.012   2.810 126.382  0.00  0.00    +0.000 C 
ATOM     93  CG  TYR A   1      -2.426   3.330 126.580  0.00  0.00    +0.000 C 
ATOM     94  CD2 TYR A   1      -3.448   2.224 126.601  0.00  0.00    +0.000 C 
ENDBRANCH  91  93
ENDBRANCH   1  91
TORSDOF 28
ENDMDL
MODEL 5
REMARK VINA RESULT:      -7.9      1.424      2.006
REMARK  Name = CHEMBL1765667
REMARK  30 active torsions:
REMARK  status: ('A' for Active; 'I' for Inactive)
REMARK    1  A    between atoms: CD1_1  and  CG_2
REMARK    2  A    between atoms: CG_2  and  CD2_3
REMARK    3  A    between atoms: CG_2  and  CB_4
REMARK    4  A    between atoms: CB_4  and  CA_5
REMARK    5  A    between atoms: CA_9  and  CB_10
REMARK    6  A    between atoms: CB_10  and  CG_11
REMARK    7  A    between atoms: CA_20  and  CB_21
REMARK    8  A    between atoms: CB_21  and  CG_22
REMARK    9  A    between atoms: CZ_25  and  OH_26
REMARK   10  A    between atoms: C_37  and  C_38
REMARK   11  A    between atoms: CA_44  and  C_45
REMARK   12  A    between atoms: N_47  and  C_48
REMARK   13  A    between atoms: C_48  and  C_49
REMARK   14  A    between atoms: C_48  and  C_63
REMARK   15  A    between atoms: C_49  and  C_50
REMARK   16  A    between atoms: C_50  and  C_51
REMARK   17  A    between atoms: C_51  and  C_52
REMARK   18  A    between atoms: C_52  and  N_53
REMARK   19  A    between atoms: C_54  and  C_56
REMARK   20  A    between atoms: C_56  and  C_57
REMARK   21  A    between atoms: C_57  and  C_58
REMARK   22  A    between atoms: C_58  and  C_59
REMARK   23  A    between atoms: C_59  and  C_60
REMARK   24  A    between atoms: C_60  and  C_61
REMARK   25  A    between atoms: C_61  and  N_62
REMARK   26  A    between atoms: N_65  and  CA_66
REMARK   27  A    between atoms: CA_66  and  C_67
REMARK   28  A    between atoms: C_67  and  OXT_69
REMARK   29  A    between atoms: CA_73  and  CB_74
REMARK   30  A    between atoms: CB_74  and  CG_75
REMARK                            x       y       z     vdW  Elec       q    Type
REMARK                         _______ _______ _______ _____ _____    ______ ____
ROOT
ATOM      1  CA  TYR A   1      -7.001   2.997 125.524  0.00  0.00    +0.000 C 
ATOM      2  N   TYR A   1      -7.810   1.482 125.910  0.00  0.00    +0.000 N 
ATOM      3  C   TYR A   1      -7.752   0.197 126.553  0.00  0.00    +0.000 C 
ATOM      4  O   TYR A   1      -8.729  -0.178 127.219  0.00  0.00    +0.000 OA
ATOM      5  CA  TYR A   1      -6.538  -0.820 126.303  0.00  0.00    +0.000 C 
ATOM      6  N   TYR A   1      -5.442  -0.873 127.236  0.00  0.00    +0.000 N 
ATOM      7  C   TYR A   1      -5.332  -1.351 128.488  0.00  0.00    +0.000 C 
ATOM      8  O   TYR A   1      -4.142  -1.459 128.815  0.00  0.00    +0.000 OA
ATOM      9  CA  TYR A   1      -6.632  -1.806 129.399  0.00  0.00    +0.000 C 
ATOM     10  N   TYR A   1      -6.142  -3.063 129.864  0.00  0.00    +0.000 N 
ATOM     11  C   UNK A   0      -5.174  -3.201 130.810  0.00  0.00    +0.000 C 
ATOM     12  O   UNK A   0      -4.874  -4.364 131.102  0.00  0.00    +0.000 OA
ATOM     13  C   UNK A   0      -4.458  -2.004 131.531  0.00  0.00    +0.000 C 
ATOM     14  C   UNK A   0      -4.709  -0.508 131.297  0.00  0.00    +0.000 C 
ATOM     15  S   UNK A   3      -3.711   0.801 132.061  0.00  0.00    +0.000 S 
ATOM     16  S   UNK A   3      -5.085   2.341 131.771  0.00  0.00    +0.000 S 
ATOM     17  C   UNK A   3      -4.160   3.882 131.501  0.00  0.00    +0.000 C 
ATOM     18  C   UNK A   3      -4.774   5.178 130.933  0.00  0.00    +0.000 C 
ATOM     19  N   UNK A   3      -4.466   5.367 129.478  0.00  0.00    +0.000 N 
ATOM     20  C   ASN A   2      -4.832   4.625 128.409  0.00  0.00    +0.000 C 
ATOM     21  O   ASN A   2      -4.468   4.812 127.254  0.00  0.00    +0.000 OA
ATOM     22  CA  ASN A   2      -5.772   3.550 128.685  0.00  0.00    +0.000 C 
ATOM     23  N   ASN A   2      -7.151   4.018 127.730  0.00  0.00    +0.000 N 
ATOM     24  C   TYR A   1      -7.762   3.788 126.503  0.00  0.00    +0.000 C 
ATOM     25  O   TYR A   1      -9.002   3.745 126.496  0.00  0.00    +0.000 OA
ATOM     26  H   TYR A   1      -8.798   1.737 126.039  0.00  0.00    +0.000 HD
ATOM     27  H   TYR A   1      -4.529  -0.600 126.856  0.00  0.00    +0.000 HD
ATOM     28  H   TYR A   1      -6.487  -3.907 129.419  0.00  0.00    +0.000 HD
ATOM     29  H   UNK A   3      -3.920   6.182 129.215  0.00  0.00    +0.000 HD
ATOM     30  H   ASN A   2      -8.070   3.903 128.155  0.00  0.00    +0.000 HD
ENDROOT
BRANCH  18  31
ATOM     31  C   UNK A   3      -4.260   6.471 131.665  0.00  0.00    +0.000 C 
ATOM     32  O   UNK A   3      -5.085   7.183 132.250  0.00  0.00    +0.000 OA
ATOM     33  N   PRO A   4      -2.894   6.652 131.839  0.00  0.00    +0.000 N 
ATOM     34  CD  PRO A   4      -1.822   6.551 130.862  0.00  0.00    +0.000 C 
ATOM     35  CG  PRO A   4      -0.654   6.166 131.718  0.00  0.00    +0.000 C 
ATOM     36  CB  PRO A   4      -0.804   7.110 132.892  0.00  0.00    +0.000 C 
ATOM     37  CA  PRO A   4      -2.324   7.353 133.024  0.00  0.00    +0.000 C 
BRANCH  37  38
ATOM     38  C   PRO A   4      -2.472   8.887 132.967  0.00  0.00    +0.000 C 
ATOM     39  O   PRO A   4      -2.655   9.447 131.884  0.00  0.00    +0.000 OA
ATOM     40  N   UNK A   5      -2.302   9.592 134.155  0.00  0.00    +0.000 N 
ATOM     41  H   UNK A   5      -1.856   9.158 134.958  0.00  0.00    +0.000 HD
BRANCH  40  42
ATOM     42  C   UNK A   5      -2.601  11.047 134.284  0.00  0.00    +0.000 C 
BRANCH  42  43
ATOM     43  C   UNK A   5      -1.329  11.924 133.982  0.00  0.00    +0.000 C 
ATOM     44  O   UNK A   5      -0.771  12.568 134.872  0.00  0.00    +0.000 OA
ATOM     45  N   GLY A   6      -0.856  11.946 132.680  0.00  0.00    +0.000 N 
ATOM     46  H   GLY A   6      -1.305  11.406 131.943  0.00  0.00    +0.000 HD
BRANCH  45  47
ATOM     47  CA  GLY A   6       0.308  12.749 132.268  0.00  0.00    +0.000 C 
BRANCH  47  48
ATOM     48  C   GLY A   6       1.614  12.185 132.838  0.00  0.00    +0.000 C 
ATOM     49  O   GLY A   6       2.165  11.189 132.383  0.00  0.00    +0.000 OA
BRANCH  48  50
ATOM     50  OXT GLY A   6       2.136  12.862 133.889  0.00  0.00    +0.000 OA
ATOM     51  HXT GLY A   6       1.520  13.347 134.469  0.00  0.00    +0.000 HD
ENDBRANCH  48  50
ENDBRANCH  47  48
ENDBRANCH  45  47
ENDBRANCH  42  43
BRANCH  42  52
ATOM     52  C   UNK A   5      -3.106  11.364 135.709  0.00  0.00    +0.000 C 
BRANCH  52  53
ATOM     53  C   UNK A   5      -3.284  10.113 136.557  0.00  0.00    +0.000 C 
BRANCH  53  54
ATOM     54  C   UNK A   5      -4.647   9.928 137.168  0.00  0.00    +0.000 C 
BRANCH  54  55
ATOM     55  C   UNK A   5      -4.702   8.568 137.856  0.00  0.00    +0.000 C 
BRANCH  55  56
ATOM     56  N   UNK A   5      -5.729   7.731 137.279  0.00  0.00    +0.000 N 
ATOM     57  C   UNK A   5      -5.407   6.828 136.293  0.00  0.00    +0.000 C 
ATOM     58  O   UNK A   5      -4.263   6.701 135.866  0.00  0.00    +0.000 OA
ATOM     59  H   UNK A   5      -6.672   7.795 137.637  0.00  0.00    +0.000 HD
BRANCH  57  60
ATOM     60  C   UNK A   5      -6.578   6.012 135.777  0.00  0.00    +0.000 C 
BRANCH  60  61
ATOM     61  C   UNK A   5      -6.098   5.030 134.709  0.00  0.00    +0.000 C 
BRANCH  61  62
ATOM     62  C   UNK A   5      -6.074   3.594 135.215  0.00  0.00    +0.000 C 
BRANCH  62  63
ATOM     63  C   UNK A   5      -4.641   3.154 135.503  0.00  0.00    +0.000 C 
BRANCH  63  64
ATOM     64  C   UNK A   5      -4.529   2.585 136.914  0.00  0.00    +0.000 C 
BRANCH  64  65
ATOM     65  C   UNK A   5      -4.065   3.659 137.891  0.00  0.00    +0.000 C 
BRANCH  65  66
ATOM     66  N   UNK A   5      -2.937   4.386 137.323  0.00  0.00    +0.000 NA
ATOM     67  H   UNK A   5      -2.712   4.002 136.406  0.00  0.00    +0.000 HD
ATOM     68  H   UNK A   5      -2.116   4.238 137.907  0.00  0.00    +0.000 HD
ENDBRANCH  65  66
ENDBRANCH  64  65
ENDBRANCH  63  64
ENDBRANCH  62  63
ENDBRANCH  61  62
ENDBRANCH  60  61
ENDBRANCH  57  60
ENDBRANCH  55  56
ENDBRANCH  54  55
ENDBRANCH  53  54
ENDBRANCH  52  53
ENDBRANCH  42  52
ENDBRANCH  40  42
ENDBRANCH  37  38
ENDBRANCH  18  31
BRANCH  22  69
ATOM     69  CB  ASN A   2      -4.773   2.185 128.713  0.00  0.00    +0.000 C 
BRANCH  69  70
ATOM     70  CG  ASN A   2      -3.541   2.380 127.976  0.00  0.00    +0.000 C 
ATOM     71  ND2 ASN A   2      -3.838   1.756 126.887  0.00  0.00    +0.000 N 
ATOM     72  OD1 ASN A   2      -2.352   2.664 128.191  0.00  0.00    +0.000 OA
ATOM     73 HD21 ASN A   2      -4.807   1.772 126.648  0.00  0.00    +0.000 HD
ATOM     74 HD22 ASN A   2      -3.232   1.737 126.090  0.00  0.00    +0.000 HD
ENDBRANCH  69  70
ENDBRANCH  22  69
BRANCH   9  75
ATOM     75  CB  TYR A   1      -7.496  -1.170 130.624  0.00  0.00    +0.000 C 
BRANCH  75  76
ATOM     76  CG  TYR A   1      -8.144   0.167 130.477  0.00  0.00    +0.000 A 
ATOM     77  CD1 TYR A   1      -8.940   0.447 131.492  0.00  0.00    +0.000 A 
ATOM     78  CE1 TYR A   1      -9.501   1.670 131.616  0.00  0.00    +0.000 A 
ATOM     79  CZ  TYR A   1      -9.631   2.625 130.641  0.00  0.00    +0.000 A 
ATOM     80  CE2 TYR A   1      -8.918   2.340 129.527  0.00  0.00    +0.000 A 
ATOM     81  CD2 TYR A   1      -8.124   1.149 129.479  0.00  0.00    +0.000 A 
BRANCH  79  82
ATOM     82  OH  TYR A   1     -10.476   3.707 130.640  0.00  0.00    +0.000 OA
ATOM     83  HH  TYR A   1     -11.441   3.640 130.827  0.00  0.00    +0.000 HD
ENDBRANCH  79  82
ENDBRANCH  75  76
ENDBRANCH   9  75
BRANCH   5  84
ATOM     84  CB  TYR A   1      -6.885  -2.258 126.056  0.00  0.00    +0.000 C 
BRANCH  84  85
ATOM     85  CG  TYR A   1      -7.602  -2.452 124.778  0.00  0.00    +0.000 A 
ATOM     86  CD1 TYR A   1      -7.276  -1.795 123.584  0.00  0.00    +0.000 A 
ATOM     87  CE1 TYR A   1      -8.166  -1.653 122.561  0.00  0.00    +0.000 A 
ATOM     88  CZ  TYR A   1      -9.246  -2.496 122.579  0.00  0.00    +0.000 A 
ATOM     89  CE2 TYR A   1      -9.510  -3.304 123.694  0.00  0.00    +0.000 A 
ATOM     90  CD2 TYR A   1      -8.724  -3.239 124.827  0.00  0.00    +0.000 A 
ENDBRANCH  84  85
ENDBRANCH   5  84
BRANCH   1  91
ATOM     91  CB  TYR A   1      -5.747   3.108 124.652  0.00  0.00    +0.000 C 
BRANCH  91  93
ATOM     92  CD1 TYR A   1      -4.910   4.415 122.833  0.00  0.00    +0.000 C 
ATOM     93  CG  TYR A   1      -6.157   3.733 123.371  0.00  0.00    +0.000 C 
ATOM     94  CD2 TYR A   1      -6.638   2.623 122.474  0.00  0.00    +0.000 C 
ENDBRANCH  91  93
ENDBRANCH   1  91
TORSDOF 28
ENDMDL
MODEL 6
REMARK VINA RESULT:      -7.9      3.368     12.185
REMARK  Name = CHEMBL1765667
REMARK  30 active torsions:
REMARK  status: ('A' for Active; 'I' for Inactive)
REMARK    1  A    between atoms: CD1_1  and  CG_2
REMARK    2  A    between atoms: CG_2  and  CD2_3
REMARK    3  A    between atoms: CG_2  and  CB_4
REMARK    4  A    between atoms: CB_4  and  CA_5
REMARK    5  A    between atoms: CA_9  and  CB_10
REMARK    6  A    between atoms: CB_10  and  CG_11
REMARK    7  A    between atoms: CA_20  and  CB_21
REMARK    8  A    between atoms: CB_21  and  CG_22
REMARK    9  A    between atoms: CZ_25  and  OH_26
REMARK   10  A    between atoms: C_37  and  C_38
REMARK   11  A    between atoms: CA_44  and  C_45
REMARK   12  A    between atoms: N_47  and  C_48
REMARK   13  A    between atoms: C_48  and  C_49
REMARK   14  A    between atoms: C_48  and  C_63
REMARK   15  A    between atoms: C_49  and  C_50
REMARK   16  A    between atoms: C_50  and  C_51
REMARK   17  A    between atoms: C_51  and  C_52
REMARK   18  A    between atoms: C_52  and  N_53
REMARK   19  A    between atoms: C_54  and  C_56
REMARK   20  A    between atoms: C_56  and  C_57
REMARK   21  A    between atoms: C_57  and  C_58
REMARK   22  A    between atoms: C_58  and  C_59
REMARK   23  A    between atoms: C_59  and  C_60
REMARK   24  A    between atoms: C_60  and  C_61
REMARK   25  A    between atoms: C_61  and  N_62
REMARK   26  A    between atoms: N_65  and  CA_66
REMARK   27  A    between atoms: CA_66  and  C_67
REMARK   28  A    between atoms: C_67  and  OXT_69
REMARK   29  A    between atoms: CA_73  and  CB_74
REMARK   30  A    between atoms: CB_74  and  CG_75
REMARK                            x       y       z     vdW  Elec       q    Type
REMARK                         _______ _______ _______ _____ _____    ______ ____
ROOT
ATOM      1  CA  TYR A   1      -6.216   4.867 136.527  0.00  0.00    +0.000 C 
ATOM      2  N   TYR A   1      -5.619   6.367 137.229  0.00  0.00    +0.000 N 
ATOM      3  C   TYR A   1      -4.541   7.311 137.357  0.00  0.00    +0.000 C 
ATOM      4  O   TYR A   1      -4.801   8.522 137.291  0.00  0.00    +0.000 OA
ATOM      5  CA  TYR A   1      -3.054   6.850 137.737  0.00  0.00    +0.000 C 
ATOM      6  N   TYR A   1      -2.077   6.649 136.698  0.00  0.00    +0.000 N 
ATOM      7  C   TYR A   1      -1.403   7.499 135.902  0.00  0.00    +0.000 C 
ATOM      8  O   TYR A   1      -0.450   6.928 135.354  0.00  0.00    +0.000 OA
ATOM      9  CA  TYR A   1      -1.776   9.103 135.773  0.00  0.00    +0.000 C 
ATOM     10  N   TYR A   1      -0.462   9.643 135.906  0.00  0.00    +0.000 N 
ATOM     11  C   UNK A   0       0.491   9.578 134.938  0.00  0.00    +0.000 C 
ATOM     12  O   UNK A   0       1.574  10.105 135.217  0.00  0.00    +0.000 OA
ATOM     13  C   UNK A   0       0.287   8.907 133.533  0.00  0.00    +0.000 C 
ATOM     14  C   UNK A   0      -0.985   8.216 133.021  0.00  0.00    +0.000 C 
ATOM     15  S   UNK A   3      -1.067   7.323 131.443  0.00  0.00    +0.000 S 
ATOM     16  S   UNK A   3      -3.144   7.340 131.275  0.00  0.00    +0.000 S 
ATOM     17  C   UNK A   3      -3.656   5.812 130.433  0.00  0.00    +0.000 C 
ATOM     18  C   UNK A   3      -5.104   5.280 130.398  0.00  0.00    +0.000 C 
ATOM     19  N   UNK A   3      -5.332   4.177 131.387  0.00  0.00    +0.000 N 
ATOM     20  C   ASN A   2      -5.283   4.197 132.738  0.00  0.00    +0.000 C 
ATOM     21  O   ASN A   2      -5.408   3.223 133.470  0.00  0.00    +0.000 OA
ATOM     22  CA  ASN A   2      -5.108   5.510 133.338  0.00  0.00    +0.000 C 
ATOM     23  N   ASN A   2      -6.574   5.687 134.262  0.00  0.00    +0.000 N 
ATOM     24  C   TYR A   1      -7.084   5.535 135.546  0.00  0.00    +0.000 C 
ATOM     25  O   TYR A   1      -7.897   6.390 135.928  0.00  0.00    +0.000 OA
ATOM     26  H   TYR A   1      -6.443   6.982 137.275  0.00  0.00    +0.000 HD
ATOM     27  H   TYR A   1      -1.728   5.690 136.603  0.00  0.00    +0.000 HD
ATOM     28  H   TYR A   1      -0.195  10.043 136.800  0.00  0.00    +0.000 HD
ATOM     29  H   UNK A   3      -5.589   3.265 131.022  0.00  0.00    +0.000 HD
ATOM     30  H   ASN A   2      -7.028   6.598 134.241  0.00  0.00    +0.000 HD
ENDROOT
BRANCH  18  31
ATOM     31  C   UNK A   3      -5.511   4.705 128.993  0.00  0.00    +0.000 C 
ATOM     32  O   UNK A   3      -6.637   4.966 128.554  0.00  0.00    +0.000 OA
ATOM     33  N   PRO A   4      -4.534   4.131 128.188  0.00  0.00    +0.000 N 
ATOM     34  CD  PRO A   4      -3.544   3.121 128.524  0.00  0.00    +0.000 C 
ATOM     35  CG  PRO A   4      -2.440   3.433 127.559  0.00  0.00    +0.000 C 
ATOM     36  CB  PRO A   4      -3.206   3.643 126.270  0.00  0.00    +0.000 C 
ATOM     37  CA  PRO A   4      -4.579   4.204 126.701  0.00  0.00    +0.000 C 
BRANCH  37  38
ATOM     38  C   PRO A   4      -5.602   3.242 126.063  0.00  0.00    +0.000 C 
ATOM     39  O   PRO A   4      -5.604   3.069 124.843  0.00  0.00    +0.000 OA
ATOM     40  N   UNK A   5      -6.552   2.668 126.902  0.00  0.00    +0.000 N 
ATOM     41  H   UNK A   5      -6.728   3.051 127.827  0.00  0.00    +0.000 HD
BRANCH  40  42
ATOM     42  C   UNK A   5      -7.474   1.583 126.461  0.00  0.00    +0.000 C 
BRANCH  42  43
ATOM     43  C   UNK A   5      -8.390   2.056 125.271  0.00  0.00    +0.000 C 
ATOM     44  O   UNK A   5      -9.259   2.916 125.437  0.00  0.00    +0.000 OA
ATOM     45  N   GLY A   6      -8.186   1.476 124.030  0.00  0.00    +0.000 N 
ATOM     46  H   GLY A   6      -7.462   0.776 123.885  0.00  0.00    +0.000 HD
BRANCH  45  47
ATOM     47  CA  GLY A   6      -8.996   1.816 122.847  0.00  0.00    +0.000 C 
BRANCH  47  48
ATOM     48  C   GLY A   6      -8.484   3.084 122.157  0.00  0.00    +0.000 C 
ATOM     49  O   GLY A   6      -8.870   3.442 121.049  0.00  0.00    +0.000 OA
BRANCH  48  50
ATOM     50  OXT GLY A   6      -7.569   3.802 122.851  0.00  0.00    +0.000 OA
ATOM     51  HXT GLY A   6      -7.891   4.545 123.395  0.00  0.00    +0.000 HD
ENDBRANCH  48  50
ENDBRANCH  47  48
ENDBRANCH  45  47
ENDBRANCH  42  43
BRANCH  42  52
ATOM     52  C   UNK A   5      -8.368   1.129 127.636  0.00  0.00    +0.000 C 
BRANCH  52  53
ATOM     53  C   UNK A   5      -8.447   2.170 128.744  0.00  0.00    +0.000 C 
BRANCH  53  54
ATOM     54  C   UNK A   5      -7.955   1.723 130.094  0.00  0.00    +0.000 C 
BRANCH  54  55
ATOM     55  C   UNK A   5      -8.544   2.638 131.165  0.00  0.00    +0.000 C 
BRANCH  55  56
ATOM     56  N   UNK A   5      -8.825   3.952 130.633  0.00  0.00    +0.000 N 
ATOM     57  C   UNK A   5      -9.034   5.009 131.487  0.00  0.00    +0.000 C 
ATOM     58  O   UNK A   5      -8.999   4.884 132.708  0.00  0.00    +0.000 OA
ATOM     59  H   UNK A   5      -8.828   4.085 129.631  0.00  0.00    +0.000 HD
BRANCH  57  60
ATOM     60  C   UNK A   5      -9.317   6.332 130.798  0.00  0.00    +0.000 C 
BRANCH  60  61
ATOM     61  C   UNK A   5     -10.784   6.716 130.990  0.00  0.00    +0.000 C 
BRANCH  61  62
ATOM     62  C   UNK A   5     -11.702   5.985 130.020  0.00  0.00    +0.000 C 
BRANCH  62  63
ATOM     63  C   UNK A   5     -12.890   6.867 129.642  0.00  0.00    +0.000 C 
BRANCH  63  64
ATOM     64  C   UNK A   5     -12.606   8.325 129.988  0.00  0.00    +0.000 C 
BRANCH  64  65
ATOM     65  C   UNK A   5     -12.696   9.199 128.742  0.00  0.00    +0.000 C 
BRANCH  65  66
ATOM     66  N   UNK A   5     -13.354  10.456 129.071  0.00  0.00    +0.000 NA
ATOM     67  H   UNK A   5     -14.268  10.265 129.480  0.00  0.00    +0.000 HD
ATOM     68  H   UNK A   5     -13.525  10.979 128.214  0.00  0.00    +0.000 HD
ENDBRANCH  65  66
ENDBRANCH  64  65
ENDBRANCH  63  64
ENDBRANCH  62  63
ENDBRANCH  61  62
ENDBRANCH  60  61
ENDBRANCH  57  60
ENDBRANCH  55  56
ENDBRANCH  54  55
ENDBRANCH  53  54
ENDBRANCH  52  53
ENDBRANCH  42  52
ENDBRANCH  40  42
ENDBRANCH  37  38
ENDBRANCH  18  31
BRANCH  22  69
ATOM     69  CB  ASN A   2      -3.463   5.518 133.735  0.00  0.00    +0.000 C 
BRANCH  69  70
ATOM     70  CG  ASN A   2      -2.836   4.226 133.543  0.00  0.00    +0.000 C 
ATOM     71  ND2 ASN A   2      -2.926   3.759 134.741  0.00  0.00    +0.000 N 
ATOM     72  OD1 ASN A   2      -2.074   3.661 132.742  0.00  0.00    +0.000 OA
ATOM     73 HD21 ASN A   2      -3.716   4.084 135.258  0.00  0.00    +0.000 HD
ATOM     74 HD22 ASN A   2      -2.649   2.828 134.983  0.00  0.00    +0.000 HD
ENDBRANCH  69  70
ENDBRANCH  22  69
BRANCH   9  75
ATOM     75  CB  TYR A   1      -2.554  10.052 134.702  0.00  0.00    +0.000 C 
BRANCH  75  76
ATOM     76  CG  TYR A   1      -2.325  11.528 134.697  0.00  0.00    +0.000 A 
ATOM     77  CD1 TYR A   1      -2.309  12.032 135.916  0.00  0.00    +0.000 A 
ATOM     78  CE1 TYR A   1      -1.970  13.323 136.128  0.00  0.00    +0.000 A 
ATOM     79  CZ  TYR A   1      -1.934  14.334 135.202  0.00  0.00    +0.000 A 
ATOM     80  CE2 TYR A   1      -2.053  13.886 133.930  0.00  0.00    +0.000 A 
ATOM     81  CD2 TYR A   1      -2.177  12.481 133.681  0.00  0.00    +0.000 A 
BRANCH  79  82
ATOM     82  OH  TYR A   1      -1.928  15.686 135.442  0.00  0.00    +0.000 OA
ATOM     83  HH  TYR A   1      -2.016  16.075 136.342  0.00  0.00    +0.000 HD
ENDBRANCH  79  82
ENDBRANCH  75  76
ENDBRANCH   9  75
BRANCH   5  84
ATOM     84  CB  TYR A   1      -2.330   7.651 138.777  0.00  0.00    +0.000 C 
BRANCH  84  85
ATOM     85  CG  TYR A   1      -2.429   7.046 140.122  0.00  0.00    +0.000 A 
ATOM     86  CD1 TYR A   1      -2.618   5.678 140.359  0.00  0.00    +0.000 A 
ATOM     87  CE1 TYR A   1      -3.121   5.201 141.534  0.00  0.00    +0.000 A 
ATOM     88  CZ  TYR A   1      -3.072   6.057 142.603  0.00  0.00    +0.000 A 
ATOM     89  CE2 TYR A   1      -2.715   7.402 142.432  0.00  0.00    +0.000 A 
ATOM     90  CD2 TYR A   1      -2.453   7.920 141.179  0.00  0.00    +0.000 A 
ENDBRANCH  84  85
ENDBRANCH   5  84
BRANCH   1  91
ATOM     91  CB  TYR A   1      -5.624   3.484 136.816  0.00  0.00    +0.000 C 
BRANCH  91  93
ATOM     92  CD1 TYR A   1      -5.529   3.566 139.204  0.00  0.00    +0.000 C 
ATOM     93  CG  TYR A   1      -4.677   3.639 137.947  0.00  0.00    +0.000 C 
ATOM     94  CD2 TYR A   1      -3.691   2.506 137.854  0.00  0.00    +0.000 C 
ENDBRANCH  91  93
ENDBRANCH   1  91
TORSDOF 28
ENDMDL
MODEL 7
REMARK VINA RESULT:      -7.9      2.784      6.462
REMARK  Name = CHEMBL1765667
REMARK  30 active torsions:
REMARK  status: ('A' for Active; 'I' for Inactive)
REMARK    1  A    between atoms: CD1_1  and  CG_2
REMARK    2  A    between atoms: CG_2  and  CD2_3
REMARK    3  A    between atoms: CG_2  and  CB_4
REMARK    4  A    between atoms: CB_4  and  CA_5
REMARK    5  A    between atoms: CA_9  and  CB_10
REMARK    6  A    between atoms: CB_10  and  CG_11
REMARK    7  A    between atoms: CA_20  and  CB_21
REMARK    8  A    between atoms: CB_21  and  CG_22
REMARK    9  A    between atoms: CZ_25  and  OH_26
REMARK   10  A    between atoms: C_37  and  C_38
REMARK   11  A    between atoms: CA_44  and  C_45
REMARK   12  A    between atoms: N_47  and  C_48
REMARK   13  A    between atoms: C_48  and  C_49
REMARK   14  A    between atoms: C_48  and  C_63
REMARK   15  A    between atoms: C_49  and  C_50
REMARK   16  A    between atoms: C_50  and  C_51
REMARK   17  A    between atoms: C_51  and  C_52
REMARK   18  A    between atoms: C_52  and  N_53
REMARK   19  A    between atoms: C_54  and  C_56
REMARK   20  A    between atoms: C_56  and  C_57
REMARK   21  A    between atoms: C_57  and  C_58
REMARK   22  A    between atoms: C_58  and  C_59
REMARK   23  A    between atoms: C_59  and  C_60
REMARK   24  A    between atoms: C_60  and  C_61
REMARK   25  A    between atoms: C_61  and  N_62
REMARK   26  A    between atoms: N_65  and  CA_66
REMARK   27  A    between atoms: CA_66  and  C_67
REMARK   28  A    between atoms: C_67  and  OXT_69
REMARK   29  A    between atoms: CA_73  and  CB_74
REMARK   30  A    between atoms: CB_74  and  CG_75
REMARK                            x       y       z     vdW  Elec       q    Type
REMARK                         _______ _______ _______ _____ _____    ______ ____
ROOT
ATOM      1  CA  TYR A   1      -3.438   5.057 127.900  0.00  0.00    +0.000 C 
ATOM      2  N   TYR A   1      -5.117   4.871 127.404  0.00  0.00    +0.000 N 
ATOM      3  C   TYR A   1      -6.411   4.301 127.667  0.00  0.00    +0.000 C 
ATOM      4  O   TYR A   1      -7.414   5.019 127.536  0.00  0.00    +0.000 OA
ATOM      5  CA  TYR A   1      -6.603   2.738 127.967  0.00  0.00    +0.000 C 
ATOM      6  N   TYR A   1      -6.686   2.273 129.327  0.00  0.00    +0.000 N 
ATOM      7  C   TYR A   1      -7.641   2.373 130.269  0.00  0.00    +0.000 C 
ATOM      8  O   TYR A   1      -7.428   1.583 131.200  0.00  0.00    +0.000 OA
ATOM      9  CA  TYR A   1      -8.953   3.365 130.122  0.00  0.00    +0.000 C 
ATOM     10  N   TYR A   1      -9.970   2.439 130.505  0.00  0.00    +0.000 N 
ATOM     11  C   UNK A   0     -10.175   2.018 131.783  0.00  0.00    +0.000 C 
ATOM     12  O   UNK A   0     -11.106   1.219 131.939  0.00  0.00    +0.000 OA
ATOM     13  C   UNK A   0      -9.334   2.491 133.021  0.00  0.00    +0.000 C 
ATOM     14  C   UNK A   0      -8.156   3.476 133.009  0.00  0.00    +0.000 C 
ATOM     15  S   UNK A   3      -7.140   3.829 134.471  0.00  0.00    +0.000 S 
ATOM     16  S   UNK A   3      -6.336   5.619 133.766  0.00  0.00    +0.000 S 
ATOM     17  C   UNK A   3      -4.650   5.780 134.426  0.00  0.00    +0.000 C 
ATOM     18  C   UNK A   3      -3.601   6.780 133.898  0.00  0.00    +0.000 C 
ATOM     19  N   UNK A   3      -2.605   6.134 132.981  0.00  0.00    +0.000 N 
ATOM     20  C   ASN A   2      -2.785   5.555 131.773  0.00  0.00    +0.000 C 
ATOM     21  O   ASN A   2      -1.920   4.979 131.124  0.00  0.00    +0.000 OA
ATOM     22  CA  ASN A   2      -4.120   5.685 131.209  0.00  0.00    +0.000 C 
ATOM     23  N   ASN A   2      -3.813   6.591 129.754  0.00  0.00    +0.000 N 
ATOM     24  C   TYR A   1      -3.612   6.433 128.387  0.00  0.00    +0.000 C 
ATOM     25  O   TYR A   1      -4.123   7.287 127.646  0.00  0.00    +0.000 OA
ATOM     26  H   TYR A   1      -5.368   5.774 126.981  0.00  0.00    +0.000 HD
ATOM     27  H   TYR A   1      -5.931   1.645 129.624  0.00  0.00    +0.000 HD
ATOM     28  H   TYR A   1     -10.533   2.014 129.775  0.00  0.00    +0.000 HD
ATOM     29  H   UNK A   3      -1.631   6.134 133.270  0.00  0.00    +0.000 HD
ATOM     30  H   ASN A   2      -4.471   7.334 129.523  0.00  0.00    +0.000 HD
ENDROOT
BRANCH  18  31
ATOM     31  C   UNK A   3      -2.768   7.457 135.046  0.00  0.00    +0.000 C 
ATOM     32  O   UNK A   3      -2.928   7.055 136.205  0.00  0.00    +0.000 OA
ATOM     33  N   PRO A   4      -1.721   8.307 134.712  0.00  0.00    +0.000 N 
ATOM     34  CD  PRO A   4      -1.706   9.427 133.785  0.00  0.00    +0.000 C 
ATOM     35  CG  PRO A   4      -0.270   9.460 133.358  0.00  0.00    +0.000 C 
ATOM     36  CB  PRO A   4       0.450   9.292 134.679  0.00  0.00    +0.000 C 
ATOM     37  CA  PRO A   4      -0.494   8.432 135.549  0.00  0.00    +0.000 C 
BRANCH  37  38
ATOM     38  C   PRO A   4      -0.699   9.266 136.829  0.00  0.00    +0.000 C 
ATOM     39  O   PRO A   4       0.150   9.239 137.722  0.00  0.00    +0.000 OA
ATOM     40  N   UNK A   5      -1.900   9.959 136.959  0.00  0.00    +0.000 N 
ATOM     41  H   UNK A   5      -2.698   9.729 136.373  0.00  0.00    +0.000 HD
BRANCH  40  42
ATOM     42  C   UNK A   5      -2.152  10.948 138.045  0.00  0.00    +0.000 C 
BRANCH  42  43
ATOM     43  C   UNK A   5      -3.467  10.605 138.839  0.00  0.00    +0.000 C 
ATOM     44  O   UNK A   5      -3.499   9.682 139.655  0.00  0.00    +0.000 OA
ATOM     45  N   GLY A   6      -4.590  11.378 138.590  0.00  0.00    +0.000 N 
ATOM     46  H   GLY A   6      -4.566  12.150 137.927  0.00  0.00    +0.000 HD
BRANCH  45  47
ATOM     47  CA  GLY A   6      -5.886  11.139 139.250  0.00  0.00    +0.000 C 
BRANCH  47  48
ATOM     48  C   GLY A   6      -6.760  10.172 138.444  0.00  0.00    +0.000 C 
ATOM     49  O   GLY A   6      -7.985  10.199 138.474  0.00  0.00    +0.000 OA
BRANCH  48  50
ATOM     50  OXT GLY A   6      -6.092   9.274 137.681  0.00  0.00    +0.000 OA
ATOM     51  HXT GLY A   6      -6.370   9.171 136.751  0.00  0.00    +0.000 HD
ENDBRANCH  48  50
ENDBRANCH  47  48
ENDBRANCH  45  47
ENDBRANCH  42  43
BRANCH  42  52
ATOM     52  C   UNK A   5      -2.274  12.370 137.456  0.00  0.00    +0.000 C 
BRANCH  52  53
ATOM     53  C   UNK A   5      -1.712  12.467 136.044  0.00  0.00    +0.000 C 
BRANCH  53  54
ATOM     54  C   UNK A   5      -2.192  13.637 135.230  0.00  0.00    +0.000 C 
BRANCH  54  55
ATOM     55  C   UNK A   5      -2.008  13.321 133.749  0.00  0.00    +0.000 C 
BRANCH  55  56
ATOM     56  N   UNK A   5      -0.608  13.295 133.390  0.00  0.00    +0.000 N 
ATOM     57  C   UNK A   5      -0.231  12.937 132.117  0.00  0.00    +0.000 C 
ATOM     58  O   UNK A   5      -1.046  12.626 131.253  0.00  0.00    +0.000 OA
ATOM     59  H   UNK A   5       0.079  13.578 134.075  0.00  0.00    +0.000 HD
BRANCH  57  60
ATOM     60  C   UNK A   5       1.268  12.953 131.874  0.00  0.00    +0.000 C 
BRANCH  60  61
ATOM     61  C   UNK A   5       1.966  12.020 132.863  0.00  0.00    +0.000 C 
BRANCH  61  62
ATOM     62  C   UNK A   5       2.782  12.783 133.896  0.00  0.00    +0.000 C 
BRANCH  62  63
ATOM     63  C   UNK A   5       2.654  12.126 135.269  0.00  0.00    +0.000 C 
BRANCH  63  64
ATOM     64  C   UNK A   5       1.909  13.042 136.233  0.00  0.00    +0.000 C 
BRANCH  64  65
ATOM     65  C   UNK A   5       2.084  14.502 135.831  0.00  0.00    +0.000 C 
BRANCH  65  66
ATOM     66  N   UNK A   5       0.785  15.160 135.792  0.00  0.00    +0.000 NA
ATOM     67  H   UNK A   5       0.890  16.137 136.066  0.00  0.00    +0.000 HD
ATOM     68  H   UNK A   5       0.171  14.731 136.483  0.00  0.00    +0.000 HD
ENDBRANCH  65  66
ENDBRANCH  64  65
ENDBRANCH  63  64
ENDBRANCH  62  63
ENDBRANCH  61  62
ENDBRANCH  60  61
ENDBRANCH  57  60
ENDBRANCH  55  56
ENDBRANCH  54  55
ENDBRANCH  53  54
ENDBRANCH  52  53
ENDBRANCH  42  52
ENDBRANCH  40  42
ENDBRANCH  37  38
ENDBRANCH  18  31
BRANCH  22  69
ATOM     69  CB  ASN A   2      -4.802   4.170 131.525  0.00  0.00    +0.000 C 
BRANCH  69  70
ATOM     70  CG  ASN A   2      -3.837   3.218 132.038  0.00  0.00    +0.000 C 
ATOM     71  ND2 ASN A   2      -3.776   2.408 131.037  0.00  0.00    +0.000 N 
ATOM     72  OD1 ASN A   2      -3.365   2.852 133.127  0.00  0.00    +0.000 OA
ATOM     73 HD21 ASN A   2      -3.938   2.831 130.148  0.00  0.00    +0.000 HD
ATOM     74 HD22 ASN A   2      -3.138   1.637 131.001  0.00  0.00    +0.000 HD
ENDBRANCH  69  70
ENDBRANCH  22  69
BRANCH   9  75
ATOM     75  CB  TYR A   1      -9.411   4.814 130.709  0.00  0.00    +0.000 C 
BRANCH  75  76
ATOM     76  CG  TYR A   1     -10.458   5.615 130.007  0.00  0.00    +0.000 A 
ATOM     77  CD1 TYR A   1      -9.943   6.644 129.360  0.00  0.00    +0.000 A 
ATOM     78  CE1 TYR A   1     -10.709   7.403 128.545  0.00  0.00    +0.000 A 
ATOM     79  CZ  TYR A   1     -12.079   7.468 128.517  0.00  0.00    +0.000 A 
ATOM     80  CE2 TYR A   1     -12.666   6.497 129.253  0.00  0.00    +0.000 A 
ATOM     81  CD2 TYR A   1     -11.854   5.535 129.937  0.00  0.00    +0.000 A 
BRANCH  79  82
ATOM     82  OH  TYR A   1     -12.856   8.452 127.957  0.00  0.00    +0.000 OA
ATOM     83  HH  TYR A   1     -13.412   9.068 128.487  0.00  0.00    +0.000 HD
ENDBRANCH  79  82
ENDBRANCH  75  76
ENDBRANCH   9  75
BRANCH   5  84
ATOM     84  CB  TYR A   1      -7.726   2.035 127.265  0.00  0.00    +0.000 C 
BRANCH  84  85
ATOM     85  CG  TYR A   1      -7.324   0.709 126.749  0.00  0.00    +0.000 A 
ATOM     86  CD1 TYR A   1      -7.569  -0.501 127.410  0.00  0.00    +0.000 A 
ATOM     87  CE1 TYR A   1      -6.850  -1.632 127.158  0.00  0.00    +0.000 A 
ATOM     88  CZ  TYR A   1      -6.150  -1.651 125.980  0.00  0.00    +0.000 A 
ATOM     89  CE2 TYR A   1      -6.027  -0.495 125.197  0.00  0.00    +0.000 A 
ATOM     90  CD2 TYR A   1      -6.561   0.709 125.610  0.00  0.00    +0.000 A 
ENDBRANCH  84  85
ENDBRANCH   5  84
BRANCH   1  91
ATOM     91  CB  TYR A   1      -2.430   3.907 127.977  0.00  0.00    +0.000 C 
BRANCH  91  93
ATOM     92  CD1 TYR A   1      -0.930   2.699 126.558  0.00  0.00    +0.000 C 
ATOM     93  CG  TYR A   1      -2.309   3.336 126.613  0.00  0.00    +0.000 C 
ATOM     94  CD2 TYR A   1      -3.416   2.328 126.458  0.00  0.00    +0.000 C 
ENDBRANCH  91  93
ENDBRANCH   1  91
TORSDOF 28
ENDMDL
MODEL 8
REMARK VINA RESULT:      -7.8      3.040      6.062
REMARK  Name = CHEMBL1765667
REMARK  30 active torsions:
REMARK  status: ('A' for Active; 'I' for Inactive)
REMARK    1  A    between atoms: CD1_1  and  CG_2
REMARK    2  A    between atoms: CG_2  and  CD2_3
REMARK    3  A    between atoms: CG_2  and  CB_4
REMARK    4  A    between atoms: CB_4  and  CA_5
REMARK    5  A    between atoms: CA_9  and  CB_10
REMARK    6  A    between atoms: CB_10  and  CG_11
REMARK    7  A    between atoms: CA_20  and  CB_21
REMARK    8  A    between atoms: CB_21  and  CG_22
REMARK    9  A    between atoms: CZ_25  and  OH_26
REMARK   10  A    between atoms: C_37  and  C_38
REMARK   11  A    between atoms: CA_44  and  C_45
REMARK   12  A    between atoms: N_47  and  C_48
REMARK   13  A    between atoms: C_48  and  C_49
REMARK   14  A    between atoms: C_48  and  C_63
REMARK   15  A    between atoms: C_49  and  C_50
REMARK   16  A    between atoms: C_50  and  C_51
REMARK   17  A    between atoms: C_51  and  C_52
REMARK   18  A    between atoms: C_52  and  N_53
REMARK   19  A    between atoms: C_54  and  C_56
REMARK   20  A    between atoms: C_56  and  C_57
REMARK   21  A    between atoms: C_57  and  C_58
REMARK   22  A    between atoms: C_58  and  C_59
REMARK   23  A    between atoms: C_59  and  C_60
REMARK   24  A    between atoms: C_60  and  C_61
REMARK   25  A    between atoms: C_61  and  N_62
REMARK   26  A    between atoms: N_65  and  CA_66
REMARK   27  A    between atoms: CA_66  and  C_67
REMARK   28  A    between atoms: C_67  and  OXT_69
REMARK   29  A    between atoms: CA_73  and  CB_74
REMARK   30  A    between atoms: CB_74  and  CG_75
REMARK                            x       y       z     vdW  Elec       q    Type
REMARK                         _______ _______ _______ _____ _____    ______ ____
ROOT
ATOM      1  CA  TYR A   1      -8.164   2.886 129.843  0.00  0.00    +0.000 C 
ATOM      2  N   TYR A   1      -8.459   1.176 130.138  0.00  0.00    +0.000 N 
ATOM      3  C   TYR A   1      -7.953  -0.087 130.602  0.00  0.00    +0.000 C 
ATOM      4  O   TYR A   1      -8.671  -0.782 131.337  0.00  0.00    +0.000 OA
ATOM      5  CA  TYR A   1      -6.564  -0.689 130.072  0.00  0.00    +0.000 C 
ATOM      6  N   TYR A   1      -5.361  -0.502 130.842  0.00  0.00    +0.000 N 
ATOM      7  C   TYR A   1      -4.926  -1.031 131.999  0.00  0.00    +0.000 C 
ATOM      8  O   TYR A   1      -3.715  -0.821 132.154  0.00  0.00    +0.000 OA
ATOM      9  CA  TYR A   1      -5.892  -1.915 133.007  0.00  0.00    +0.000 C 
ATOM     10  N   TYR A   1      -5.011  -3.013 133.244  0.00  0.00    +0.000 N 
ATOM     11  C   UNK A   0      -3.904  -2.946 134.032  0.00  0.00    +0.000 C 
ATOM     12  O   UNK A   0      -3.257  -3.994 134.135  0.00  0.00    +0.000 OA
ATOM     13  C   UNK A   0      -3.435  -1.658 134.798  0.00  0.00    +0.000 C 
ATOM     14  C   UNK A   0      -4.117  -0.283 134.787  0.00  0.00    +0.000 C 
ATOM     15  S   UNK A   3      -3.403   1.189 135.574  0.00  0.00    +0.000 S 
ATOM     16  S   UNK A   3      -5.172   2.287 135.659  0.00  0.00    +0.000 S 
ATOM     17  C   UNK A   3      -4.755   4.046 135.466  0.00  0.00    +0.000 C 
ATOM     18  C   UNK A   3      -5.781   5.154 135.149  0.00  0.00    +0.000 C 
ATOM     19  N   UNK A   3      -5.772   5.545 133.701  0.00  0.00    +0.000 N 
ATOM     20  C   ASN A   2      -6.088   4.821 132.604  0.00  0.00    +0.000 C 
ATOM     21  O   ASN A   2      -5.977   5.200 131.444  0.00  0.00    +0.000 OA
ATOM     22  CA  ASN A   2      -6.644   3.502 132.863  0.00  0.00    +0.000 C 
ATOM     23  N   ASN A   2      -8.233   3.633 132.161  0.00  0.00    +0.000 N 
ATOM     24  C   TYR A   1      -8.945   3.340 131.003  0.00  0.00    +0.000 C 
ATOM     25  O   TYR A   1     -10.112   2.944 131.152  0.00  0.00    +0.000 OA
ATOM     26  H   TYR A   1      -9.445   1.125 130.425  0.00  0.00    +0.000 HD
ATOM     27  H   TYR A   1      -4.629   0.052 130.384  0.00  0.00    +0.000 HD
ATOM     28  H   TYR A   1      -5.180  -3.880 132.745  0.00  0.00    +0.000 HD
ATOM     29  H   UNK A   3      -5.516   6.501 133.474  0.00  0.00    +0.000 HD
ATOM     30  H   ASN A   2      -9.006   3.224 132.683  0.00  0.00    +0.000 HD
ENDROOT
BRANCH  18  31
ATOM     31  C   UNK A   3      -5.528   6.474 135.964  0.00  0.00    +0.000 C 
ATOM     32  O   UNK A   3      -4.680   7.272 135.545  0.00  0.00    +0.000 OA
ATOM     33  N   PRO A   4      -6.410   6.822 136.979  0.00  0.00    +0.000 N 
ATOM     34  CD  PRO A   4      -6.907   6.014 138.081  0.00  0.00    +0.000 C 
ATOM     35  CG  PRO A   4      -8.236   6.648 138.359  0.00  0.00    +0.000 C 
ATOM     36  CB  PRO A   4      -7.890   8.122 138.323  0.00  0.00    +0.000 C 
ATOM     37  CA  PRO A   4      -6.723   8.239 137.317  0.00  0.00    +0.000 C 
BRANCH  37  38
ATOM     38  C   PRO A   4      -5.606   8.949 138.109  0.00  0.00    +0.000 C 
ATOM     39  O   PRO A   4      -5.562   8.845 139.336  0.00  0.00    +0.000 OA
ATOM     40  N   UNK A   5      -4.732   9.764 137.395  0.00  0.00    +0.000 N 
ATOM     41  H   UNK A   5      -4.964  10.078 136.456  0.00  0.00    +0.000 HD
BRANCH  40  42
ATOM     42  C   UNK A   5      -3.502  10.355 137.994  0.00  0.00    +0.000 C 
BRANCH  42  43
ATOM     43  C   UNK A   5      -3.768  11.810 138.532  0.00  0.00    +0.000 C 
ATOM     44  O   UNK A   5      -2.856  12.635 138.620  0.00  0.00    +0.000 OA
ATOM     45  N   GLY A   6      -5.064  12.135 138.900  0.00  0.00    +0.000 N 
ATOM     46  H   GLY A   6      -5.823  11.462 138.817  0.00  0.00    +0.000 HD
BRANCH  45  47
ATOM     47  CA  GLY A   6      -5.432  13.454 139.442  0.00  0.00    +0.000 C 
BRANCH  47  48
ATOM     48  C   GLY A   6      -6.930  13.540 139.752  0.00  0.00    +0.000 C 
ATOM     49  O   GLY A   6      -7.487  14.587 140.063  0.00  0.00    +0.000 OA
BRANCH  48  50
ATOM     50  OXT GLY A   6      -7.616  12.376 139.658  0.00  0.00    +0.000 OA
ATOM     51  HXT GLY A   6      -8.491  12.397 139.226  0.00  0.00    +0.000 HD
ENDBRANCH  48  50
ENDBRANCH  47  48
ENDBRANCH  45  47
ENDBRANCH  42  43
BRANCH  42  52
ATOM     52  C   UNK A   5      -2.367  10.403 136.948  0.00  0.00    +0.000 C 
BRANCH  52  53
ATOM     53  C   UNK A   5      -2.890  10.388 135.519  0.00  0.00    +0.000 C 
BRANCH  53  54
ATOM     54  C   UNK A   5      -2.392  11.496 134.631  0.00  0.00    +0.000 C 
BRANCH  54  55
ATOM     55  C   UNK A   5      -1.454  10.908 133.581  0.00  0.00    +0.000 C 
BRANCH  55  56
ATOM     56  N   UNK A   5      -1.925   9.621 133.122  0.00  0.00    +0.000 N 
ATOM     57  C   UNK A   5      -1.058   8.555 133.059  0.00  0.00    +0.000 C 
ATOM     58  O   UNK A   5       0.125   8.650 133.375  0.00  0.00    +0.000 OA
ATOM     59  H   UNK A   5      -2.901   9.511 132.886  0.00  0.00    +0.000 HD
BRANCH  57  60
ATOM     60  C   UNK A   5      -1.681   7.263 132.563  0.00  0.00    +0.000 C 
BRANCH  60  61
ATOM     61  C   UNK A   5      -3.138   7.505 132.170  0.00  0.00    +0.000 C 
BRANCH  61  62
ATOM     62  C   UNK A   5      -3.343   7.463 130.662  0.00  0.00    +0.000 C 
BRANCH  62  63
ATOM     63  C   UNK A   5      -2.340   6.512 130.014  0.00  0.00    +0.000 C 
BRANCH  63  64
ATOM     64  C   UNK A   5      -3.064   5.400 129.263  0.00  0.00    +0.000 C 
BRANCH  64  65
ATOM     65  C   UNK A   5      -3.136   5.716 127.774  0.00  0.00    +0.000 C 
BRANCH  65  66
ATOM     66  N   UNK A   5      -4.528   5.755 127.346  0.00  0.00    +0.000 NA
ATOM     67  H   UNK A   5      -5.024   6.479 127.866  0.00  0.00    +0.000 HD
ATOM     68  H   UNK A   5      -4.976   4.871 127.584  0.00  0.00    +0.000 HD
ENDBRANCH  65  66
ENDBRANCH  64  65
ENDBRANCH  63  64
ENDBRANCH  62  63
ENDBRANCH  61  62
ENDBRANCH  60  61
ENDBRANCH  57  60
ENDBRANCH  55  56
ENDBRANCH  54  55
ENDBRANCH  53  54
ENDBRANCH  52  53
ENDBRANCH  42  52
ENDBRANCH  40  42
ENDBRANCH  37  38
ENDBRANCH  18  31
BRANCH  22  69
ATOM     69  CB  ASN A   2      -5.321   2.484 132.590  0.00  0.00    +0.000 C 
BRANCH  69  70
ATOM     70  CG  ASN A   2      -4.167   3.194 132.075  0.00  0.00    +0.000 C 
ATOM     71  ND2 ASN A   2      -4.070   2.638 130.916  0.00  0.00    +0.000 N 
ATOM     72  OD1 ASN A   2      -3.208   3.859 132.496  0.00  0.00    +0.000 OA
ATOM     73 HD21 ASN A   2      -4.936   2.332 130.525  0.00  0.00    +0.000 HD
ATOM     74 HD22 ASN A   2      -3.405   2.932 130.227  0.00  0.00    +0.000 HD
ENDBRANCH  69  70
ENDBRANCH  22  69
BRANCH   9  75
ATOM     75  CB  TYR A   1      -6.690  -1.659 134.403  0.00  0.00    +0.000 C 
BRANCH  75  76
ATOM     76  CG  TYR A   1      -7.142  -2.813 135.236  0.00  0.00    +0.000 A 
ATOM     77  CD1 TYR A   1      -8.177  -3.433 134.702  0.00  0.00    +0.000 A 
ATOM     78  CE1 TYR A   1      -8.639  -4.589 135.230  0.00  0.00    +0.000 A 
ATOM     79  CZ  TYR A   1      -8.386  -5.089 136.481  0.00  0.00    +0.000 A 
ATOM     80  CE2 TYR A   1      -7.400  -4.423 137.124  0.00  0.00    +0.000 A 
ATOM     81  CD2 TYR A   1      -6.737  -3.333 136.471  0.00  0.00    +0.000 A 
BRANCH  79  82
ATOM     82  OH  TYR A   1      -9.093  -6.057 137.152  0.00  0.00    +0.000 OA
ATOM     83  HH  TYR A   1      -9.585  -5.885 137.987  0.00  0.00    +0.000 HD
ENDBRANCH  79  82
ENDBRANCH  75  76
ENDBRANCH   9  75
BRANCH   5  84
ATOM     84  CB  TYR A   1      -6.542  -2.140 129.695  0.00  0.00    +0.000 C 
BRANCH  84  85
ATOM     85  CG  TYR A   1      -7.547  -2.467 128.661  0.00  0.00    +0.000 A 
ATOM     86  CD1 TYR A   1      -8.522  -3.463 128.797  0.00  0.00    +0.000 A 
ATOM     87  CE1 TYR A   1      -9.143  -4.031 127.724  0.00  0.00    +0.000 A 
ATOM     88  CZ  TYR A   1      -9.066  -3.337 126.545  0.00  0.00    +0.000 A 
ATOM     89  CE2 TYR A   1      -8.226  -2.221 126.420  0.00  0.00    +0.000 A 
ATOM     90  CD2 TYR A   1      -7.413  -1.817 127.461  0.00  0.00    +0.000 A 
ENDBRANCH  84  85
ENDBRANCH   5  84
BRANCH   1  91
ATOM     91  CB  TYR A   1      -7.143   3.424 128.837  0.00  0.00    +0.000 C 
BRANCH  91  93
ATOM     92  CD1 TYR A   1      -7.693   4.107 126.612  0.00  0.00    +0.000 C 
ATOM     93  CG  TYR A   1      -7.515   2.890 127.505  0.00  0.00    +0.000 C 
ATOM     94  CD2 TYR A   1      -6.383   2.005 127.053  0.00  0.00    +0.000 C 
ENDBRANCH  91  93
ENDBRANCH   1  91
TORSDOF 28
ENDMDL
MODEL 9
REMARK VINA RESULT:      -7.7      3.049      5.099
REMARK  Name = CHEMBL1765667
REMARK  30 active torsions:
REMARK  status: ('A' for Active; 'I' for Inactive)
REMARK    1  A    between atoms: CD1_1  and  CG_2
REMARK    2  A    between atoms: CG_2  and  CD2_3
REMARK    3  A    between atoms: CG_2  and  CB_4
REMARK    4  A    between atoms: CB_4  and  CA_5
REMARK    5  A    between atoms: CA_9  and  CB_10
REMARK    6  A    between atoms: CB_10  and  CG_11
REMARK    7  A    between atoms: CA_20  and  CB_21
REMARK    8  A    between atoms: CB_21  and  CG_22
REMARK    9  A    between atoms: CZ_25  and  OH_26
REMARK   10  A    between atoms: C_37  and  C_38
REMARK   11  A    between atoms: CA_44  and  C_45
REMARK   12  A    between atoms: N_47  and  C_48
REMARK   13  A    between atoms: C_48  and  C_49
REMARK   14  A    between atoms: C_48  and  C_63
REMARK   15  A    between atoms: C_49  and  C_50
REMARK   16  A    between atoms: C_50  and  C_51
REMARK   17  A    between atoms: C_51  and  C_52
REMARK   18  A    between atoms: C_52  and  N_53
REMARK   19  A    between atoms: C_54  and  C_56
REMARK   20  A    between atoms: C_56  and  C_57
REMARK   21  A    between atoms: C_57  and  C_58
REMARK   22  A    between atoms: C_58  and  C_59
REMARK   23  A    between atoms: C_59  and  C_60
REMARK   24  A    between atoms: C_60  and  C_61
REMARK   25  A    between atoms: C_61  and  N_62
REMARK   26  A    between atoms: N_65  and  CA_66
REMARK   27  A    between atoms: CA_66  and  C_67
REMARK   28  A    between atoms: C_67  and  OXT_69
REMARK   29  A    between atoms: CA_73  and  CB_74
REMARK   30  A    between atoms: CB_74  and  CG_75
REMARK                            x       y       z     vdW  Elec       q    Type
REMARK                         _______ _______ _______ _____ _____    ______ ____
ROOT
ATOM      1  CA  TYR A   1      -3.395   5.047 127.833  0.00  0.00    +0.000 C 
ATOM      2  N   TYR A   1      -5.074   4.833 127.351  0.00  0.00    +0.000 N 
ATOM      3  C   TYR A   1      -6.361   4.256 127.633  0.00  0.00    +0.000 C 
ATOM      4  O   TYR A   1      -7.372   4.960 127.491  0.00  0.00    +0.000 OA
ATOM      5  CA  TYR A   1      -6.534   2.697 127.966  0.00  0.00    +0.000 C 
ATOM      6  N   TYR A   1      -6.606   2.260 129.337  0.00  0.00    +0.000 N 
ATOM      7  C   TYR A   1      -7.557   2.370 130.281  0.00  0.00    +0.000 C 
ATOM      8  O   TYR A   1      -7.331   1.602 131.227  0.00  0.00    +0.000 OA
ATOM      9  CA  TYR A   1      -8.881   3.345 130.120  0.00  0.00    +0.000 C 
ATOM     10  N   TYR A   1      -9.885   2.416 130.528  0.00  0.00    +0.000 N 
ATOM     11  C   UNK A   0     -10.080   2.021 131.815  0.00  0.00    +0.000 C 
ATOM     12  O   UNK A   0     -11.001   1.215 131.993  0.00  0.00    +0.000 OA
ATOM     13  C   UNK A   0      -9.238   2.529 133.039  0.00  0.00    +0.000 C 
ATOM     14  C   UNK A   0      -8.071   3.525 133.000  0.00  0.00    +0.000 C 
ATOM     15  S   UNK A   3      -7.051   3.921 134.448  0.00  0.00    +0.000 S 
ATOM     16  S   UNK A   3      -6.270   5.703 133.702  0.00  0.00    +0.000 S 
ATOM     17  C   UNK A   3      -4.582   5.896 134.349  0.00  0.00    +0.000 C 
ATOM     18  C   UNK A   3      -3.546   6.895 133.795  0.00  0.00    +0.000 C 
ATOM     19  N   UNK A   3      -2.549   6.240 132.887  0.00  0.00    +0.000 N 
ATOM     20  C   ASN A   2      -2.728   5.634 131.692  0.00  0.00    +0.000 C 
ATOM     21  O   ASN A   2      -1.861   5.053 131.051  0.00  0.00    +0.000 OA
ATOM     22  CA  ASN A   2      -4.067   5.738 131.132  0.00  0.00    +0.000 C 
ATOM     23  N   ASN A   2      -3.777   6.616 129.657  0.00  0.00    +0.000 N 
ATOM     24  C   TYR A   1      -3.581   6.431 128.293  0.00  0.00    +0.000 C 
ATOM     25  O   TYR A   1      -4.105   7.264 127.536  0.00  0.00    +0.000 OA
ATOM     26  H   TYR A   1      -5.337   5.724 126.910  0.00  0.00    +0.000 HD
ATOM     27  H   TYR A   1      -5.843   1.647 129.643  0.00  0.00    +0.000 HD
ATOM     28  H   TYR A   1     -10.448   1.970 129.810  0.00  0.00    +0.000 HD
ATOM     29  H   UNK A   3      -1.573   6.257 133.170  0.00  0.00    +0.000 HD
ATOM     30  H   ASN A   2      -4.443   7.347 129.413  0.00  0.00    +0.000 HD
ENDROOT
BRANCH  18  31
ATOM     31  C   UNK A   3      -2.715   7.606 134.924  0.00  0.00    +0.000 C 
ATOM     32  O   UNK A   3      -2.759   7.139 136.069  0.00  0.00    +0.000 OA
ATOM     33  N   PRO A   4      -1.783   8.573 134.572  0.00  0.00    +0.000 N 
ATOM     34  CD  PRO A   4      -1.942   9.728 133.702  0.00  0.00    +0.000 C 
ATOM     35  CG  PRO A   4      -0.546   9.929 133.193  0.00  0.00    +0.000 C 
ATOM     36  CB  PRO A   4       0.270   9.780 134.459  0.00  0.00    +0.000 C 
ATOM     37  CA  PRO A   4      -0.525   8.790 135.339  0.00  0.00    +0.000 C 
BRANCH  37  38
ATOM     38  C   PRO A   4      -0.731   9.542 136.670  0.00  0.00    +0.000 C 
ATOM     39  O   PRO A   4       0.233   9.766 137.405  0.00  0.00    +0.000 OA
ATOM     40  N   UNK A   5      -2.037   9.864 137.029  0.00  0.00    +0.000 N 
ATOM     41  H   UNK A   5      -2.827   9.411 136.577  0.00  0.00    +0.000 HD
BRANCH  40  42
ATOM     42  C   UNK A   5      -2.366  10.749 138.182  0.00  0.00    +0.000 C 
BRANCH  42  43
ATOM     43  C   UNK A   5      -2.636   9.913 139.488  0.00  0.00    +0.000 C 
ATOM     44  O   UNK A   5      -2.667  10.452 140.597  0.00  0.00    +0.000 OA
ATOM     45  N   GLY A   6      -2.838   8.550 139.351  0.00  0.00    +0.000 N 
ATOM     46  H   GLY A   6      -2.826   8.101 138.437  0.00  0.00    +0.000 HD
BRANCH  45  47
ATOM     47  CA  GLY A   6      -3.073   7.658 140.500  0.00  0.00    +0.000 C 
BRANCH  47  48
ATOM     48  C   GLY A   6      -2.518   6.252 140.247  0.00  0.00    +0.000 C 
ATOM     49  O   GLY A   6      -2.215   5.847 139.130  0.00  0.00    +0.000 OA
BRANCH  48  50
ATOM     50  OXT GLY A   6      -2.377   5.471 141.344  0.00  0.00    +0.000 OA
ATOM     51  HXT GLY A   6      -3.134   4.916 141.608  0.00  0.00    +0.000 HD
ENDBRANCH  48  50
ENDBRANCH  47  48
ENDBRANCH  45  47
ENDBRANCH  42  43
BRANCH  42  52
ATOM     52  C   UNK A   5      -3.613  11.603 137.863  0.00  0.00    +0.000 C 
BRANCH  52  53
ATOM     53  C   UNK A   5      -4.896  10.987 138.404  0.00  0.00    +0.000 C 
BRANCH  53  54
ATOM     54  C   UNK A   5      -5.845  11.943 139.074  0.00  0.00    +0.000 C 
BRANCH  54  55
ATOM     55  C   UNK A   5      -7.061  11.167 139.573  0.00  0.00    +0.000 C 
BRANCH  55  56
ATOM     56  N   UNK A   5      -7.505  10.203 138.592  0.00  0.00    +0.000 N 
ATOM     57  C   UNK A   5      -8.821   9.806 138.565  0.00  0.00    +0.000 C 
ATOM     58  O   UNK A   5      -9.654  10.237 139.357  0.00  0.00    +0.000 OA
ATOM     59  H   UNK A   5      -6.843   9.858 137.910  0.00  0.00    +0.000 HD
BRANCH  57  60
ATOM     60  C   UNK A   5      -9.153   8.793 137.485  0.00  0.00    +0.000 C 
BRANCH  60  61
ATOM     61  C   UNK A   5      -8.774   7.388 137.955  0.00  0.00    +0.000 C 
BRANCH  61  62
ATOM     62  C   UNK A   5      -7.806   6.703 137.001  0.00  0.00    +0.000 C 
BRANCH  62  63
ATOM     63  C   UNK A   5      -6.375   7.155 137.277  0.00  0.00    +0.000 C 
BRANCH  63  64
ATOM     64  C   UNK A   5      -5.723   6.263 138.328  0.00  0.00    +0.000 C 
BRANCH  64  65
ATOM     65  C   UNK A   5      -5.568   4.841 137.802  0.00  0.00    +0.000 C 
BRANCH  65  66
ATOM     66  N   UNK A   5      -4.796   4.048 138.749  0.00  0.00    +0.000 NA
ATOM     67  H   UNK A   5      -5.105   3.077 138.713  0.00  0.00    +0.000 HD
ATOM     68  H   UNK A   5      -4.986   4.377 139.695  0.00  0.00    +0.000 HD
ENDBRANCH  65  66
ENDBRANCH  64  65
ENDBRANCH  63  64
ENDBRANCH  62  63
ENDBRANCH  61  62
ENDBRANCH  60  61
ENDBRANCH  57  60
ENDBRANCH  55  56
ENDBRANCH  54  55
ENDBRANCH  53  54
ENDBRANCH  52  53
ENDBRANCH  42  52
ENDBRANCH  40  42
ENDBRANCH  37  38
ENDBRANCH  18  31
BRANCH  22  69
ATOM     69  CB  ASN A   2      -4.732   4.223 131.484  0.00  0.00    +0.000 C 
BRANCH  69  70
ATOM     70  CG  ASN A   2      -3.752   3.290 132.005  0.00  0.00    +0.000 C 
ATOM     71  ND2 ASN A   2      -3.728   2.437 131.038  0.00  0.00    +0.000 N 
ATOM     72  OD1 ASN A   2      -3.244   2.970 133.091  0.00  0.00    +0.000 OA
ATOM     73 HD21 ASN A   2      -3.919   2.822 130.137  0.00  0.00    +0.000 HD
ATOM     74 HD22 ASN A   2      -3.094   1.662 131.013  0.00  0.00    +0.000 HD
ENDBRANCH  69  70
ENDBRANCH  22  69
BRANCH   9  75
ATOM     75  CB  TYR A   1      -9.351   4.801 130.678  0.00  0.00    +0.000 C 
BRANCH  75  76
ATOM     76  CG  TYR A   1     -10.246   5.670 129.858  0.00  0.00    +0.000 A 
ATOM     77  CD1 TYR A   1     -11.519   5.499 130.163  0.00  0.00    +0.000 A 
ATOM     78  CE1 TYR A   1     -12.472   6.300 129.635  0.00  0.00    +0.000 A 
ATOM     79  CZ  TYR A   1     -12.357   7.111 128.536  0.00  0.00    +0.000 A 
ATOM     80  CE2 TYR A   1     -11.080   7.242 128.109  0.00  0.00    +0.000 A 
ATOM     81  CD2 TYR A   1     -10.025   6.577 128.814  0.00  0.00    +0.000 A 
BRANCH  79  82
ATOM     82  OH  TYR A   1     -13.374   7.657 127.792  0.00  0.00    +0.000 OA
ATOM     83  HH  TYR A   1     -13.424   8.614 127.565  0.00  0.00    +0.000 HD
ENDBRANCH  79  82
ENDBRANCH  75  76
ENDBRANCH   9  75
BRANCH   5  84
ATOM     84  CB  TYR A   1      -7.653   1.968 127.285  0.00  0.00    +0.000 C 
BRANCH  84  85
ATOM     85  CG  TYR A   1      -7.263   0.604 126.868  0.00  0.00    +0.000 A 
ATOM     86  CD1 TYR A   1      -6.029   0.279 126.290  0.00  0.00    +0.000 A 
ATOM     87  CE1 TYR A   1      -5.845  -0.848 125.543  0.00  0.00    +0.000 A 
ATOM     88  CZ  TYR A   1      -6.785  -1.833 125.696  0.00  0.00    +0.000 A 
ATOM     89  CE2 TYR A   1      -7.961  -1.600 126.421  0.00  0.00    +0.000 A 
ATOM     90  CD2 TYR A   1      -8.237  -0.358 126.958  0.00  0.00    +0.000 A 
ENDBRANCH  84  85
ENDBRANCH   5  84
BRANCH   1  91
ATOM     91  CB  TYR A   1      -2.374   3.909 127.930  0.00  0.00    +0.000 C 
BRANCH  91  93
ATOM     92  CD1 TYR A   1      -0.849   2.662 126.575  0.00  0.00    +0.000 C 
ATOM     93  CG  TYR A   1      -2.199   3.360 126.563  0.00  0.00    +0.000 C 
ATOM     94  CD2 TYR A   1      -3.339   2.404 126.325  0.00  0.00    +0.000 C 
ENDBRANCH  91  93
ENDBRANCH   1  91
TORSDOF 28
ENDMDL
