MODEL 1
REMARK VINA RESULT:      -9.1      0.000      0.000
REMARK  Name = CHEMBL1254210
REMARK  7 active torsions:
REMARK  status: ('A' for Active; 'I' for Inactive)
REMARK    1  A    between atoms: C_1  and  O_2
REMARK    2  A    between atoms: O_2  and  N_3
REMARK    3  A    between atoms: C_6  and  C_7
REMARK    4  A    between atoms: C_9  and  C_10
REMARK    5  A    between atoms: C_14  and  C_16
REMARK    6  A    between atoms: C_19  and  C_20
REMARK    7  A    between atoms: C_25  and  C_26
REMARK                            x       y       z     vdW  Elec       q    Type
REMARK                         _______ _______ _______ _____ _____    ______ ____
ROOT
ATOM      1  N   UNL     1      -8.882   2.490 128.503  0.00  0.00    +0.000 NA
ATOM      2  C   UNL     1      -9.026   3.177 129.600  0.00  0.00    +0.000 C 
ATOM      3  C   UNL     1     -10.332   3.209 130.347  0.00  0.00    +0.000 C 
ATOM      4  C   UNL     1     -10.284   4.639 130.880  0.00  0.00    +0.000 C 
ATOM      5  N   UNL     1      -8.848   4.907 131.101  0.00  0.00    +0.000 N 
ATOM      6  C   UNL     1      -8.424   5.839 132.041  0.00  0.00    +0.000 C 
ATOM      7  O   UNL     1      -9.211   6.479 132.745  0.00  0.00    +0.000 OA
ATOM      8  C   UNL     1      -7.987   4.027 130.300  0.00  0.00    +0.000 C 
ENDROOT
BRANCH   4   9
ATOM      9  C   UNL     1     -10.874   5.639 129.921  0.00  0.00    +0.000 A 
ATOM     10  N   UNL     1     -10.366   6.762 129.456  0.00  0.00    +0.000 NA
ATOM     11  C   UNL     1     -11.308   7.152 128.538  0.00  0.00    +0.000 A 
ATOM     12  C   UNL     1     -11.110   8.297 127.627  0.00  0.00    +0.000 C 
ATOM     13  N   UNL     1     -12.392   6.368 128.477  0.00  0.00    +0.000 NA
ATOM     14  O   UNL     1     -12.110   5.361 129.401  0.00  0.00    +0.000 OA
ENDBRANCH   4   9
BRANCH   6  15
ATOM     15  C   UNL     1      -6.970   6.097 132.224  0.00  0.00    +0.000 A 
ATOM     16  C   UNL     1      -6.320   5.776 133.424  0.00  0.00    +0.000 A 
ATOM     17  C   UNL     1      -4.970   6.121 133.608  0.00  0.00    +0.000 A 
ATOM     18  C   UNL     1      -4.226   6.721 132.576  0.00  0.00    +0.000 A 
ATOM     19  C   UNL     1      -4.903   7.048 131.394  0.00  0.00    +0.000 A 
ATOM     20  C   UNL     1      -6.266   6.783 131.235  0.00  0.00    +0.000 A 
BRANCH  18  21
ATOM     21  C   UNL     1      -2.784   7.002 132.750  0.00  0.00    +0.000 A 
ATOM     22  C   UNL     1      -2.378   8.278 133.193  0.00  0.00    +0.000 A 
ATOM     23  C   UNL     1      -1.028   8.631 133.266  0.00  0.00    +0.000 A 
ATOM     24  C   UNL     1      -0.050   7.691 132.968  0.00  0.00    +0.000 A 
ATOM     25  C   UNL     1      -0.422   6.409 132.569  0.00  0.00    +0.000 A 
ATOM     26  C   UNL     1      -1.778   6.052 132.455  0.00  0.00    +0.000 A 
ATOM     27  C   UNL     1      -2.122   4.654 132.016  0.00  0.00    +0.000 C 
ENDBRANCH  18  21
ENDBRANCH   6  15
BRANCH   1  29
ATOM     28  C   UNL     1      -7.672   3.196 126.644  0.00  0.00    +0.000 C 
ATOM     29  O   UNL     1      -7.589   2.653 127.967  0.00  0.00    +0.000 OA
ENDBRANCH   1  29
TORSDOF 4
ENDMDL
MODEL 2
REMARK VINA RESULT:      -8.5      4.188      9.239
REMARK  Name = CHEMBL1254210
REMARK  7 active torsions:
REMARK  status: ('A' for Active; 'I' for Inactive)
REMARK    1  A    between atoms: C_1  and  O_2
REMARK    2  A    between atoms: O_2  and  N_3
REMARK    3  A    between atoms: C_6  and  C_7
REMARK    4  A    between atoms: C_9  and  C_10
REMARK    5  A    between atoms: C_14  and  C_16
REMARK    6  A    between atoms: C_19  and  C_20
REMARK    7  A    between atoms: C_25  and  C_26
REMARK                            x       y       z     vdW  Elec       q    Type
REMARK                         _______ _______ _______ _____ _____    ______ ____
ROOT
ATOM      1  N   UNL     1      -9.110   4.705 129.426  0.00  0.00    +0.000 NA
ATOM      2  C   UNL     1      -8.295   3.804 128.956  0.00  0.00    +0.000 C 
ATOM      3  C   UNL     1      -7.808   2.660 129.803  0.00  0.00    +0.000 C 
ATOM      4  C   UNL     1      -6.402   2.500 129.229  0.00  0.00    +0.000 C 
ATOM      5  N   UNL     1      -6.535   2.877 127.807  0.00  0.00    +0.000 N 
ATOM      6  C   UNL     1      -5.667   2.377 126.844  0.00  0.00    +0.000 C 
ATOM      7  O   UNL     1      -4.755   1.589 127.114  0.00  0.00    +0.000 OA
ATOM      8  C   UNL     1      -7.707   3.728 127.563  0.00  0.00    +0.000 C 
ENDROOT
BRANCH   4   9
ATOM      9  C   UNL     1      -5.387   3.369 129.922  0.00  0.00    +0.000 A 
ATOM     10  N   UNL     1      -4.155   3.674 129.566  0.00  0.00    +0.000 NA
ATOM     11  C   UNL     1      -3.793   4.591 130.519  0.00  0.00    +0.000 A 
ATOM     12  C   UNL     1      -2.530   5.354 130.455  0.00  0.00    +0.000 C 
ATOM     13  N   UNL     1      -4.708   4.801 131.474  0.00  0.00    +0.000 NA
ATOM     14  O   UNL     1      -5.770   3.983 131.083  0.00  0.00    +0.000 OA
ENDBRANCH   4   9
BRANCH   6  15
ATOM     15  C   UNL     1      -5.817   2.793 125.423  0.00  0.00    +0.000 A 
ATOM     16  C   UNL     1      -5.319   4.022 124.969  0.00  0.00    +0.000 A 
ATOM     17  C   UNL     1      -5.561   4.436 123.647  0.00  0.00    +0.000 A 
ATOM     18  C   UNL     1      -6.236   3.603 122.737  0.00  0.00    +0.000 A 
ATOM     19  C   UNL     1      -6.741   2.388 123.221  0.00  0.00    +0.000 A 
ATOM     20  C   UNL     1      -6.575   2.007 124.555  0.00  0.00    +0.000 A 
BRANCH  18  21
ATOM     21  C   UNL     1      -6.412   4.011 121.326  0.00  0.00    +0.000 A 
ATOM     22  C   UNL     1      -5.328   4.591 120.636  0.00  0.00    +0.000 A 
ATOM     23  C   UNL     1      -5.472   5.094 119.340  0.00  0.00    +0.000 A 
ATOM     24  C   UNL     1      -6.686   4.964 118.678  0.00  0.00    +0.000 A 
ATOM     25  C   UNL     1      -7.762   4.356 119.321  0.00  0.00    +0.000 A 
ATOM     26  C   UNL     1      -7.641   3.879 120.639  0.00  0.00    +0.000 A 
ATOM     27  C   UNL     1      -8.837   3.233 121.286  0.00  0.00    +0.000 C 
ENDBRANCH  18  21
ENDBRANCH   6  15
BRANCH   1  29
ATOM     28  C   UNL     1     -10.048   6.806 129.074  0.00  0.00    +0.000 C 
ATOM     29  O   UNL     1      -9.384   5.695 128.461  0.00  0.00    +0.000 OA
ENDBRANCH   1  29
TORSDOF 4
ENDMDL
MODEL 3
REMARK VINA RESULT:      -8.2      6.633     11.398
REMARK  Name = CHEMBL1254210
REMARK  7 active torsions:
REMARK  status: ('A' for Active; 'I' for Inactive)
REMARK    1  A    between atoms: C_1  and  O_2
REMARK    2  A    between atoms: O_2  and  N_3
REMARK    3  A    between atoms: C_6  and  C_7
REMARK    4  A    between atoms: C_9  and  C_10
REMARK    5  A    between atoms: C_14  and  C_16
REMARK    6  A    between atoms: C_19  and  C_20
REMARK    7  A    between atoms: C_25  and  C_26
REMARK                            x       y       z     vdW  Elec       q    Type
REMARK                         _______ _______ _______ _____ _____    ______ ____
ROOT
ATOM      1  N   UNL     1      -7.088   0.236 133.728  0.00  0.00    +0.000 NA
ATOM      2  C   UNL     1      -7.033  -0.972 133.243  0.00  0.00    +0.000 C 
ATOM      3  C   UNL     1      -6.809  -2.169 134.127  0.00  0.00    +0.000 C 
ATOM      4  C   UNL     1      -5.997  -3.041 133.172  0.00  0.00    +0.000 C 
ATOM      5  N   UNL     1      -6.517  -2.707 131.830  0.00  0.00    +0.000 N 
ATOM      6  C   UNL     1      -6.444  -3.617 130.781  0.00  0.00    +0.000 C 
ATOM      7  O   UNL     1      -5.959  -4.745 130.912  0.00  0.00    +0.000 OA
ATOM      8  C   UNL     1      -7.171  -1.392 131.796  0.00  0.00    +0.000 C 
ENDROOT
BRANCH   4   9
ATOM      9  C   UNL     1      -4.517  -2.775 133.254  0.00  0.00    +0.000 A 
ATOM     10  N   UNL     1      -3.872  -1.633 133.381  0.00  0.00    +0.000 NA
ATOM     11  C   UNL     1      -2.572  -2.046 133.528  0.00  0.00    +0.000 A 
ATOM     12  C   UNL     1      -1.472  -1.119 133.863  0.00  0.00    +0.000 C 
ATOM     13  N   UNL     1      -2.386  -3.368 133.421  0.00  0.00    +0.000 NA
ATOM     14  O   UNL     1      -3.680  -3.857 133.233  0.00  0.00    +0.000 OA
ENDBRANCH   4   9
BRANCH   6  15
ATOM     15  C   UNL     1      -6.961  -3.241 129.438  0.00  0.00    +0.000 A 
ATOM     16  C   UNL     1      -8.250  -3.608 129.026  0.00  0.00    +0.000 A 
ATOM     17  C   UNL     1      -8.677  -3.327 127.716  0.00  0.00    +0.000 A 
ATOM     18  C   UNL     1      -7.860  -2.612 126.822  0.00  0.00    +0.000 A 
ATOM     19  C   UNL     1      -6.570  -2.274 127.252  0.00  0.00    +0.000 A 
ATOM     20  C   UNL     1      -6.109  -2.622 128.524  0.00  0.00    +0.000 A 
BRANCH  18  21
ATOM     21  C   UNL     1      -8.352  -2.248 125.475  0.00  0.00    +0.000 A 
ATOM     22  C   UNL     1      -8.439  -3.243 124.481  0.00  0.00    +0.000 A 
ATOM     23  C   UNL     1      -8.790  -2.931 123.164  0.00  0.00    +0.000 A 
ATOM     24  C   UNL     1      -9.133  -1.628 122.829  0.00  0.00    +0.000 A 
ATOM     25  C   UNL     1      -9.097  -0.632 123.803  0.00  0.00    +0.000 A 
ATOM     26  C   UNL     1      -8.710  -0.925 125.123  0.00  0.00    +0.000 A 
ATOM     27  C   UNL     1      -8.686   0.190 126.134  0.00  0.00    +0.000 C 
ENDBRANCH  18  21
ENDBRANCH   6  15
BRANCH   1  29
ATOM     28  C   UNL     1      -7.894   2.361 133.226  0.00  0.00    +0.000 C 
ATOM     29  O   UNL     1      -7.260   1.188 132.703  0.00  0.00    +0.000 OA
ENDBRANCH   1  29
TORSDOF 4
ENDMDL
MODEL 4
REMARK VINA RESULT:      -8.1      4.628      7.801
REMARK  Name = CHEMBL1254210
REMARK  7 active torsions:
REMARK  status: ('A' for Active; 'I' for Inactive)
REMARK    1  A    between atoms: C_1  and  O_2
REMARK    2  A    between atoms: O_2  and  N_3
REMARK    3  A    between atoms: C_6  and  C_7
REMARK    4  A    between atoms: C_9  and  C_10
REMARK    5  A    between atoms: C_14  and  C_16
REMARK    6  A    between atoms: C_19  and  C_20
REMARK    7  A    between atoms: C_25  and  C_26
REMARK                            x       y       z     vdW  Elec       q    Type
REMARK                         _______ _______ _______ _____ _____    ______ ____
ROOT
ATOM      1  N   UNL     1      -4.672   5.725 126.830  0.00  0.00    +0.000 NA
ATOM      2  C   UNL     1      -5.555   4.890 126.362  0.00  0.00    +0.000 C 
ATOM      3  C   UNL     1      -6.405   5.226 125.166  0.00  0.00    +0.000 C 
ATOM      4  C   UNL     1      -7.690   4.499 125.556  0.00  0.00    +0.000 C 
ATOM      5  N   UNL     1      -7.234   3.323 126.325  0.00  0.00    +0.000 N 
ATOM      6  C   UNL     1      -8.000   2.165 126.394  0.00  0.00    +0.000 C 
ATOM      7  O   UNL     1      -9.086   2.050 125.816  0.00  0.00    +0.000 OA
ATOM      8  C   UNL     1      -5.890   3.511 126.887  0.00  0.00    +0.000 C 
ENDROOT
BRANCH   4   9
ATOM      9  C   UNL     1      -8.616   5.352 126.381  0.00  0.00    +0.000 A 
ATOM     10  N   UNL     1      -9.466   6.284 126.001  0.00  0.00    +0.000 NA
ATOM     11  C   UNL     1     -10.100   6.599 127.176  0.00  0.00    +0.000 A 
ATOM     12  C   UNL     1     -11.268   7.501 127.237  0.00  0.00    +0.000 C 
ATOM     13  N   UNL     1      -9.628   5.966 128.257  0.00  0.00    +0.000 NA
ATOM     14  O   UNL     1      -8.634   5.138 127.733  0.00  0.00    +0.000 OA
ENDBRANCH   4   9
BRANCH   6  15
ATOM     15  C   UNL     1      -7.520   1.006 127.194  0.00  0.00    +0.000 A 
ATOM     16  C   UNL     1      -7.797   0.903 128.564  0.00  0.00    +0.000 A 
ATOM     17  C   UNL     1      -7.248  -0.150 129.317  0.00  0.00    +0.000 A 
ATOM     18  C   UNL     1      -6.479  -1.156 128.706  0.00  0.00    +0.000 A 
ATOM     19  C   UNL     1      -6.201  -1.020 127.339  0.00  0.00    +0.000 A 
ATOM     20  C   UNL     1      -6.675   0.068 126.601  0.00  0.00    +0.000 A 
BRANCH  18  21
ATOM     21  C   UNL     1      -5.977  -2.305 129.491  0.00  0.00    +0.000 A 
ATOM     22  C   UNL     1      -4.688  -2.242 130.059  0.00  0.00    +0.000 A 
ATOM     23  C   UNL     1      -4.123  -3.340 130.714  0.00  0.00    +0.000 A 
ATOM     24  C   UNL     1      -4.863  -4.503 130.879  0.00  0.00    +0.000 A 
ATOM     25  C   UNL     1      -6.156  -4.578 130.365  0.00  0.00    +0.000 A 
ATOM     26  C   UNL     1      -6.723  -3.493 129.671  0.00  0.00    +0.000 A 
ATOM     27  C   UNL     1      -8.122  -3.631 129.135  0.00  0.00    +0.000 C 
ENDBRANCH  18  21
ENDBRANCH   6  15
BRANCH   1  29
ATOM     28  C   UNL     1      -2.680   5.658 128.033  0.00  0.00    +0.000 C 
ATOM     29  O   UNL     1      -4.037   5.205 127.976  0.00  0.00    +0.000 OA
ENDBRANCH   1  29
TORSDOF 4
ENDMDL
MODEL 5
REMARK VINA RESULT:      -8.1      4.261      7.851
REMARK  Name = CHEMBL1254210
REMARK  7 active torsions:
REMARK  status: ('A' for Active; 'I' for Inactive)
REMARK    1  A    between atoms: C_1  and  O_2
REMARK    2  A    between atoms: O_2  and  N_3
REMARK    3  A    between atoms: C_6  and  C_7
REMARK    4  A    between atoms: C_9  and  C_10
REMARK    5  A    between atoms: C_14  and  C_16
REMARK    6  A    between atoms: C_19  and  C_20
REMARK    7  A    between atoms: C_25  and  C_26
REMARK                            x       y       z     vdW  Elec       q    Type
REMARK                         _______ _______ _______ _____ _____    ______ ____
ROOT
ATOM      1  N   UNL     1      -4.123   1.566 129.789  0.00  0.00    +0.000 NA
ATOM      2  C   UNL     1      -4.727   2.095 130.815  0.00  0.00    +0.000 C 
ATOM      3  C   UNL     1      -4.238   1.875 132.221  0.00  0.00    +0.000 C 
ATOM      4  C   UNL     1      -5.576   1.870 132.956  0.00  0.00    +0.000 C 
ATOM      5  N   UNL     1      -6.427   2.802 132.188  0.00  0.00    +0.000 N 
ATOM      6  C   UNL     1      -7.485   3.475 132.789  0.00  0.00    +0.000 C 
ATOM      7  O   UNL     1      -7.763   3.345 133.985  0.00  0.00    +0.000 OA
ATOM      8  C   UNL     1      -5.958   2.976 130.807  0.00  0.00    +0.000 C 
ENDROOT
BRANCH   4   9
ATOM      9  C   UNL     1      -6.202   0.502 133.021  0.00  0.00    +0.000 A 
ATOM     10  N   UNL     1      -6.429  -0.367 132.057  0.00  0.00    +0.000 NA
ATOM     11  C   UNL     1      -6.891  -1.458 132.749  0.00  0.00    +0.000 A 
ATOM     12  C   UNL     1      -7.139  -2.765 132.107  0.00  0.00    +0.000 C 
ATOM     13  N   UNL     1      -7.029  -1.270 134.068  0.00  0.00    +0.000 NA
ATOM     14  O   UNL     1      -6.577   0.037 134.253  0.00  0.00    +0.000 OA
ENDBRANCH   4   9
BRANCH   6  15
ATOM     15  C   UNL     1      -8.333   4.392 131.981  0.00  0.00    +0.000 A 
ATOM     16  C   UNL     1      -8.088   5.772 131.950  0.00  0.00    +0.000 A 
ATOM     17  C   UNL     1      -8.963   6.628 131.259  0.00  0.00    +0.000 A 
ATOM     18  C   UNL     1     -10.050   6.119 130.527  0.00  0.00    +0.000 A 
ATOM     19  C   UNL     1     -10.285   4.739 130.589  0.00  0.00    +0.000 A 
ATOM     20  C   UNL     1      -9.467   3.892 131.341  0.00  0.00    +0.000 A 
BRANCH  18  21
ATOM     21  C   UNL     1     -10.915   7.020 129.734  0.00  0.00    +0.000 A 
ATOM     22  C   UNL     1     -10.524   7.378 128.428  0.00  0.00    +0.000 A 
ATOM     23  C   UNL     1     -11.247   8.312 127.679  0.00  0.00    +0.000 A 
ATOM     24  C   UNL     1     -12.418   8.853 128.192  0.00  0.00    +0.000 A 
ATOM     25  C   UNL     1     -12.852   8.484 129.464  0.00  0.00    +0.000 A 
ATOM     26  C   UNL     1     -12.114   7.574 130.243  0.00  0.00    +0.000 A 
ATOM     27  C   UNL     1     -12.627   7.213 131.611  0.00  0.00    +0.000 C 
ENDBRANCH  18  21
ENDBRANCH   6  15
BRANCH   1  29
ATOM     28  C   UNL     1      -3.917   2.600 127.714  0.00  0.00    +0.000 C 
ATOM     29  O   UNL     1      -4.792   1.878 128.588  0.00  0.00    +0.000 OA
ENDBRANCH   1  29
TORSDOF 4
ENDMDL
MODEL 6
REMARK VINA RESULT:      -8.0      4.014      8.146
REMARK  Name = CHEMBL1254210
REMARK  7 active torsions:
REMARK  status: ('A' for Active; 'I' for Inactive)
REMARK    1  A    between atoms: C_1  and  O_2
REMARK    2  A    between atoms: O_2  and  N_3
REMARK    3  A    between atoms: C_6  and  C_7
REMARK    4  A    between atoms: C_9  and  C_10
REMARK    5  A    between atoms: C_14  and  C_16
REMARK    6  A    between atoms: C_19  and  C_20
REMARK    7  A    between atoms: C_25  and  C_26
REMARK                            x       y       z     vdW  Elec       q    Type
REMARK                         _______ _______ _______ _____ _____    ______ ____
ROOT
ATOM      1  N   UNL     1      -9.207   6.972 129.468  0.00  0.00    +0.000 NA
ATOM      2  C   UNL     1      -8.478   6.168 130.189  0.00  0.00    +0.000 C 
ATOM      3  C   UNL     1      -7.788   6.635 131.442  0.00  0.00    +0.000 C 
ATOM      4  C   UNL     1      -6.528   5.775 131.373  0.00  0.00    +0.000 C 
ATOM      5  N   UNL     1      -6.967   4.522 130.724  0.00  0.00    +0.000 N 
ATOM      6  C   UNL     1      -6.303   3.322 130.949  0.00  0.00    +0.000 C 
ATOM      7  O   UNL     1      -5.329   3.231 131.703  0.00  0.00    +0.000 OA
ATOM      8  C   UNL     1      -8.192   4.703 129.934  0.00  0.00    +0.000 C 
ENDROOT
BRANCH   4   9
ATOM      9  C   UNL     1      -5.420   6.425 130.589  0.00  0.00    +0.000 A 
ATOM     10  N   UNL     1      -4.333   5.894 130.066  0.00  0.00    +0.000 NA
ATOM     11  C   UNL     1      -3.795   6.949 129.375  0.00  0.00    +0.000 A 
ATOM     12  C   UNL     1      -2.629   6.806 128.479  0.00  0.00    +0.000 C 
ATOM     13  N   UNL     1      -4.453   8.107 129.513  0.00  0.00    +0.000 NA
ATOM     14  O   UNL     1      -5.534   7.763 130.326  0.00  0.00    +0.000 OA
ENDBRANCH   4   9
BRANCH   6  15
ATOM     15  C   UNL     1      -6.760   2.083 130.264  0.00  0.00    +0.000 A 
ATOM     16  C   UNL     1      -7.860   1.354 130.738  0.00  0.00    +0.000 A 
ATOM     17  C   UNL     1      -8.211   0.135 130.132  0.00  0.00    +0.000 A 
ATOM     18  C   UNL     1      -7.522  -0.340 129.002  0.00  0.00    +0.000 A 
ATOM     19  C   UNL     1      -6.415   0.397 128.559  0.00  0.00    +0.000 A 
ATOM     20  C   UNL     1      -6.011   1.568 129.207  0.00  0.00    +0.000 A 
BRANCH  18  21
ATOM     21  C   UNL     1      -7.953  -1.581 128.321  0.00  0.00    +0.000 A 
ATOM     22  C   UNL     1      -8.336  -1.526 126.965  0.00  0.00    +0.000 A 
ATOM     23  C   UNL     1      -8.855  -2.645 126.307  0.00  0.00    +0.000 A 
ATOM     24  C   UNL     1      -8.934  -3.863 126.969  0.00  0.00    +0.000 A 
ATOM     25  C   UNL     1      -8.521  -3.956 128.297  0.00  0.00    +0.000 A 
ATOM     26  C   UNL     1      -8.032  -2.829 128.982  0.00  0.00    +0.000 A 
ATOM     27  C   UNL     1      -7.603  -2.986 130.416  0.00  0.00    +0.000 C 
ENDBRANCH  18  21
ENDBRANCH   6  15
BRANCH   1  29
ATOM     28  C   UNL     1     -10.541   7.209 127.576  0.00  0.00    +0.000 C 
ATOM     29  O   UNL     1      -9.708   6.316 128.326  0.00  0.00    +0.000 OA
ENDBRANCH   1  29
TORSDOF 4
ENDMDL
MODEL 7
REMARK VINA RESULT:      -7.9      3.481      5.816
REMARK  Name = CHEMBL1254210
REMARK  7 active torsions:
REMARK  status: ('A' for Active; 'I' for Inactive)
REMARK    1  A    between atoms: C_1  and  O_2
REMARK    2  A    between atoms: O_2  and  N_3
REMARK    3  A    between atoms: C_6  and  C_7
REMARK    4  A    between atoms: C_9  and  C_10
REMARK    5  A    between atoms: C_14  and  C_16
REMARK    6  A    between atoms: C_19  and  C_20
REMARK    7  A    between atoms: C_25  and  C_26
REMARK                            x       y       z     vdW  Elec       q    Type
REMARK                         _______ _______ _______ _____ _____    ______ ____
ROOT
ATOM      1  N   UNL     1      -8.580   4.708 125.695  0.00  0.00    +0.000 NA
ATOM      2  C   UNL     1      -7.351   4.287 125.600  0.00  0.00    +0.000 C 
ATOM      3  C   UNL     1      -6.879   3.487 124.416  0.00  0.00    +0.000 C 
ATOM      4  C   UNL     1      -5.866   2.579 125.111  0.00  0.00    +0.000 C 
ATOM      5  N   UNL     1      -5.320   3.403 126.210  0.00  0.00    +0.000 N 
ATOM      6  C   UNL     1      -4.049   3.171 126.722  0.00  0.00    +0.000 C 
ATOM      7  O   UNL     1      -3.308   2.284 126.287  0.00  0.00    +0.000 OA
ATOM      8  C   UNL     1      -6.224   4.497 126.589  0.00  0.00    +0.000 C 
ENDROOT
BRANCH   4   9
ATOM      9  C   UNL     1      -6.486   1.316 125.646  0.00  0.00    +0.000 A 
ATOM     10  N   UNL     1      -6.471   0.821 126.867  0.00  0.00    +0.000 NA
ATOM     11  C   UNL     1      -7.304  -0.263 126.754  0.00  0.00    +0.000 A 
ATOM     12  C   UNL     1      -7.736  -1.064 127.917  0.00  0.00    +0.000 C 
ATOM     13  N   UNL     1      -7.760  -0.496 125.516  0.00  0.00    +0.000 NA
ATOM     14  O   UNL     1      -7.212   0.551 124.773  0.00  0.00    +0.000 OA
ENDBRANCH   4   9
BRANCH   6  15
ATOM     15  C   UNL     1      -3.539   4.007 127.842  0.00  0.00    +0.000 A 
ATOM     16  C   UNL     1      -3.881   3.729 129.173  0.00  0.00    +0.000 A 
ATOM     17  C   UNL     1      -3.467   4.592 130.202  0.00  0.00    +0.000 A 
ATOM     18  C   UNL     1      -2.645   5.701 129.935  0.00  0.00    +0.000 A 
ATOM     19  C   UNL     1      -2.332   5.968 128.594  0.00  0.00    +0.000 A 
ATOM     20  C   UNL     1      -2.808   5.161 127.558  0.00  0.00    +0.000 A 
BRANCH  18  21
ATOM     21  C   UNL     1      -2.145   6.554 131.035  0.00  0.00    +0.000 A 
ATOM     22  C   UNL     1      -0.979   6.172 131.729  0.00  0.00    +0.000 A 
ATOM     23  C   UNL     1      -0.528   6.881 132.845  0.00  0.00    +0.000 A 
ATOM     24  C   UNL     1      -1.192   8.032 133.249  0.00  0.00    +0.000 A 
ATOM     25  C   UNL     1      -2.322   8.458 132.554  0.00  0.00    +0.000 A 
ATOM     26  C   UNL     1      -2.809   7.732 131.451  0.00  0.00    +0.000 A 
ATOM     27  C   UNL     1      -4.036   8.236 130.740  0.00  0.00    +0.000 C 
ENDBRANCH  18  21
ENDBRANCH   6  15
BRANCH   1  29
ATOM     28  C   UNL     1      -9.821   6.373 126.746  0.00  0.00    +0.000 C 
ATOM     29  O   UNL     1      -8.791   5.392 126.909  0.00  0.00    +0.000 OA
ENDBRANCH   1  29
TORSDOF 4
ENDMDL
MODEL 8
REMARK VINA RESULT:      -7.9      3.660      8.336
REMARK  Name = CHEMBL1254210
REMARK  7 active torsions:
REMARK  status: ('A' for Active; 'I' for Inactive)
REMARK    1  A    between atoms: C_1  and  O_2
REMARK    2  A    between atoms: O_2  and  N_3
REMARK    3  A    between atoms: C_6  and  C_7
REMARK    4  A    between atoms: C_9  and  C_10
REMARK    5  A    between atoms: C_14  and  C_16
REMARK    6  A    between atoms: C_19  and  C_20
REMARK    7  A    between atoms: C_25  and  C_26
REMARK                            x       y       z     vdW  Elec       q    Type
REMARK                         _______ _______ _______ _____ _____    ______ ____
ROOT
ATOM      1  N   UNL     1      -9.500   6.284 129.016  0.00  0.00    +0.000 NA
ATOM      2  C   UNL     1      -8.748   5.356 129.538  0.00  0.00    +0.000 C 
ATOM      3  C   UNL     1      -8.419   5.339 131.006  0.00  0.00    +0.000 C 
ATOM      4  C   UNL     1      -7.005   4.766 130.941  0.00  0.00    +0.000 C 
ATOM      5  N   UNL     1      -7.023   3.859 129.775  0.00  0.00    +0.000 N 
ATOM      6  C   UNL     1      -6.154   2.777 129.689  0.00  0.00    +0.000 C 
ATOM      7  O   UNL     1      -5.336   2.508 130.575  0.00  0.00    +0.000 OA
ATOM      8  C   UNL     1      -8.095   4.190 128.827  0.00  0.00    +0.000 C 
ENDROOT
BRANCH   4   9
ATOM      9  C   UNL     1      -5.952   5.829 130.777  0.00  0.00    +0.000 A 
ATOM     10  N   UNL     1      -5.282   6.501 131.691  0.00  0.00    +0.000 NA
ATOM     11  C   UNL     1      -4.390   7.217 130.934  0.00  0.00    +0.000 A 
ATOM     12  C   UNL     1      -3.301   8.019 131.527  0.00  0.00    +0.000 C 
ATOM     13  N   UNL     1      -4.534   7.074 129.610  0.00  0.00    +0.000 NA
ATOM     14  O   UNL     1      -5.578   6.154 129.501  0.00  0.00    +0.000 OA
ENDBRANCH   4   9
BRANCH   6  15
ATOM     15  C   UNL     1      -6.186   1.895 128.492  0.00  0.00    +0.000 A 
ATOM     16  C   UNL     1      -7.087   0.825 128.401  0.00  0.00    +0.000 A 
ATOM     17  C   UNL     1      -7.031  -0.053 127.305  0.00  0.00    +0.000 A 
ATOM     18  C   UNL     1      -6.131   0.163 126.246  0.00  0.00    +0.000 A 
ATOM     19  C   UNL     1      -5.228   1.228 126.370  0.00  0.00    +0.000 A 
ATOM     20  C   UNL     1      -5.224   2.056 127.495  0.00  0.00    +0.000 A 
BRANCH  18  21
ATOM     21  C   UNL     1      -6.137  -0.717 125.057  0.00  0.00    +0.000 A 
ATOM     22  C   UNL     1      -5.410  -1.925 125.089  0.00  0.00    +0.000 A 
ATOM     23  C   UNL     1      -5.292  -2.737 123.958  0.00  0.00    +0.000 A 
ATOM     24  C   UNL     1      -5.958  -2.395 122.788  0.00  0.00    +0.000 A 
ATOM     25  C   UNL     1      -6.720  -1.229 122.742  0.00  0.00    +0.000 A 
ATOM     26  C   UNL     1      -6.816  -0.384 123.862  0.00  0.00    +0.000 A 
ATOM     27  C   UNL     1      -7.650   0.864 123.755  0.00  0.00    +0.000 C 
ENDBRANCH  18  21
ENDBRANCH   6  15
BRANCH   1  29
ATOM     28  C   UNL     1     -10.485   7.122 127.081  0.00  0.00    +0.000 C 
ATOM     29  O   UNL     1      -9.626   6.112 127.623  0.00  0.00    +0.000 OA
ENDBRANCH   1  29
TORSDOF 4
ENDMDL
MODEL 9
REMARK VINA RESULT:      -7.9      3.747      7.874
REMARK  Name = CHEMBL1254210
REMARK  7 active torsions:
REMARK  status: ('A' for Active; 'I' for Inactive)
REMARK    1  A    between atoms: C_1  and  O_2
REMARK    2  A    between atoms: O_2  and  N_3
REMARK    3  A    between atoms: C_6  and  C_7
REMARK    4  A    between atoms: C_9  and  C_10
REMARK    5  A    between atoms: C_14  and  C_16
REMARK    6  A    between atoms: C_19  and  C_20
REMARK    7  A    between atoms: C_25  and  C_26
REMARK                            x       y       z     vdW  Elec       q    Type
REMARK                         _______ _______ _______ _____ _____    ______ ____
ROOT
ATOM      1  N   UNL     1      -7.414   3.035 132.750  0.00  0.00    +0.000 NA
ATOM      2  C   UNL     1      -7.296   3.615 131.589  0.00  0.00    +0.000 C 
ATOM      3  C   UNL     1      -7.260   5.113 131.454  0.00  0.00    +0.000 C 
ATOM      4  C   UNL     1      -7.974   5.264 130.112  0.00  0.00    +0.000 C 
ATOM      5  N   UNL     1      -7.602   4.050 129.354  0.00  0.00    +0.000 N 
ATOM      6  C   UNL     1      -7.588   4.044 127.964  0.00  0.00    +0.000 C 
ATOM      7  O   UNL     1      -7.868   5.041 127.291  0.00  0.00    +0.000 OA
ATOM      8  C   UNL     1      -7.182   2.951 130.234  0.00  0.00    +0.000 C 
ENDROOT
BRANCH   4   9
ATOM      9  C   UNL     1      -9.469   5.369 130.254  0.00  0.00    +0.000 A 
ATOM     10  N   UNL     1     -10.201   6.346 130.749  0.00  0.00    +0.000 NA
ATOM     11  C   UNL     1     -11.477   5.917 130.487  0.00  0.00    +0.000 A 
ATOM     12  C   UNL     1     -12.668   6.761 130.720  0.00  0.00    +0.000 C 
ATOM     13  N   UNL     1     -11.560   4.702 129.931  0.00  0.00    +0.000 NA
ATOM     14  O   UNL     1     -10.223   4.330 129.779  0.00  0.00    +0.000 OA
ENDBRANCH   4   9
BRANCH   6  15
ATOM     15  C   UNL     1      -7.228   2.799 127.234  0.00  0.00    +0.000 A 
ATOM     16  C   UNL     1      -5.937   2.605 126.720  0.00  0.00    +0.000 A 
ATOM     17  C   UNL     1      -5.650   1.465 125.949  0.00  0.00    +0.000 A 
ATOM     18  C   UNL     1      -6.617   0.467 125.740  0.00  0.00    +0.000 A 
ATOM     19  C   UNL     1      -7.904   0.693 126.247  0.00  0.00    +0.000 A 
ATOM     20  C   UNL     1      -8.219   1.862 126.945  0.00  0.00    +0.000 A 
BRANCH  18  21
ATOM     21  C   UNL     1      -6.281  -0.769 124.998  0.00  0.00    +0.000 A 
ATOM     22  C   UNL     1      -6.495  -0.817 123.605  0.00  0.00    +0.000 A 
ATOM     23  C   UNL     1      -6.299  -1.993 122.877  0.00  0.00    +0.000 A 
ATOM     24  C   UNL     1      -5.814  -3.129 123.512  0.00  0.00    +0.000 A 
ATOM     25  C   UNL     1      -5.551  -3.096 124.880  0.00  0.00    +0.000 A 
ATOM     26  C   UNL     1      -5.780  -1.930 125.633  0.00  0.00    +0.000 A 
ATOM     27  C   UNL     1      -5.482  -1.952 127.108  0.00  0.00    +0.000 C 
ENDBRANCH  18  21
ENDBRANCH   6  15
BRANCH   1  29
ATOM     28  C   UNL     1      -6.486   1.021 133.458  0.00  0.00    +0.000 C 
ATOM     29  O   UNL     1      -7.469   1.633 132.615  0.00  0.00    +0.000 OA
ENDBRANCH   1  29
TORSDOF 4
ENDMDL
