MODEL 1
REMARK VINA RESULT:     -11.2      0.000      0.000
REMARK  Name = CHEMBL602872
REMARK  6 active torsions:
REMARK  status: ('A' for Active; 'I' for Inactive)
REMARK    1  A    between atoms: C_1  and  C_2
REMARK    2  A    between atoms: C_4  and  C_5
REMARK    3  A    between atoms: N_12  and  C_13
REMARK    4  A    between atoms: C_24  and  N_25
REMARK    5  A    between atoms: C_26  and  C_28
REMARK    6  A    between atoms: C_33  and  C_34
REMARK                            x       y       z     vdW  Elec       q    Type
REMARK                         _______ _______ _______ _____ _____    ______ ____
ROOT
ATOM      1  C   UNL     1      -7.106   1.866 123.254  0.00  0.00    +0.000 C 
ATOM      2  C   UNL     1      -7.016   1.778 124.747  0.00  0.00    +0.000 A 
ATOM      3  C   UNL     1      -5.871   2.360 125.355  0.00  0.00    +0.000 A 
ATOM      4  C   UNL     1      -5.634   2.294 126.745  0.00  0.00    +0.000 A 
ATOM      5  C   UNL     1      -6.625   1.743 127.542  0.00  0.00    +0.000 A 
ATOM      6  C   UNL     1      -7.736   1.105 126.952  0.00  0.00    +0.000 A 
ATOM      7  C   UNL     1      -7.896   1.030 125.548  0.00  0.00    +0.000 A 
ENDROOT
BRANCH   4   8
ATOM      8  C   UNL     1      -4.259   2.604 127.294  0.00  0.00    +0.000 C 
ATOM      9  O   UNL     1      -3.344   2.654 126.474  0.00  0.00    +0.000 OA
ATOM     10  N   UNL     1      -4.133   2.923 128.671  0.00  0.00    +0.000 N 
ATOM     11  C   UNL     1      -4.058   1.891 129.770  0.00  0.00    +0.000 C 
ATOM     12  C   UNL     1      -5.069   2.118 130.861  0.00  0.00    +0.000 A 
ATOM     13  C   UNL     1      -5.851   1.223 131.655  0.00  0.00    +0.000 A 
ATOM     14  N   UNL     1      -6.629   1.847 132.555  0.00  0.00    +0.000 NA
ATOM     15  N   UNL     1      -6.332   3.144 132.371  0.00  0.00    +0.000 N 
ATOM     16  C   UNL     1      -6.944   4.195 133.159  0.00  0.00    +0.000 C 
ATOM     17  C   UNL     1      -5.427   3.344 131.360  0.00  0.00    +0.000 A 
ATOM     18  N   UNL     1      -5.053   4.586 131.036  0.00  0.00    +0.000 N 
ATOM     19  C   UNL     1      -4.186   5.020 130.022  0.00  0.00    +0.000 A 
ATOM     20  C   UNL     1      -3.914   6.407 130.062  0.00  0.00    +0.000 A 
ATOM     21  C   UNL     1      -3.082   7.027 129.144  0.00  0.00    +0.000 A 
ATOM     22  C   UNL     1      -2.472   6.260 128.173  0.00  0.00    +0.000 A 
ATOM     23  C   UNL     1      -2.750   4.894 128.094  0.00  0.00    +0.000 A 
ATOM     24  C   UNL     1      -3.640   4.248 128.979  0.00  0.00    +0.000 A 
ATOM     25  H   UNL     1      -5.378   5.358 131.604  0.00  0.00    +0.000 HD
ENDBRANCH   4   8
BRANCH   7  26
ATOM     26  N   UNL     1      -8.856   0.098 125.061  0.00  0.00    +0.000 N 
ATOM     27  C   UNL     1      -8.804  -0.808 123.998  0.00  0.00    +0.000 C 
ATOM     28  O   UNL     1      -9.717  -0.804 123.198  0.00  0.00    +0.000 OA
ATOM     29  H   UNL     1      -9.758   0.088 125.523  0.00  0.00    +0.000 HD
BRANCH  27  30
ATOM     30  C   UNL     1      -7.663  -1.820 123.831  0.00  0.00    +0.000 A 
ATOM     31  C   UNL     1      -7.004  -1.741 122.573  0.00  0.00    +0.000 A 
ATOM     32  C   UNL     1      -5.755  -2.343 122.367  0.00  0.00    +0.000 A 
ATOM     33  C   UNL     1      -5.132  -3.015 123.409  0.00  0.00    +0.000 A 
ATOM     34  C   UNL     1      -5.778  -3.138 124.638  0.00  0.00    +0.000 A 
ATOM     35  C   UNL     1      -7.072  -2.607 124.869  0.00  0.00    +0.000 A 
BRANCH  35  36
ATOM     36  C   UNL     1      -7.620  -2.743 126.234  0.00  0.00    +0.000 A 
ATOM     37  C   UNL     1      -6.924  -2.218 127.328  0.00  0.00    +0.000 A 
ATOM     38  C   UNL     1      -7.207  -2.650 128.621  0.00  0.00    +0.000 A 
ATOM     39  C   UNL     1      -8.303  -3.472 128.858  0.00  0.00    +0.000 A 
ATOM     40  C   UNL     1      -9.117  -3.863 127.797  0.00  0.00    +0.000 A 
ATOM     41  C   UNL     1      -8.748  -3.547 126.491  0.00  0.00    +0.000 A 
ENDBRANCH  35  36
ENDBRANCH  27  30
ENDBRANCH   7  26
TORSDOF 4
ENDMDL
MODEL 2
REMARK VINA RESULT:     -11.0      3.782      6.210
REMARK  Name = CHEMBL602872
REMARK  6 active torsions:
REMARK  status: ('A' for Active; 'I' for Inactive)
REMARK    1  A    between atoms: C_1  and  C_2
REMARK    2  A    between atoms: C_4  and  C_5
REMARK    3  A    between atoms: N_12  and  C_13
REMARK    4  A    between atoms: C_24  and  N_25
REMARK    5  A    between atoms: C_26  and  C_28
REMARK    6  A    between atoms: C_33  and  C_34
REMARK                            x       y       z     vdW  Elec       q    Type
REMARK                         _______ _______ _______ _____ _____    ______ ____
ROOT
ATOM      1  C   UNL     1      -8.212   1.846 128.357  0.00  0.00    +0.000 C 
ATOM      2  C   UNL     1      -8.241   1.530 129.822  0.00  0.00    +0.000 A 
ATOM      3  C   UNL     1      -8.080   2.623 130.716  0.00  0.00    +0.000 A 
ATOM      4  C   UNL     1      -8.027   2.456 132.117  0.00  0.00    +0.000 A 
ATOM      5  C   UNL     1      -8.265   1.188 132.623  0.00  0.00    +0.000 A 
ATOM      6  C   UNL     1      -8.363   0.084 131.751  0.00  0.00    +0.000 A 
ATOM      7  C   UNL     1      -8.256   0.227 130.348  0.00  0.00    +0.000 A 
ENDROOT
BRANCH   4   8
ATOM      8  C   UNL     1      -7.507   3.573 132.993  0.00  0.00    +0.000 C 
ATOM      9  O   UNL     1      -6.703   3.251 133.866  0.00  0.00    +0.000 OA
ATOM     10  N   UNL     1      -7.884   4.908 132.688  0.00  0.00    +0.000 N 
ATOM     11  C   UNL     1      -9.192   5.530 133.110  0.00  0.00    +0.000 C 
ATOM     12  C   UNL     1      -9.951   6.139 131.963  0.00  0.00    +0.000 A 
ATOM     13  C   UNL     1     -11.345   6.208 131.656  0.00  0.00    +0.000 A 
ATOM     14  N   UNL     1     -11.611   6.879 130.523  0.00  0.00    +0.000 NA
ATOM     15  N   UNL     1     -10.397   7.274 130.108  0.00  0.00    +0.000 N 
ATOM     16  C   UNL     1     -10.209   8.058 128.904  0.00  0.00    +0.000 C 
ATOM     17  C   UNL     1      -9.386   6.835 130.926  0.00  0.00    +0.000 A 
ATOM     18  N   UNL     1      -8.115   7.123 130.628  0.00  0.00    +0.000 N 
ATOM     19  C   UNL     1      -6.938   6.745 131.290  0.00  0.00    +0.000 A 
ATOM     20  C   UNL     1      -5.772   7.352 130.767  0.00  0.00    +0.000 A 
ATOM     21  C   UNL     1      -4.511   7.105 131.283  0.00  0.00    +0.000 A 
ATOM     22  C   UNL     1      -4.388   6.259 132.366  0.00  0.00    +0.000 A 
ATOM     23  C   UNL     1      -5.520   5.623 132.879  0.00  0.00    +0.000 A 
ATOM     24  C   UNL     1      -6.808   5.811 132.335  0.00  0.00    +0.000 A 
ATOM     25  H   UNL     1      -7.923   7.739 129.848  0.00  0.00    +0.000 HD
ENDBRANCH   4   8
BRANCH   7  26
ATOM     26  N   UNL     1      -8.039  -0.963 129.597  0.00  0.00    +0.000 N 
ATOM     27  C   UNL     1      -6.862  -1.614 129.219  0.00  0.00    +0.000 C 
ATOM     28  O   UNL     1      -6.722  -1.910 128.050  0.00  0.00    +0.000 OA
ATOM     29  H   UNL     1      -8.862  -1.425 129.226  0.00  0.00    +0.000 HD
BRANCH  27  30
ATOM     30  C   UNL     1      -5.769  -1.993 130.226  0.00  0.00    +0.000 A 
ATOM     31  C   UNL     1      -5.655  -3.392 130.454  0.00  0.00    +0.000 A 
ATOM     32  C   UNL     1      -4.523  -3.939 131.072  0.00  0.00    +0.000 A 
ATOM     33  C   UNL     1      -3.478  -3.112 131.457  0.00  0.00    +0.000 A 
ATOM     34  C   UNL     1      -3.586  -1.733 131.280  0.00  0.00    +0.000 A 
ATOM     35  C   UNL     1      -4.742  -1.129 130.724  0.00  0.00    +0.000 A 
BRANCH  35  36
ATOM     36  C   UNL     1      -4.706   0.333 130.524  0.00  0.00    +0.000 A 
ATOM     37  C   UNL     1      -4.627   0.866 129.233  0.00  0.00    +0.000 A 
ATOM     38  C   UNL     1      -4.215   2.181 129.034  0.00  0.00    +0.000 A 
ATOM     39  C   UNL     1      -4.051   3.034 130.119  0.00  0.00    +0.000 A 
ATOM     40  C   UNL     1      -4.299   2.568 131.409  0.00  0.00    +0.000 A 
ATOM     41  C   UNL     1      -4.570   1.216 131.614  0.00  0.00    +0.000 A 
ENDBRANCH  35  36
ENDBRANCH  27  30
ENDBRANCH   7  26
TORSDOF 4
ENDMDL
MODEL 3
REMARK VINA RESULT:     -10.8      3.668      5.503
REMARK  Name = CHEMBL602872
REMARK  6 active torsions:
REMARK  status: ('A' for Active; 'I' for Inactive)
REMARK    1  A    between atoms: C_1  and  C_2
REMARK    2  A    between atoms: C_4  and  C_5
REMARK    3  A    between atoms: N_12  and  C_13
REMARK    4  A    between atoms: C_24  and  N_25
REMARK    5  A    between atoms: C_26  and  C_28
REMARK    6  A    between atoms: C_33  and  C_34
REMARK                            x       y       z     vdW  Elec       q    Type
REMARK                         _______ _______ _______ _____ _____    ______ ____
ROOT
ATOM      1  C   UNL     1      -3.476  -1.417 130.363  0.00  0.00    +0.000 C 
ATOM      2  C   UNL     1      -4.577  -0.404 130.286  0.00  0.00    +0.000 A 
ATOM      3  C   UNL     1      -5.037   0.138 131.516  0.00  0.00    +0.000 A 
ATOM      4  C   UNL     1      -6.108   1.055 131.590  0.00  0.00    +0.000 A 
ATOM      5  C   UNL     1      -6.637   1.523 130.397  0.00  0.00    +0.000 A 
ATOM      6  C   UNL     1      -6.238   0.950 129.171  0.00  0.00    +0.000 A 
ATOM      7  C   UNL     1      -5.276  -0.085 129.108  0.00  0.00    +0.000 A 
ENDROOT
BRANCH   4   8
ATOM      8  C   UNL     1      -6.783   1.325 132.915  0.00  0.00    +0.000 C 
ATOM      9  O   UNL     1      -6.413   0.636 133.865  0.00  0.00    +0.000 OA
ATOM     10  N   UNL     1      -7.699   2.406 133.003  0.00  0.00    +0.000 N 
ATOM     11  C   UNL     1      -9.143   2.322 132.575  0.00  0.00    +0.000 C 
ATOM     12  C   UNL     1      -9.535   3.408 131.611  0.00  0.00    +0.000 A 
ATOM     13  C   UNL     1     -10.401   3.425 130.474  0.00  0.00    +0.000 A 
ATOM     14  N   UNL     1     -10.497   4.632 129.891  0.00  0.00    +0.000 NA
ATOM     15  N   UNL     1      -9.720   5.409 130.665  0.00  0.00    +0.000 N 
ATOM     16  C   UNL     1      -9.541   6.823 130.406  0.00  0.00    +0.000 C 
ATOM     17  C   UNL     1      -9.117   4.713 131.681  0.00  0.00    +0.000 A 
ATOM     18  N   UNL     1      -8.288   5.343 132.520  0.00  0.00    +0.000 N 
ATOM     19  C   UNL     1      -7.539   4.826 133.588  0.00  0.00    +0.000 A 
ATOM     20  C   UNL     1      -6.875   5.817 134.348  0.00  0.00    +0.000 A 
ATOM     21  C   UNL     1      -6.084   5.507 135.442  0.00  0.00    +0.000 A 
ATOM     22  C   UNL     1      -5.962   4.187 135.824  0.00  0.00    +0.000 A 
ATOM     23  C   UNL     1      -6.582   3.189 135.070  0.00  0.00    +0.000 A 
ATOM     24  C   UNL     1      -7.344   3.471 133.917  0.00  0.00    +0.000 A 
ATOM     25  H   UNL     1      -8.187   6.347 132.446  0.00  0.00    +0.000 HD
ENDBRANCH   4   8
BRANCH   7  26
ATOM     26  N   UNL     1      -5.190  -0.807 127.884  0.00  0.00    +0.000 N 
ATOM     27  C   UNL     1      -5.653  -2.077 127.528  0.00  0.00    +0.000 C 
ATOM     28  O   UNL     1      -4.871  -2.845 127.005  0.00  0.00    +0.000 OA
ATOM     29  H   UNL     1      -4.680  -0.365 127.127  0.00  0.00    +0.000 HD
BRANCH  27  30
ATOM     30  C   UNL     1      -7.107  -2.516 127.742  0.00  0.00    +0.000 A 
ATOM     31  C   UNL     1      -7.896  -2.492 126.559  0.00  0.00    +0.000 A 
ATOM     32  C   UNL     1      -9.127  -3.158 126.491  0.00  0.00    +0.000 A 
ATOM     33  C   UNL     1      -9.586  -3.874 127.587  0.00  0.00    +0.000 A 
ATOM     34  C   UNL     1      -8.848  -3.878 128.769  0.00  0.00    +0.000 A 
ATOM     35  C   UNL     1      -7.633  -3.160 128.906  0.00  0.00    +0.000 A 
BRANCH  35  36
ATOM     36  C   UNL     1      -6.910  -3.300 130.186  0.00  0.00    +0.000 A 
ATOM     37  C   UNL     1      -5.900  -4.258 130.323  0.00  0.00    +0.000 A 
ATOM     38  C   UNL     1      -5.479  -4.667 131.586  0.00  0.00    +0.000 A 
ATOM     39  C   UNL     1      -5.926  -4.001 132.721  0.00  0.00    +0.000 A 
ATOM     40  C   UNL     1      -6.799  -2.923 132.592  0.00  0.00    +0.000 A 
ATOM     41  C   UNL     1      -7.329  -2.610 131.341  0.00  0.00    +0.000 A 
ENDBRANCH  35  36
ENDBRANCH  27  30
ENDBRANCH   7  26
TORSDOF 4
ENDMDL
MODEL 4
REMARK VINA RESULT:     -10.7      3.536      8.064
REMARK  Name = CHEMBL602872
REMARK  6 active torsions:
REMARK  status: ('A' for Active; 'I' for Inactive)
REMARK    1  A    between atoms: C_1  and  C_2
REMARK    2  A    between atoms: C_4  and  C_5
REMARK    3  A    between atoms: N_12  and  C_13
REMARK    4  A    between atoms: C_24  and  N_25
REMARK    5  A    between atoms: C_26  and  C_28
REMARK    6  A    between atoms: C_33  and  C_34
REMARK                            x       y       z     vdW  Elec       q    Type
REMARK                         _______ _______ _______ _____ _____    ______ ____
ROOT
ATOM      1  C   UNL     1      -9.036   0.337 132.095  0.00  0.00    +0.000 C 
ATOM      2  C   UNL     1      -8.936   1.293 130.945  0.00  0.00    +0.000 A 
ATOM      3  C   UNL     1      -8.250   0.834 129.788  0.00  0.00    +0.000 A 
ATOM      4  C   UNL     1      -8.033   1.654 128.659  0.00  0.00    +0.000 A 
ATOM      5  C   UNL     1      -8.624   2.908 128.651  0.00  0.00    +0.000 A 
ATOM      6  C   UNL     1      -9.253   3.402 129.813  0.00  0.00    +0.000 A 
ATOM      7  C   UNL     1      -9.332   2.641 131.002  0.00  0.00    +0.000 A 
ENDROOT
BRANCH   4   8
ATOM      8  C   UNL     1      -7.011   1.254 127.619  0.00  0.00    +0.000 C 
ATOM      9  O   UNL     1      -7.296   0.282 126.921  0.00  0.00    +0.000 OA
ATOM     10  N   UNL     1      -5.866   2.074 127.441  0.00  0.00    +0.000 N 
ATOM     11  C   UNL     1      -4.634   1.999 128.309  0.00  0.00    +0.000 C 
ATOM     12  C   UNL     1      -4.235   3.332 128.881  0.00  0.00    +0.000 A 
ATOM     13  C   UNL     1      -3.694   3.717 130.146  0.00  0.00    +0.000 A 
ATOM     14  N   UNL     1      -3.451   5.035 130.246  0.00  0.00    +0.000 NA
ATOM     15  N   UNL     1      -3.803   5.504 129.037  0.00  0.00    +0.000 N 
ATOM     16  C   UNL     1      -3.688   6.906 128.690  0.00  0.00    +0.000 C 
ATOM     17  C   UNL     1      -4.293   4.526 128.209  0.00  0.00    +0.000 A 
ATOM     18  N   UNL     1      -4.714   4.843 126.980  0.00  0.00    +0.000 N 
ATOM     19  C   UNL     1      -5.284   4.022 125.995  0.00  0.00    +0.000 A 
ATOM     20  C   UNL     1      -5.481   4.676 124.756  0.00  0.00    +0.000 A 
ATOM     21  C   UNL     1      -6.034   4.036 123.659  0.00  0.00    +0.000 A 
ATOM     22  C   UNL     1      -6.378   2.704 123.768  0.00  0.00    +0.000 A 
ATOM     23  C   UNL     1      -6.223   2.047 124.990  0.00  0.00    +0.000 A 
ATOM     24  C   UNL     1      -5.717   2.691 126.139  0.00  0.00    +0.000 A 
ATOM     25  H   UNL     1      -4.581   5.789 126.647  0.00  0.00    +0.000 HD
ENDBRANCH   4   8
BRANCH   7  26
ATOM     26  N   UNL     1      -9.683   3.342 132.191  0.00  0.00    +0.000 N 
ATOM     27  C   UNL     1      -8.932   4.171 133.027  0.00  0.00    +0.000 C 
ATOM     28  O   UNL     1      -8.945   3.943 134.220  0.00  0.00    +0.000 OA
ATOM     29  H   UNL     1     -10.627   3.210 132.537  0.00  0.00    +0.000 HD
BRANCH  27  30
ATOM     30  C   UNL     1      -8.130   5.367 132.500  0.00  0.00    +0.000 A 
ATOM     31  C   UNL     1      -6.738   5.298 132.784  0.00  0.00    +0.000 A 
ATOM     32  C   UNL     1      -5.817   6.113 132.112  0.00  0.00    +0.000 A 
ATOM     33  C   UNL     1      -6.257   6.994 131.136  0.00  0.00    +0.000 A 
ATOM     34  C   UNL     1      -7.621   7.107 130.870  0.00  0.00    +0.000 A 
ATOM     35  C   UNL     1      -8.594   6.355 131.574  0.00  0.00    +0.000 A 
BRANCH  35  36
ATOM     36  C   UNL     1     -10.000   6.513 131.153  0.00  0.00    +0.000 A 
ATOM     37  C   UNL     1     -10.305   6.863 129.833  0.00  0.00    +0.000 A 
ATOM     38  C   UNL     1     -11.556   7.382 129.508  0.00  0.00    +0.000 A 
ATOM     39  C   UNL     1     -12.575   7.390 130.453  0.00  0.00    +0.000 A 
ATOM     40  C   UNL     1     -12.341   6.878 131.728  0.00  0.00    +0.000 A 
ATOM     41  C   UNL     1     -11.051   6.494 132.091  0.00  0.00    +0.000 A 
ENDBRANCH  35  36
ENDBRANCH  27  30
ENDBRANCH   7  26
TORSDOF 4
ENDMDL
MODEL 5
REMARK VINA RESULT:     -10.7      2.443      8.324
REMARK  Name = CHEMBL602872
REMARK  6 active torsions:
REMARK  status: ('A' for Active; 'I' for Inactive)
REMARK    1  A    between atoms: C_1  and  C_2
REMARK    2  A    between atoms: C_4  and  C_5
REMARK    3  A    between atoms: N_12  and  C_13
REMARK    4  A    between atoms: C_24  and  N_25
REMARK    5  A    between atoms: C_26  and  C_28
REMARK    6  A    between atoms: C_33  and  C_34
REMARK                            x       y       z     vdW  Elec       q    Type
REMARK                         _______ _______ _______ _____ _____    ______ ____
ROOT
ATOM      1  C   UNL     1      -8.315   0.239 132.167  0.00  0.00    +0.000 C 
ATOM      2  C   UNL     1      -8.307   0.683 130.736  0.00  0.00    +0.000 A 
ATOM      3  C   UNL     1      -7.914  -0.280 129.768  0.00  0.00    +0.000 A 
ATOM      4  C   UNL     1      -7.806   0.025 128.393  0.00  0.00    +0.000 A 
ATOM      5  C   UNL     1      -8.218   1.281 127.979  0.00  0.00    +0.000 A 
ATOM      6  C   UNL     1      -8.549   2.269 128.930  0.00  0.00    +0.000 A 
ATOM      7  C   UNL     1      -8.505   2.012 130.320  0.00  0.00    +0.000 A 
ENDROOT
BRANCH   4   8
ATOM      8  C   UNL     1      -7.057  -0.908 127.469  0.00  0.00    +0.000 C 
ATOM      9  O   UNL     1      -6.694  -1.979 127.952  0.00  0.00    +0.000 OA
ATOM     10  N   UNL     1      -6.921  -0.546 126.103  0.00  0.00    +0.000 N 
ATOM     11  C   UNL     1      -5.868   0.401 125.584  0.00  0.00    +0.000 C 
ATOM     12  C   UNL     1      -6.439   1.527 124.765  0.00  0.00    +0.000 A 
ATOM     13  C   UNL     1      -6.092   2.908 124.646  0.00  0.00    +0.000 A 
ATOM     14  N   UNL     1      -6.856   3.577 123.765  0.00  0.00    +0.000 NA
ATOM     15  N   UNL     1      -7.678   2.629 123.288  0.00  0.00    +0.000 N 
ATOM     16  C   UNL     1      -8.680   2.911 122.281  0.00  0.00    +0.000 C 
ATOM     17  C   UNL     1      -7.475   1.405 123.874  0.00  0.00    +0.000 A 
ATOM     18  N   UNL     1      -8.238   0.364 123.525  0.00  0.00    +0.000 N 
ATOM     19  C   UNL     1      -8.234  -0.949 124.019  0.00  0.00    +0.000 A 
ATOM     20  C   UNL     1      -9.092  -1.824 123.314  0.00  0.00    +0.000 A 
ATOM     21  C   UNL     1      -9.229  -3.161 123.651  0.00  0.00    +0.000 A 
ATOM     22  C   UNL     1      -8.480  -3.665 124.693  0.00  0.00    +0.000 A 
ATOM     23  C   UNL     1      -7.650  -2.814 125.425  0.00  0.00    +0.000 A 
ATOM     24  C   UNL     1      -7.537  -1.436 125.141  0.00  0.00    +0.000 A 
ATOM     25  H   UNL     1      -8.898   0.475 122.766  0.00  0.00    +0.000 HD
ENDBRANCH   4   8
BRANCH   7  26
ATOM     26  N   UNL     1      -8.533   3.144 131.183  0.00  0.00    +0.000 N 
ATOM     27  C   UNL     1      -7.504   3.852 131.809  0.00  0.00    +0.000 C 
ATOM     28  O   UNL     1      -7.594   4.055 133.004  0.00  0.00    +0.000 OA
ATOM     29  H   UNL     1      -9.447   3.504 131.434  0.00  0.00    +0.000 HD
BRANCH  27  30
ATOM     30  C   UNL     1      -6.297   4.406 131.042  0.00  0.00    +0.000 A 
ATOM     31  C   UNL     1      -6.301   5.821 130.906  0.00  0.00    +0.000 A 
ATOM     32  C   UNL     1      -5.144   6.520 130.535  0.00  0.00    +0.000 A 
ATOM     33  C   UNL     1      -3.961   5.829 130.313  0.00  0.00    +0.000 A 
ATOM     34  C   UNL     1      -3.945   4.438 130.402  0.00  0.00    +0.000 A 
ATOM     35  C   UNL     1      -5.107   3.685 130.704  0.00  0.00    +0.000 A 
BRANCH  35  36
ATOM     36  C   UNL     1      -4.946   2.224 130.838  0.00  0.00    +0.000 A 
ATOM     37  C   UNL     1      -4.872   1.636 132.105  0.00  0.00    +0.000 A 
ATOM     38  C   UNL     1      -4.349   0.355 132.263  0.00  0.00    +0.000 A 
ATOM     39  C   UNL     1      -4.063  -0.424 131.148  0.00  0.00    +0.000 A 
ATOM     40  C   UNL     1      -4.299   0.081 129.871  0.00  0.00    +0.000 A 
ATOM     41  C   UNL     1      -4.685   1.412 129.716  0.00  0.00    +0.000 A 
ENDBRANCH  35  36
ENDBRANCH  27  30
ENDBRANCH   7  26
TORSDOF 4
ENDMDL
MODEL 6
REMARK VINA RESULT:     -10.4      3.587      8.997
REMARK  Name = CHEMBL602872
REMARK  6 active torsions:
REMARK  status: ('A' for Active; 'I' for Inactive)
REMARK    1  A    between atoms: C_1  and  C_2
REMARK    2  A    between atoms: C_4  and  C_5
REMARK    3  A    between atoms: N_12  and  C_13
REMARK    4  A    between atoms: C_24  and  N_25
REMARK    5  A    between atoms: C_26  and  C_28
REMARK    6  A    between atoms: C_33  and  C_34
REMARK                            x       y       z     vdW  Elec       q    Type
REMARK                         _______ _______ _______ _____ _____    ______ ____
ROOT
ATOM      1  C   UNL     1      -9.094   0.083 132.129  0.00  0.00    +0.000 C 
ATOM      2  C   UNL     1      -8.744   0.964 130.968  0.00  0.00    +0.000 A 
ATOM      3  C   UNL     1      -7.815   0.445 130.027  0.00  0.00    +0.000 A 
ATOM      4  C   UNL     1      -7.354   1.194 128.923  0.00  0.00    +0.000 A 
ATOM      5  C   UNL     1      -7.933   2.433 128.699  0.00  0.00    +0.000 A 
ATOM      6  C   UNL     1      -8.808   2.990 129.655  0.00  0.00    +0.000 A 
ATOM      7  C   UNL     1      -9.148   2.305 130.845  0.00  0.00    +0.000 A 
ENDROOT
BRANCH   4   8
ATOM      8  C   UNL     1      -6.123   0.747 128.166  0.00  0.00    +0.000 C 
ATOM      9  O   UNL     1      -5.288   0.114 128.810  0.00  0.00    +0.000 OA
ATOM     10  N   UNL     1      -6.063   0.982 126.768  0.00  0.00    +0.000 N 
ATOM     11  C   UNL     1      -5.650   2.297 126.152  0.00  0.00    +0.000 C 
ATOM     12  C   UNL     1      -6.653   2.824 125.162  0.00  0.00    +0.000 A 
ATOM     13  C   UNL     1      -7.107   4.144 124.857  0.00  0.00    +0.000 A 
ATOM     14  N   UNL     1      -8.013   4.182 123.865  0.00  0.00    +0.000 NA
ATOM     15  N   UNL     1      -8.127   2.894 123.503  0.00  0.00    +0.000 N 
ATOM     16  C   UNL     1      -9.006   2.467 122.434  0.00  0.00    +0.000 C 
ATOM     17  C   UNL     1      -7.351   2.057 124.265  0.00  0.00    +0.000 A 
ATOM     18  N   UNL     1      -7.379   0.739 124.044  0.00  0.00    +0.000 N 
ATOM     19  C   UNL     1      -6.710  -0.292 124.722  0.00  0.00    +0.000 A 
ATOM     20  C   UNL     1      -6.869  -1.563 124.122  0.00  0.00    +0.000 A 
ATOM     21  C   UNL     1      -6.288  -2.707 124.643  0.00  0.00    +0.000 A 
ATOM     22  C   UNL     1      -5.501  -2.601 125.771  0.00  0.00    +0.000 A 
ATOM     23  C   UNL     1      -5.356  -1.363 126.399  0.00  0.00    +0.000 A 
ATOM     24  C   UNL     1      -5.984  -0.192 125.924  0.00  0.00    +0.000 A 
ATOM     25  H   UNL     1      -7.907   0.385 123.257  0.00  0.00    +0.000 HD
ENDBRANCH   4   8
BRANCH   7  26
ATOM     26  N   UNL     1      -9.759   3.075 131.875  0.00  0.00    +0.000 N 
ATOM     27  C   UNL     1      -9.213   3.943 132.824  0.00  0.00    +0.000 C 
ATOM     28  O   UNL     1      -9.518   3.783 133.989  0.00  0.00    +0.000 OA
ATOM     29  H   UNL     1     -10.761   2.971 131.990  0.00  0.00    +0.000 HD
BRANCH  27  30
ATOM     30  C   UNL     1      -8.282   5.101 132.444  0.00  0.00    +0.000 A 
ATOM     31  C   UNL     1      -6.920   4.884 132.793  0.00  0.00    +0.000 A 
ATOM     32  C   UNL     1      -5.894   5.664 132.243  0.00  0.00    +0.000 A 
ATOM     33  C   UNL     1      -6.199   6.658 131.324  0.00  0.00    +0.000 A 
ATOM     34  C   UNL     1      -7.530   6.914 130.998  0.00  0.00    +0.000 A 
ATOM     35  C   UNL     1      -8.604   6.198 131.583  0.00  0.00    +0.000 A 
BRANCH  35  36
ATOM     36  C   UNL     1      -9.964   6.516 131.104  0.00  0.00    +0.000 A 
ATOM     37  C   UNL     1     -10.153   7.046 129.823  0.00  0.00    +0.000 A 
ATOM     38  C   UNL     1     -11.340   7.697 129.494  0.00  0.00    +0.000 A 
ATOM     39  C   UNL     1     -12.417   7.670 130.371  0.00  0.00    +0.000 A 
ATOM     40  C   UNL     1     -12.307   6.991 131.583  0.00  0.00    +0.000 A 
ATOM     41  C   UNL     1     -11.074   6.466 131.970  0.00  0.00    +0.000 A 
ENDBRANCH  35  36
ENDBRANCH  27  30
ENDBRANCH   7  26
TORSDOF 4
ENDMDL
MODEL 7
REMARK VINA RESULT:     -10.3      2.939      4.499
REMARK  Name = CHEMBL602872
REMARK  6 active torsions:
REMARK  status: ('A' for Active; 'I' for Inactive)
REMARK    1  A    between atoms: C_1  and  C_2
REMARK    2  A    between atoms: C_4  and  C_5
REMARK    3  A    between atoms: N_12  and  C_13
REMARK    4  A    between atoms: C_24  and  N_25
REMARK    5  A    between atoms: C_26  and  C_28
REMARK    6  A    between atoms: C_33  and  C_34
REMARK                            x       y       z     vdW  Elec       q    Type
REMARK                         _______ _______ _______ _____ _____    ______ ____
ROOT
ATOM      1  C   UNL     1      -7.890  -1.581 127.736  0.00  0.00    +0.000 C 
ATOM      2  C   UNL     1      -7.902  -0.085 127.824  0.00  0.00    +0.000 A 
ATOM      3  C   UNL     1      -7.395   0.490 129.020  0.00  0.00    +0.000 A 
ATOM      4  C   UNL     1      -7.404   1.882 129.257  0.00  0.00    +0.000 A 
ATOM      5  C   UNL     1      -7.816   2.708 128.223  0.00  0.00    +0.000 A 
ATOM      6  C   UNL     1      -8.382   2.153 127.056  0.00  0.00    +0.000 A 
ATOM      7  C   UNL     1      -8.520   0.756 126.883  0.00  0.00    +0.000 A 
ENDROOT
BRANCH   4   8
ATOM      8  C   UNL     1      -7.190   2.413 130.656  0.00  0.00    +0.000 C 
ATOM      9  O   UNL     1      -6.373   1.808 131.350  0.00  0.00    +0.000 OA
ATOM     10  N   UNL     1      -7.845   3.614 131.035  0.00  0.00    +0.000 N 
ATOM     11  C   UNL     1      -9.277   3.680 131.504  0.00  0.00    +0.000 C 
ATOM     12  C   UNL     1     -10.103   4.676 130.738  0.00  0.00    +0.000 A 
ATOM     13  C   UNL     1     -11.462   4.667 130.293  0.00  0.00    +0.000 A 
ATOM     14  N   UNL     1     -11.822   5.790 129.649  0.00  0.00    +0.000 NA
ATOM     15  N   UNL     1     -10.711   6.543 129.701  0.00  0.00    +0.000 N 
ATOM     16  C   UNL     1     -10.653   7.873 129.129  0.00  0.00    +0.000 C 
ATOM     17  C   UNL     1      -9.665   5.907 130.320  0.00  0.00    +0.000 A 
ATOM     18  N   UNL     1      -8.480   6.518 130.423  0.00  0.00    +0.000 N 
ATOM     19  C   UNL     1      -7.278   6.043 130.969  0.00  0.00    +0.000 A 
ATOM     20  C   UNL     1      -6.258   7.021 131.033  0.00  0.00    +0.000 A 
ATOM     21  C   UNL     1      -4.998   6.748 131.538  0.00  0.00    +0.000 A 
ATOM     22  C   UNL     1      -4.736   5.484 132.026  0.00  0.00    +0.000 A 
ATOM     23  C   UNL     1      -5.716   4.494 131.945  0.00  0.00    +0.000 A 
ATOM     24  C   UNL     1      -6.988   4.729 131.380  0.00  0.00    +0.000 A 
ATOM     25  H   UNL     1      -8.398   7.479 130.119  0.00  0.00    +0.000 HD
ENDBRANCH   4   8
BRANCH   7  26
ATOM     26  N   UNL     1      -9.387   0.321 125.840  0.00  0.00    +0.000 N 
ATOM     27  C   UNL     1      -9.720   0.905 124.615  0.00  0.00    +0.000 C 
ATOM     28  O   UNL     1     -10.896   1.017 124.336  0.00  0.00    +0.000 OA
ATOM     29  H   UNL     1      -9.893  -0.543 125.997  0.00  0.00    +0.000 HD
BRANCH  27  30
ATOM     30  C   UNL     1      -8.661   1.371 123.608  0.00  0.00    +0.000 A 
ATOM     31  C   UNL     1      -8.893   2.675 123.090  0.00  0.00    +0.000 A 
ATOM     32  C   UNL     1      -7.883   3.385 122.427  0.00  0.00    +0.000 A 
ATOM     33  C   UNL     1      -6.622   2.822 122.285  0.00  0.00    +0.000 A 
ATOM     34  C   UNL     1      -6.385   1.530 122.750  0.00  0.00    +0.000 A 
ATOM     35  C   UNL     1      -7.396   0.748 123.362  0.00  0.00    +0.000 A 
BRANCH  35  36
ATOM     36  C   UNL     1      -7.001  -0.579 123.875  0.00  0.00    +0.000 A 
ATOM     37  C   UNL     1      -5.939  -0.698 124.778  0.00  0.00    +0.000 A 
ATOM     38  C   UNL     1      -5.312  -1.925 124.976  0.00  0.00    +0.000 A 
ATOM     39  C   UNL     1      -5.845  -3.080 124.417  0.00  0.00    +0.000 A 
ATOM     40  C   UNL     1      -7.010  -3.007 123.656  0.00  0.00    +0.000 A 
ATOM     41  C   UNL     1      -7.552  -1.761 123.342  0.00  0.00    +0.000 A 
ENDBRANCH  35  36
ENDBRANCH  27  30
ENDBRANCH   7  26
TORSDOF 4
ENDMDL
MODEL 8
REMARK VINA RESULT:     -10.2      3.344      4.915
REMARK  Name = CHEMBL602872
REMARK  6 active torsions:
REMARK  status: ('A' for Active; 'I' for Inactive)
REMARK    1  A    between atoms: C_1  and  C_2
REMARK    2  A    between atoms: C_4  and  C_5
REMARK    3  A    between atoms: N_12  and  C_13
REMARK    4  A    between atoms: C_24  and  N_25
REMARK    5  A    between atoms: C_26  and  C_28
REMARK    6  A    between atoms: C_33  and  C_34
REMARK                            x       y       z     vdW  Elec       q    Type
REMARK                         _______ _______ _______ _____ _____    ______ ____
ROOT
ATOM      1  C   UNL     1      -7.119   0.905 129.409  0.00  0.00    +0.000 C 
ATOM      2  C   UNL     1      -5.983   0.439 130.268  0.00  0.00    +0.000 A 
ATOM      3  C   UNL     1      -5.797   1.113 131.505  0.00  0.00    +0.000 A 
ATOM      4  C   UNL     1      -4.730   0.813 132.380  0.00  0.00    +0.000 A 
ATOM      5  C   UNL     1      -3.917  -0.262 132.058  0.00  0.00    +0.000 A 
ATOM      6  C   UNL     1      -4.047  -0.900 130.807  0.00  0.00    +0.000 A 
ATOM      7  C   UNL     1      -5.016  -0.496 129.859  0.00  0.00    +0.000 A 
ENDROOT
BRANCH   4   8
ATOM      8  C   UNL     1      -4.368   1.775 133.489  0.00  0.00    +0.000 C 
ATOM      9  O   UNL     1      -3.350   1.512 134.127  0.00  0.00    +0.000 OA
ATOM     10  N   UNL     1      -5.143   2.953 133.647  0.00  0.00    +0.000 N 
ATOM     11  C   UNL     1      -6.460   3.001 134.383  0.00  0.00    +0.000 C 
ATOM     12  C   UNL     1      -7.568   3.610 133.567  0.00  0.00    +0.000 A 
ATOM     13  C   UNL     1      -8.961   3.311 133.454  0.00  0.00    +0.000 A 
ATOM     14  N   UNL     1      -9.618   4.129 132.614  0.00  0.00    +0.000 NA
ATOM     15  N   UNL     1      -8.663   4.980 132.205  0.00  0.00    +0.000 N 
ATOM     16  C   UNL     1      -8.937   6.063 131.282  0.00  0.00    +0.000 C 
ATOM     17  C   UNL     1      -7.430   4.690 132.733  0.00  0.00    +0.000 A 
ATOM     18  N   UNL     1      -6.369   5.431 132.395  0.00  0.00    +0.000 N 
ATOM     19  C   UNL     1      -5.027   5.288 132.774  0.00  0.00    +0.000 A 
ATOM     20  C   UNL     1      -4.196   6.344 132.333  0.00  0.00    +0.000 A 
ATOM     21  C   UNL     1      -2.838   6.385 132.604  0.00  0.00    +0.000 A 
ATOM     22  C   UNL     1      -2.280   5.374 133.359  0.00  0.00    +0.000 A 
ATOM     23  C   UNL     1      -3.072   4.305 133.779  0.00  0.00    +0.000 A 
ATOM     24  C   UNL     1      -4.445   4.209 133.466  0.00  0.00    +0.000 A 
ATOM     25  H   UNL     1      -6.510   6.253 131.822  0.00  0.00    +0.000 HD
ENDBRANCH   4   8
BRANCH   7  26
ATOM     26  N   UNL     1      -4.850  -0.974 128.528  0.00  0.00    +0.000 N 
ATOM     27  C   UNL     1      -5.352  -2.109 127.887  0.00  0.00    +0.000 C 
ATOM     28  O   UNL     1      -4.570  -2.823 127.292  0.00  0.00    +0.000 OA
ATOM     29  H   UNL     1      -4.237  -0.437 127.924  0.00  0.00    +0.000 HD
BRANCH  27  30
ATOM     30  C   UNL     1      -6.845  -2.459 127.878  0.00  0.00    +0.000 A 
ATOM     31  C   UNL     1      -7.481  -2.240 126.625  0.00  0.00    +0.000 A 
ATOM     32  C   UNL     1      -8.733  -2.800 126.336  0.00  0.00    +0.000 A 
ATOM     33  C   UNL     1      -9.365  -3.601 127.276  0.00  0.00    +0.000 A 
ATOM     34  C   UNL     1      -8.778  -3.796 128.525  0.00  0.00    +0.000 A 
ATOM     35  C   UNL     1      -7.548  -3.192 128.887  0.00  0.00    +0.000 A 
BRANCH  35  36
ATOM     36  C   UNL     1      -6.996  -3.532 130.213  0.00  0.00    +0.000 A 
ATOM     37  C   UNL     1      -7.410  -2.829 131.349  0.00  0.00    +0.000 A 
ATOM     38  C   UNL     1      -6.651  -2.860 132.517  0.00  0.00    +0.000 A 
ATOM     39  C   UNL     1      -5.574  -3.732 132.626  0.00  0.00    +0.000 A 
ATOM     40  C   UNL     1      -5.254  -4.574 131.563  0.00  0.00    +0.000 A 
ATOM     41  C   UNL     1      -5.924  -4.436 130.348  0.00  0.00    +0.000 A 
ENDBRANCH  35  36
ENDBRANCH  27  30
ENDBRANCH   7  26
TORSDOF 4
ENDMDL
MODEL 9
REMARK VINA RESULT:     -10.2      3.000      5.493
REMARK  Name = CHEMBL602872
REMARK  6 active torsions:
REMARK  status: ('A' for Active; 'I' for Inactive)
REMARK    1  A    between atoms: C_1  and  C_2
REMARK    2  A    between atoms: C_4  and  C_5
REMARK    3  A    between atoms: N_12  and  C_13
REMARK    4  A    between atoms: C_24  and  N_25
REMARK    5  A    between atoms: C_26  and  C_28
REMARK    6  A    between atoms: C_33  and  C_34
REMARK                            x       y       z     vdW  Elec       q    Type
REMARK                         _______ _______ _______ _____ _____    ______ ____
ROOT
ATOM      1  C   UNL     1      -4.945   0.745 132.225  0.00  0.00    +0.000 C 
ATOM      2  C   UNL     1      -4.593   1.649 131.083  0.00  0.00    +0.000 A 
ATOM      3  C   UNL     1      -4.863   3.034 131.255  0.00  0.00    +0.000 A 
ATOM      4  C   UNL     1      -4.636   3.984 130.236  0.00  0.00    +0.000 A 
ATOM      5  C   UNL     1      -4.013   3.548 129.077  0.00  0.00    +0.000 A 
ATOM      6  C   UNL     1      -3.797   2.171 128.864  0.00  0.00    +0.000 A 
ATOM      7  C   UNL     1      -4.171   1.198 129.821  0.00  0.00    +0.000 A 
ENDROOT
BRANCH   4   8
ATOM      8  C   UNL     1      -5.257   5.359 130.331  0.00  0.00    +0.000 C 
ATOM      9  O   UNL     1      -5.606   5.873 129.269  0.00  0.00    +0.000 OA
ATOM     10  N   UNL     1      -5.498   5.909 131.617  0.00  0.00    +0.000 N 
ATOM     11  C   UNL     1      -4.446   6.608 132.443  0.00  0.00    +0.000 C 
ATOM     12  C   UNL     1      -4.319   6.046 133.833  0.00  0.00    +0.000 A 
ATOM     13  C   UNL     1      -3.194   5.828 134.688  0.00  0.00    +0.000 A 
ATOM     14  N   UNL     1      -3.524   5.318 135.887  0.00  0.00    +0.000 NA
ATOM     15  N   UNL     1      -4.863   5.233 135.826  0.00  0.00    +0.000 N 
ATOM     16  C   UNL     1      -5.656   4.739 136.933  0.00  0.00    +0.000 C 
ATOM     17  C   UNL     1      -5.368   5.636 134.616  0.00  0.00    +0.000 A 
ATOM     18  N   UNL     1      -6.685   5.580 134.391  0.00  0.00    +0.000 N 
ATOM     19  C   UNL     1      -7.403   5.896 133.228  0.00  0.00    +0.000 A 
ATOM     20  C   UNL     1      -8.807   5.850 133.398  0.00  0.00    +0.000 A 
ATOM     21  C   UNL     1      -9.689   6.127 132.367  0.00  0.00    +0.000 A 
ATOM     22  C   UNL     1      -9.182   6.491 131.136  0.00  0.00    +0.000 A 
ATOM     23  C   UNL     1      -7.801   6.511 130.935  0.00  0.00    +0.000 A 
ATOM     24  C   UNL     1      -6.881   6.176 131.951  0.00  0.00    +0.000 A 
ATOM     25  H   UNL     1      -7.300   5.325 135.152  0.00  0.00    +0.000 HD
ENDBRANCH   4   8
BRANCH   7  26
ATOM     26  N   UNL     1      -4.214  -0.154 129.378  0.00  0.00    +0.000 N 
ATOM     27  C   UNL     1      -5.278  -0.950 128.945  0.00  0.00    +0.000 C 
ATOM     28  O   UNL     1      -5.417  -2.045 129.452  0.00  0.00    +0.000 OA
ATOM     29  H   UNL     1      -3.341  -0.670 129.400  0.00  0.00    +0.000 HD
BRANCH  27  30
ATOM     30  C   UNL     1      -6.244  -0.506 127.840  0.00  0.00    +0.000 A 
ATOM     31  C   UNL     1      -6.038  -1.164 126.596  0.00  0.00    +0.000 A 
ATOM     32  C   UNL     1      -7.011  -1.134 125.587  0.00  0.00    +0.000 A 
ATOM     33  C   UNL     1      -8.209  -0.469 125.802  0.00  0.00    +0.000 A 
ATOM     34  C   UNL     1      -8.415   0.216 126.998  0.00  0.00    +0.000 A 
ATOM     35  C   UNL     1      -7.432   0.272 128.017  0.00  0.00    +0.000 A 
BRANCH  35  36
ATOM     36  C   UNL     1      -7.798   0.971 129.266  0.00  0.00    +0.000 A 
ATOM     37  C   UNL     1      -8.192   0.241 130.392  0.00  0.00    +0.000 A 
ATOM     38  C   UNL     1      -8.891   0.859 131.427  0.00  0.00    +0.000 A 
ATOM     39  C   UNL     1      -9.046   2.240 131.437  0.00  0.00    +0.000 A 
ATOM     40  C   UNL     1      -8.502   3.006 130.409  0.00  0.00    +0.000 A 
ATOM     41  C   UNL     1      -7.931   2.373 129.305  0.00  0.00    +0.000 A 
ENDBRANCH  35  36
ENDBRANCH  27  30
ENDBRANCH   7  26
TORSDOF 4
ENDMDL
