MODEL 1
REMARK VINA RESULT:      -9.2      0.000      0.000
REMARK  Name = CHEMBL1807273
REMARK  10 active torsions:
REMARK  status: ('A' for Active; 'I' for Inactive)
REMARK    1  A    between atoms: C_1  and  N_2
REMARK    2  A    between atoms: N_2  and  C_3
REMARK    3  A    between atoms: N_2  and  C_4
REMARK    4  A    between atoms: C_7  and  N_8
REMARK    5  A    between atoms: C_9  and  C_11
REMARK    6  A    between atoms: C_11  and  C_12
REMARK    7  A    between atoms: C_11  and  N_20
REMARK    8  A    between atoms: C_12  and  C_13
REMARK    9  A    between atoms: C_21  and  C_23
REMARK   10  A    between atoms: C_23  and  C_24
REMARK                            x       y       z     vdW  Elec       q    Type
REMARK                         _______ _______ _______ _____ _____    ______ ____
ROOT
ATOM      1  C   UNL     1      -7.885   1.928 123.946  0.00  0.00    +0.000 C 
ENDROOT
BRANCH   1   3
ATOM      2  N   UNL     1      -7.776   2.183 126.490  0.00  0.00    +0.000 N 
ATOM      3  C   UNL     1      -8.301   2.622 125.274  0.00  0.00    +0.000 C 
ATOM      4  O   UNL     1      -9.041   3.602 125.126  0.00  0.00    +0.000 OA
ATOM      5  H   UNL     1      -6.778   2.130 126.495  0.00  0.00    +0.000 HD
BRANCH   2   9
ATOM      6  C   UNL     1      -5.327   2.841 128.661  0.00  0.00    +0.000 C 
ATOM      7  C   UNL     1      -5.902   1.406 128.416  0.00  0.00    +0.000 C 
ATOM      8  C   UNL     1      -7.391   1.398 128.716  0.00  0.00    +0.000 C 
ATOM      9  C   UNL     1      -8.018   2.507 127.898  0.00  0.00    +0.000 C 
ATOM     10  C   UNL     1      -7.608   3.922 128.224  0.00  0.00    +0.000 C 
ATOM     11  C   UNL     1      -6.115   4.061 128.029  0.00  0.00    +0.000 C 
BRANCH   6  13
ATOM     12  C   UNL     1      -4.735   4.392 130.381  0.00  0.00    +0.000 C 
ATOM     13  N   UNL     1      -5.343   3.090 130.125  0.00  0.00    +0.000 NA
ATOM     14  C   UNL     1      -4.639   2.085 130.926  0.00  0.00    +0.000 C 
ENDBRANCH   6  13
ENDBRANCH   2   9
ENDBRANCH   1   3
BRANCH   1  15
ATOM     15  N   UNL     1      -7.869   0.511 124.316  0.00  0.00    +0.000 N 
ATOM     16  C   UNL     1      -8.911  -0.336 124.051  0.00  0.00    +0.000 C 
ATOM     17  O   UNL     1      -9.962   0.008 123.558  0.00  0.00    +0.000 OA
ATOM     18  H   UNL     1      -7.003   0.163 124.731  0.00  0.00    +0.000 HD
BRANCH  16  19
ATOM     19  C   UNL     1      -8.595  -1.787 124.306  0.00  0.00    +0.000 C 
ATOM     20  C   UNL     1      -9.039  -2.798 123.257  0.00  0.00    +0.000 C 
ATOM     21  C   UNL     1      -7.590  -2.434 123.355  0.00  0.00    +0.000 C 
BRANCH  19  22
ATOM     22  C   UNL     1      -8.564  -2.078 125.810  0.00  0.00    +0.000 A 
ATOM     23  C   UNL     1      -9.358  -3.130 126.321  0.00  0.00    +0.000 A 
ATOM     24  C   UNL     1      -9.104  -3.707 127.569  0.00  0.00    +0.000 A 
ATOM     25  C   UNL     1      -8.054  -3.229 128.337  0.00  0.00    +0.000 A 
ATOM     26  F   UNL     1      -7.782  -3.803 129.517  0.00  0.00    +0.000 F 
ATOM     27  C   UNL     1      -7.262  -2.183 127.882  0.00  0.00    +0.000 A 
ATOM     28  C   UNL     1      -7.525  -1.601 126.634  0.00  0.00    +0.000 A 
ENDBRANCH  19  22
ENDBRANCH  16  19
ENDBRANCH   1  15
BRANCH   1  29
ATOM     29  C   UNL     1      -6.515   2.371 123.366  0.00  0.00    +0.000 C 
BRANCH  29  30
ATOM     30  C   UNL     1      -6.595   3.225 122.120  0.00  0.00    +0.000 A 
ATOM     31  C   UNL     1      -7.663   3.350 121.262  0.00  0.00    +0.000 A 
ATOM     32  C   UNL     1      -7.518   4.140 120.097  0.00  0.00    +0.000 A 
ATOM     33  C   UNL     1      -6.277   4.672 119.718  0.00  0.00    +0.000 A 
ATOM     34 CL   UNL     1      -6.072   5.620 118.305  0.00  0.00    +0.000 Cl
ATOM     35  C   UNL     1      -5.229   4.579 120.583  0.00  0.00    +0.000 A 
ATOM     36  C   UNL     1      -5.546   4.069 121.820  0.00  0.00    +0.000 A 
ENDBRANCH  29  30
ENDBRANCH   1  29
TORSDOF 8
ENDMDL
MODEL 2
REMARK VINA RESULT:      -9.1      2.295      3.426
REMARK  Name = CHEMBL1807273
REMARK  10 active torsions:
REMARK  status: ('A' for Active; 'I' for Inactive)
REMARK    1  A    between atoms: C_1  and  N_2
REMARK    2  A    between atoms: N_2  and  C_3
REMARK    3  A    between atoms: N_2  and  C_4
REMARK    4  A    between atoms: C_7  and  N_8
REMARK    5  A    between atoms: C_9  and  C_11
REMARK    6  A    between atoms: C_11  and  C_12
REMARK    7  A    between atoms: C_11  and  N_20
REMARK    8  A    between atoms: C_12  and  C_13
REMARK    9  A    between atoms: C_21  and  C_23
REMARK   10  A    between atoms: C_23  and  C_24
REMARK                            x       y       z     vdW  Elec       q    Type
REMARK                         _______ _______ _______ _____ _____    ______ ____
ROOT
ATOM      1  C   UNL     1      -7.986   1.619 125.030  0.00  0.00    +0.000 C 
ENDROOT
BRANCH   1   3
ATOM      2  N   UNL     1      -7.261   1.073 127.423  0.00  0.00    +0.000 N 
ATOM      3  C   UNL     1      -7.925   1.937 126.551  0.00  0.00    +0.000 C 
ATOM      4  O   UNL     1      -8.429   3.022 126.864  0.00  0.00    +0.000 OA
ATOM      5  H   UNL     1      -6.327   0.860 127.137  0.00  0.00    +0.000 HD
BRANCH   2   9
ATOM      6  C   UNL     1      -6.179  -1.666 128.995  0.00  0.00    +0.000 C 
ATOM      7  C   UNL     1      -7.690  -1.372 128.713  0.00  0.00    +0.000 C 
ATOM      8  C   UNL     1      -8.081  -0.057 129.365  0.00  0.00    +0.000 C 
ATOM      9  C   UNL     1      -7.104   0.992 128.877  0.00  0.00    +0.000 C 
ATOM     10  C   UNL     1      -5.657   0.826 129.275  0.00  0.00    +0.000 C 
ATOM     11  C   UNL     1      -5.146  -0.492 128.740  0.00  0.00    +0.000 C 
BRANCH   6  13
ATOM     12  C   UNL     1      -4.647  -2.318 130.710  0.00  0.00    +0.000 C 
ATOM     13  N   UNL     1      -6.043  -1.991 130.438  0.00  0.00    +0.000 NA
ATOM     14  C   UNL     1      -6.878  -3.103 130.897  0.00  0.00    +0.000 C 
ENDBRANCH   6  13
ENDBRANCH   2   9
ENDBRANCH   1   3
BRANCH   1  15
ATOM     15  N   UNL     1      -8.005   0.154 125.010  0.00  0.00    +0.000 N 
ATOM     16  C   UNL     1      -8.847  -0.565 124.206  0.00  0.00    +0.000 C 
ATOM     17  O   UNL     1      -9.697  -0.076 123.496  0.00  0.00    +0.000 OA
ATOM     18  H   UNL     1      -7.303  -0.313 125.587  0.00  0.00    +0.000 HD
BRANCH  16  19
ATOM     19  C   UNL     1      -8.542  -2.041 124.173  0.00  0.00    +0.000 C 
ATOM     20  C   UNL     1      -9.473  -2.968 124.945  0.00  0.00    +0.000 C 
ATOM     21  C   UNL     1      -9.560  -2.922 123.451  0.00  0.00    +0.000 C 
BRANCH  19  22
ATOM     22  C   UNL     1      -7.037  -2.280 124.020  0.00  0.00    +0.000 A 
ATOM     23  C   UNL     1      -6.373  -3.094 124.967  0.00  0.00    +0.000 A 
ATOM     24  C   UNL     1      -5.128  -3.673 124.698  0.00  0.00    +0.000 A 
ATOM     25  C   UNL     1      -4.518  -3.433 123.477  0.00  0.00    +0.000 A 
ATOM     26  F   UNL     1      -3.344  -4.016 123.199  0.00  0.00    +0.000 F 
ATOM     27  C   UNL     1      -5.126  -2.623 122.528  0.00  0.00    +0.000 A 
ATOM     28  C   UNL     1      -6.370  -2.037 122.803  0.00  0.00    +0.000 A 
ENDBRANCH  19  22
ENDBRANCH  16  19
ENDBRANCH   1  15
BRANCH   1  29
ATOM     29  C   UNL     1      -6.808   2.176 124.187  0.00  0.00    +0.000 C 
BRANCH  29  30
ATOM     30  C   UNL     1      -7.212   2.848 122.893  0.00  0.00    +0.000 A 
ATOM     31  C   UNL     1      -8.485   2.999 122.393  0.00  0.00    +0.000 A 
ATOM     32  C   UNL     1      -8.655   3.588 121.118  0.00  0.00    +0.000 A 
ATOM     33  C   UNL     1      -7.562   3.881 120.290  0.00  0.00    +0.000 A 
ATOM     34 CL   UNL     1      -7.743   4.582 118.737  0.00  0.00    +0.000 Cl
ATOM     35  C   UNL     1      -6.303   3.766 120.797  0.00  0.00    +0.000 A 
ATOM     36  C   UNL     1      -6.246   3.485 122.142  0.00  0.00    +0.000 A 
ENDBRANCH  29  30
ENDBRANCH   1  29
TORSDOF 8
ENDMDL
MODEL 3
REMARK VINA RESULT:      -8.7      7.066      9.728
REMARK  Name = CHEMBL1807273
REMARK  10 active torsions:
REMARK  status: ('A' for Active; 'I' for Inactive)
REMARK    1  A    between atoms: C_1  and  N_2
REMARK    2  A    between atoms: N_2  and  C_3
REMARK    3  A    between atoms: N_2  and  C_4
REMARK    4  A    between atoms: C_7  and  N_8
REMARK    5  A    between atoms: C_9  and  C_11
REMARK    6  A    between atoms: C_11  and  C_12
REMARK    7  A    between atoms: C_11  and  N_20
REMARK    8  A    between atoms: C_12  and  C_13
REMARK    9  A    between atoms: C_21  and  C_23
REMARK   10  A    between atoms: C_23  and  C_24
REMARK                            x       y       z     vdW  Elec       q    Type
REMARK                         _______ _______ _______ _____ _____    ______ ____
ROOT
ATOM      1  C   UNL     1      -7.160   3.444 129.542  0.00  0.00    +0.000 C 
ENDROOT
BRANCH   1   3
ATOM      2  N   UNL     1      -5.262   5.160 129.597  0.00  0.00    +0.000 N 
ATOM      3  C   UNL     1      -5.854   4.062 128.969  0.00  0.00    +0.000 C 
ATOM      4  O   UNL     1      -5.384   3.453 128.001  0.00  0.00    +0.000 OA
ATOM      5  H   UNL     1      -5.109   5.023 130.574  0.00  0.00    +0.000 HD
BRANCH   2   9
ATOM      6  C   UNL     1      -3.141   6.296 131.910  0.00  0.00    +0.000 C 
ATOM      7  C   UNL     1      -4.447   7.051 131.489  0.00  0.00    +0.000 C 
ATOM      8  C   UNL     1      -4.400   7.353 130.002  0.00  0.00    +0.000 C 
ATOM      9  C   UNL     1      -4.137   6.045 129.287  0.00  0.00    +0.000 C 
ATOM     10  C   UNL     1      -2.810   5.372 129.544  0.00  0.00    +0.000 C 
ATOM     11  C   UNL     1      -2.689   5.066 131.019  0.00  0.00    +0.000 C 
BRANCH   6  13
ATOM     12  C   UNL     1      -0.790   6.580 132.238  0.00  0.00    +0.000 C 
ATOM     13  N   UNL     1      -2.015   7.262 131.832  0.00  0.00    +0.000 NA
ATOM     14  C   UNL     1      -2.176   8.459 132.661  0.00  0.00    +0.000 C 
ENDBRANCH   6  13
ENDBRANCH   2   9
ENDBRANCH   1   3
BRANCH   1  15
ATOM     15  N   UNL     1      -7.929   4.628 129.936  0.00  0.00    +0.000 N 
ATOM     16  C   UNL     1      -9.297   4.666 129.906  0.00  0.00    +0.000 C 
ATOM     17  O   UNL     1      -9.997   3.769 129.492  0.00  0.00    +0.000 OA
ATOM     18  H   UNL     1      -7.390   5.414 130.300  0.00  0.00    +0.000 HD
BRANCH  16  19
ATOM     19  C   UNL     1      -9.885   5.887 130.565  0.00  0.00    +0.000 C 
ATOM     20  C   UNL     1     -10.062   5.854 132.078  0.00  0.00    +0.000 C 
ATOM     21  C   UNL     1      -8.952   6.668 131.489  0.00  0.00    +0.000 C 
BRANCH  19  22
ATOM     22  C   UNL     1     -10.842   6.609 129.612  0.00  0.00    +0.000 A 
ATOM     23  C   UNL     1     -12.235   6.429 129.774  0.00  0.00    +0.000 A 
ATOM     24  C   UNL     1     -13.163   7.323 129.228  0.00  0.00    +0.000 A 
ATOM     25  C   UNL     1     -12.710   8.408 128.495  0.00  0.00    +0.000 A 
ATOM     26  F   UNL     1     -13.592   9.288 128.003  0.00  0.00    +0.000 F 
ATOM     27  C   UNL     1     -11.351   8.610 128.295  0.00  0.00    +0.000 A 
ATOM     28  C   UNL     1     -10.424   7.708 128.836  0.00  0.00    +0.000 A 
ENDBRANCH  19  22
ENDBRANCH  16  19
ENDBRANCH   1  15
BRANCH   1  29
ATOM     29  C   UNL     1      -6.968   2.478 130.741  0.00  0.00    +0.000 C 
BRANCH  29  30
ATOM     30  C   UNL     1      -7.214   3.092 132.102  0.00  0.00    +0.000 A 
ATOM     31  C   UNL     1      -8.268   2.844 132.950  0.00  0.00    +0.000 A 
ATOM     32  C   UNL     1      -8.368   3.582 134.153  0.00  0.00    +0.000 A 
ATOM     33  C   UNL     1      -7.513   4.657 134.430  0.00  0.00    +0.000 A 
ATOM     34 CL   UNL     1      -7.623   5.576 135.873  0.00  0.00    +0.000 Cl
ATOM     35  C   UNL     1      -6.449   4.881 133.610  0.00  0.00    +0.000 A 
ATOM     36  C   UNL     1      -6.256   3.923 132.643  0.00  0.00    +0.000 A 
ENDBRANCH  29  30
ENDBRANCH   1  29
TORSDOF 8
ENDMDL
MODEL 4
REMARK VINA RESULT:      -8.7      6.633      9.837
REMARK  Name = CHEMBL1807273
REMARK  10 active torsions:
REMARK  status: ('A' for Active; 'I' for Inactive)
REMARK    1  A    between atoms: C_1  and  N_2
REMARK    2  A    between atoms: N_2  and  C_3
REMARK    3  A    between atoms: N_2  and  C_4
REMARK    4  A    between atoms: C_7  and  N_8
REMARK    5  A    between atoms: C_9  and  C_11
REMARK    6  A    between atoms: C_11  and  C_12
REMARK    7  A    between atoms: C_11  and  N_20
REMARK    8  A    between atoms: C_12  and  C_13
REMARK    9  A    between atoms: C_21  and  C_23
REMARK   10  A    between atoms: C_23  and  C_24
REMARK                            x       y       z     vdW  Elec       q    Type
REMARK                         _______ _______ _______ _____ _____    ______ ____
ROOT
ATOM      1  C   UNL     1      -9.215   2.307 130.818  0.00  0.00    +0.000 C 
ENDROOT
BRANCH   1   3
ATOM      2  N   UNL     1      -6.720   2.476 130.272  0.00  0.00    +0.000 N 
ATOM      3  C   UNL     1      -7.941   1.829 130.066  0.00  0.00    +0.000 C 
ATOM      4  O   UNL     1      -8.108   0.820 129.371  0.00  0.00    +0.000 OA
ATOM      5  H   UNL     1      -6.471   2.554 131.237  0.00  0.00    +0.000 HD
BRANCH   2   9
ATOM      6  C   UNL     1      -4.748   5.122 129.773  0.00  0.00    +0.000 C 
ATOM      7  C   UNL     1      -5.766   4.590 128.710  0.00  0.00    +0.000 C 
ATOM      8  C   UNL     1      -5.437   3.147 128.370  0.00  0.00    +0.000 C 
ATOM      9  C   UNL     1      -5.387   2.380 129.674  0.00  0.00    +0.000 C 
ATOM     10  C   UNL     1      -4.305   2.758 130.657  0.00  0.00    +0.000 C 
ATOM     11  C   UNL     1      -4.473   4.211 131.040  0.00  0.00    +0.000 C 
BRANCH   6  13
ATOM     12  C   UNL     1      -2.490   5.858 130.052  0.00  0.00    +0.000 C 
ATOM     13  N   UNL     1      -3.428   5.261 129.106  0.00  0.00    +0.000 NA
ATOM     14  C   UNL     1      -3.440   6.075 127.888  0.00  0.00    +0.000 C 
ENDBRANCH   6  13
ENDBRANCH   2   9
ENDBRANCH   1   3
BRANCH   1  15
ATOM     15  N   UNL     1      -9.114   3.765 130.727  0.00  0.00    +0.000 N 
ATOM     16  C   UNL     1     -10.152   4.556 130.316  0.00  0.00    +0.000 C 
ATOM     17  O   UNL     1     -11.217   4.135 129.923  0.00  0.00    +0.000 OA
ATOM     18  H   UNL     1      -8.237   4.177 131.053  0.00  0.00    +0.000 HD
BRANCH  16  19
ATOM     19  C   UNL     1      -9.909   6.030 130.516  0.00  0.00    +0.000 C 
ATOM     20  C   UNL     1      -9.189   6.457 131.788  0.00  0.00    +0.000 C 
ATOM     21  C   UNL     1      -8.451   6.482 130.485  0.00  0.00    +0.000 C 
BRANCH  19  22
ATOM     22  C   UNL     1     -11.009   6.856 129.841  0.00  0.00    +0.000 A 
ATOM     23  C   UNL     1     -12.043   7.399 130.638  0.00  0.00    +0.000 A 
ATOM     24  C   UNL     1     -12.841   8.458 130.190  0.00  0.00    +0.000 A 
ATOM     25  C   UNL     1     -12.625   8.983 128.926  0.00  0.00    +0.000 A 
ATOM     26  F   UNL     1     -13.359  10.022 128.507  0.00  0.00    +0.000 F 
ATOM     27  C   UNL     1     -11.633   8.465 128.104  0.00  0.00    +0.000 A 
ATOM     28  C   UNL     1     -10.841   7.399 128.552  0.00  0.00    +0.000 A 
ENDBRANCH  19  22
ENDBRANCH  16  19
ENDBRANCH   1  15
BRANCH   1  29
ATOM     29  C   UNL     1      -9.327   1.844 132.295  0.00  0.00    +0.000 C 
BRANCH  29  30
ATOM     30  C   UNL     1      -8.596   2.714 133.294  0.00  0.00    +0.000 A 
ATOM     31  C   UNL     1      -9.095   3.796 133.980  0.00  0.00    +0.000 A 
ATOM     32  C   UNL     1      -8.227   4.539 134.816  0.00  0.00    +0.000 A 
ATOM     33  C   UNL     1      -6.847   4.295 134.845  0.00  0.00    +0.000 A 
ATOM     34 CL   UNL     1      -5.773   5.189 135.837  0.00  0.00    +0.000 Cl
ATOM     35  C   UNL     1      -6.356   3.203 134.194  0.00  0.00    +0.000 A 
ATOM     36  C   UNL     1      -7.314   2.368 133.669  0.00  0.00    +0.000 A 
ENDBRANCH  29  30
ENDBRANCH   1  29
TORSDOF 8
ENDMDL
MODEL 5
REMARK VINA RESULT:      -8.6      6.588     10.080
REMARK  Name = CHEMBL1807273
REMARK  10 active torsions:
REMARK  status: ('A' for Active; 'I' for Inactive)
REMARK    1  A    between atoms: C_1  and  N_2
REMARK    2  A    between atoms: N_2  and  C_3
REMARK    3  A    between atoms: N_2  and  C_4
REMARK    4  A    between atoms: C_7  and  N_8
REMARK    5  A    between atoms: C_9  and  C_11
REMARK    6  A    between atoms: C_11  and  C_12
REMARK    7  A    between atoms: C_11  and  N_20
REMARK    8  A    between atoms: C_12  and  C_13
REMARK    9  A    between atoms: C_21  and  C_23
REMARK   10  A    between atoms: C_23  and  C_24
REMARK                            x       y       z     vdW  Elec       q    Type
REMARK                         _______ _______ _______ _____ _____    ______ ____
ROOT
ATOM      1  C   UNL     1      -9.480   2.359 130.547  0.00  0.00    +0.000 C 
ENDROOT
BRANCH   1   3
ATOM      2  N   UNL     1      -7.879   0.566 129.669  0.00  0.00    +0.000 N 
ATOM      3  C   UNL     1      -8.185   1.921 129.807  0.00  0.00    +0.000 C 
ATOM      4  O   UNL     1      -7.541   2.854 129.313  0.00  0.00    +0.000 OA
ATOM      5  H   UNL     1      -8.627   0.028 129.280  0.00  0.00    +0.000 HD
BRANCH   2   9
ATOM      6  C   UNL     1      -6.707  -2.198 131.128  0.00  0.00    +0.000 C 
ATOM      7  C   UNL     1      -6.194  -0.758 131.466  0.00  0.00    +0.000 C 
ATOM      8  C   UNL     1      -5.649  -0.106 130.208  0.00  0.00    +0.000 C 
ATOM      9  C   UNL     1      -6.733  -0.188 129.155  0.00  0.00    +0.000 C 
ATOM     10  C   UNL     1      -7.135  -1.564 128.683  0.00  0.00    +0.000 C 
ATOM     11  C   UNL     1      -7.646  -2.361 129.862  0.00  0.00    +0.000 C 
BRANCH   6  13
ATOM     12  C   UNL     1      -5.979  -4.391 130.512  0.00  0.00    +0.000 C 
ATOM     13  N   UNL     1      -5.521  -3.044 130.838  0.00  0.00    +0.000 NA
ATOM     14  C   UNL     1      -4.551  -3.137 131.932  0.00  0.00    +0.000 C 
ENDBRANCH   6  13
ENDBRANCH   2   9
ENDBRANCH   1   3
BRANCH   1  15
ATOM     15  N   UNL     1      -9.392   3.820 130.512  0.00  0.00    +0.000 N 
ATOM     16  C   UNL     1     -10.477   4.623 130.288  0.00  0.00    +0.000 C 
ATOM     17  O   UNL     1     -11.587   4.215 130.030  0.00  0.00    +0.000 OA
ATOM     18  H   UNL     1      -8.478   4.221 130.729  0.00  0.00    +0.000 HD
BRANCH  16  19
ATOM     19  C   UNL     1     -10.207   6.088 130.521  0.00  0.00    +0.000 C 
ATOM     20  C   UNL     1      -9.466   6.472 131.795  0.00  0.00    +0.000 C 
ATOM     21  C   UNL     1      -8.741   6.516 130.485  0.00  0.00    +0.000 C 
BRANCH  19  22
ATOM     22  C   UNL     1     -11.300   6.948 129.879  0.00  0.00    +0.000 A 
ATOM     23  C   UNL     1     -12.209   7.637 130.715  0.00  0.00    +0.000 A 
ATOM     24  C   UNL     1     -12.962   8.720 130.252  0.00  0.00    +0.000 A 
ATOM     25  C   UNL     1     -12.829   9.126 128.933  0.00  0.00    +0.000 A 
ATOM     26  F   UNL     1     -13.518  10.187 128.494  0.00  0.00    +0.000 F 
ATOM     27  C   UNL     1     -11.963   8.464 128.073  0.00  0.00    +0.000 A 
ATOM     28  C   UNL     1     -11.215   7.373 128.538  0.00  0.00    +0.000 A 
ENDBRANCH  19  22
ENDBRANCH  16  19
ENDBRANCH   1  15
BRANCH   1  29
ATOM     29  C   UNL     1      -9.620   1.841 132.004  0.00  0.00    +0.000 C 
BRANCH  29  30
ATOM     30  C   UNL     1      -8.823   2.612 133.034  0.00  0.00    +0.000 A 
ATOM     31  C   UNL     1      -9.258   3.658 133.813  0.00  0.00    +0.000 A 
ATOM     32  C   UNL     1      -8.335   4.308 134.666  0.00  0.00    +0.000 A 
ATOM     33  C   UNL     1      -6.964   4.015 134.627  0.00  0.00    +0.000 A 
ATOM     34 CL   UNL     1      -5.824   4.797 135.640  0.00  0.00    +0.000 Cl
ATOM     35  C   UNL     1      -6.538   2.957 133.883  0.00  0.00    +0.000 A 
ATOM     36  C   UNL     1      -7.543   2.195 133.336  0.00  0.00    +0.000 A 
ENDBRANCH  29  30
ENDBRANCH   1  29
TORSDOF 8
ENDMDL
MODEL 6
REMARK VINA RESULT:      -8.6      5.362      9.824
REMARK  Name = CHEMBL1807273
REMARK  10 active torsions:
REMARK  status: ('A' for Active; 'I' for Inactive)
REMARK    1  A    between atoms: C_1  and  N_2
REMARK    2  A    between atoms: N_2  and  C_3
REMARK    3  A    between atoms: N_2  and  C_4
REMARK    4  A    between atoms: C_7  and  N_8
REMARK    5  A    between atoms: C_9  and  C_11
REMARK    6  A    between atoms: C_11  and  C_12
REMARK    7  A    between atoms: C_11  and  N_20
REMARK    8  A    between atoms: C_12  and  C_13
REMARK    9  A    between atoms: C_21  and  C_23
REMARK   10  A    between atoms: C_23  and  C_24
REMARK                            x       y       z     vdW  Elec       q    Type
REMARK                         _______ _______ _______ _____ _____    ______ ____
ROOT
ATOM      1  C   UNL     1      -8.117   3.210 129.109  0.00  0.00    +0.000 C 
ENDROOT
BRANCH   1   3
ATOM      2  N   UNL     1      -7.871   2.545 126.649  0.00  0.00    +0.000 N 
ATOM      3  C   UNL     1      -7.672   3.500 127.647  0.00  0.00    +0.000 C 
ATOM      4  O   UNL     1      -7.225   4.639 127.468  0.00  0.00    +0.000 OA
ATOM      5  H   UNL     1      -8.812   2.212 126.601  0.00  0.00    +0.000 HD
BRANCH   2   9
ATOM      6  C   UNL     1      -9.128   0.225 124.604  0.00  0.00    +0.000 C 
ATOM      7  C   UNL     1      -7.827   0.019 125.449  0.00  0.00    +0.000 C 
ATOM      8  C   UNL     1      -6.809   1.085 125.082  0.00  0.00    +0.000 C 
ATOM      9  C   UNL     1      -7.491   2.427 125.240  0.00  0.00    +0.000 C 
ATOM     10  C   UNL     1      -8.650   2.726 124.321  0.00  0.00    +0.000 C 
ATOM     11  C   UNL     1      -9.729   1.689 124.535  0.00  0.00    +0.000 C 
BRANCH   6  13
ATOM     12  C   UNL     1     -10.025   0.026 122.397  0.00  0.00    +0.000 C 
ATOM     13  N   UNL     1      -8.814  -0.128 123.196  0.00  0.00    +0.000 NA
ATOM     14  C   UNL     1      -8.302  -1.487 123.004  0.00  0.00    +0.000 C 
ENDBRANCH   6  13
ENDBRANCH   2   9
ENDBRANCH   1   3
BRANCH   1  15
ATOM     15  N   UNL     1      -8.530   4.531 129.587  0.00  0.00    +0.000 N 
ATOM     16  C   UNL     1      -9.794   4.791 130.044  0.00  0.00    +0.000 C 
ATOM     17  O   UNL     1     -10.703   3.992 130.034  0.00  0.00    +0.000 OA
ATOM     18  H   UNL     1      -7.801   5.245 129.624  0.00  0.00    +0.000 HD
BRANCH  16  19
ATOM     19  C   UNL     1      -9.937   6.142 130.697  0.00  0.00    +0.000 C 
ATOM     20  C   UNL     1      -9.627   6.240 132.186  0.00  0.00    +0.000 C 
ATOM     21  C   UNL     1      -8.646   6.788 131.196  0.00  0.00    +0.000 C 
BRANCH  19  22
ATOM     22  C   UNL     1     -11.019   6.970 129.997  0.00  0.00    +0.000 A 
ATOM     23  C   UNL     1     -12.145   7.393 130.739  0.00  0.00    +0.000 A 
ATOM     24  C   UNL     1     -12.958   8.448 130.310  0.00  0.00    +0.000 A 
ATOM     25  C   UNL     1     -12.664   9.090 129.117  0.00  0.00    +0.000 A 
ATOM     26  F   UNL     1     -13.416  10.125 128.721  0.00  0.00    +0.000 F 
ATOM     27  C   UNL     1     -11.579   8.692 128.348  0.00  0.00    +0.000 A 
ATOM     28  C   UNL     1     -10.771   7.630 128.777  0.00  0.00    +0.000 A 
ENDBRANCH  19  22
ENDBRANCH  16  19
ENDBRANCH   1  15
BRANCH   1  29
ATOM     29  C   UNL     1      -7.024   2.599 130.026  0.00  0.00    +0.000 C 
BRANCH  29  30
ATOM     30  C   UNL     1      -7.111   3.007 131.480  0.00  0.00    +0.000 A 
ATOM     31  C   UNL     1      -8.003   2.551 132.423  0.00  0.00    +0.000 A 
ATOM     32  C   UNL     1      -7.979   3.116 133.720  0.00  0.00    +0.000 A 
ATOM     33  C   UNL     1      -7.179   4.226 134.025  0.00  0.00    +0.000 A 
ATOM     34 CL   UNL     1      -7.141   4.938 135.583  0.00  0.00    +0.000 Cl
ATOM     35  C   UNL     1      -6.270   4.656 133.105  0.00  0.00    +0.000 A 
ATOM     36  C   UNL     1      -6.150   3.852 131.995  0.00  0.00    +0.000 A 
ENDBRANCH  29  30
ENDBRANCH   1  29
TORSDOF 8
ENDMDL
MODEL 7
REMARK VINA RESULT:      -8.6      1.552      2.091
REMARK  Name = CHEMBL1807273
REMARK  10 active torsions:
REMARK  status: ('A' for Active; 'I' for Inactive)
REMARK    1  A    between atoms: C_1  and  N_2
REMARK    2  A    between atoms: N_2  and  C_3
REMARK    3  A    between atoms: N_2  and  C_4
REMARK    4  A    between atoms: C_7  and  N_8
REMARK    5  A    between atoms: C_9  and  C_11
REMARK    6  A    between atoms: C_11  and  C_12
REMARK    7  A    between atoms: C_11  and  N_20
REMARK    8  A    between atoms: C_12  and  C_13
REMARK    9  A    between atoms: C_21  and  C_23
REMARK   10  A    between atoms: C_23  and  C_24
REMARK                            x       y       z     vdW  Elec       q    Type
REMARK                         _______ _______ _______ _____ _____    ______ ____
ROOT
ATOM      1  C   UNL     1      -7.392   2.455 124.831  0.00  0.00    +0.000 C 
ENDROOT
BRANCH   1   3
ATOM      2  N   UNL     1      -6.880   2.714 127.325  0.00  0.00    +0.000 N 
ATOM      3  C   UNL     1      -7.587   3.155 126.205  0.00  0.00    +0.000 C 
ATOM      4  O   UNL     1      -8.334   4.141 126.173  0.00  0.00    +0.000 OA
ATOM      5  H   UNL     1      -5.894   2.653 127.172  0.00  0.00    +0.000 HD
BRANCH   2   9
ATOM      6  C   UNL     1      -6.837   0.403 129.733  0.00  0.00    +0.000 C 
ATOM      7  C   UNL     1      -8.153   0.984 129.116  0.00  0.00    +0.000 C 
ATOM      8  C   UNL     1      -8.185   2.489 129.315  0.00  0.00    +0.000 C 
ATOM      9  C   UNL     1      -6.893   3.043 128.752  0.00  0.00    +0.000 C 
ATOM     10  C   UNL     1      -5.611   2.632 129.433  0.00  0.00    +0.000 C 
ATOM     11  C   UNL     1      -5.477   1.128 129.367  0.00  0.00    +0.000 C 
BRANCH   6  13
ATOM     12  C   UNL     1      -5.751  -0.081 131.808  0.00  0.00    +0.000 C 
ATOM     13  N   UNL     1      -6.944   0.511 131.211  0.00  0.00    +0.000 NA
ATOM     14  C   UNL     1      -8.123  -0.139 131.789  0.00  0.00    +0.000 C 
ENDBRANCH   6  13
ENDBRANCH   2   9
ENDBRANCH   1   3
BRANCH   1  15
ATOM     15  N   UNL     1      -7.128   1.066 125.213  0.00  0.00    +0.000 N 
ATOM     16  C   UNL     1      -7.315   0.014 124.357  0.00  0.00    +0.000 C 
ATOM     17  O   UNL     1      -7.777   0.114 123.243  0.00  0.00    +0.000 OA
ATOM     18  H   UNL     1      -6.730   0.923 126.142  0.00  0.00    +0.000 HD
BRANCH  16  19
ATOM     19  C   UNL     1      -6.768  -1.292 124.873  0.00  0.00    +0.000 C 
ATOM     20  C   UNL     1      -5.925  -2.127 123.917  0.00  0.00    +0.000 C 
ATOM     21  C   UNL     1      -5.250  -1.374 125.022  0.00  0.00    +0.000 C 
BRANCH  19  22
ATOM     22  C   UNL     1      -7.702  -1.891 125.929  0.00  0.00    +0.000 A 
ATOM     23  C   UNL     1      -8.910  -2.496 125.511  0.00  0.00    +0.000 A 
ATOM     24  C   UNL     1      -9.611  -3.388 126.330  0.00  0.00    +0.000 A 
ATOM     25  C   UNL     1      -9.119  -3.679 127.593  0.00  0.00    +0.000 A 
ATOM     26  F   UNL     1      -9.764  -4.562 128.367  0.00  0.00    +0.000 F 
ATOM     27  C   UNL     1      -7.947  -3.091 128.050  0.00  0.00    +0.000 A 
ATOM     28  C   UNL     1      -7.252  -2.191 127.230  0.00  0.00    +0.000 A 
ENDBRANCH  19  22
ENDBRANCH  16  19
ENDBRANCH   1  15
BRANCH   1  29
ATOM     29  C   UNL     1      -6.244   3.023 123.954  0.00  0.00    +0.000 C 
BRANCH  29  30
ATOM     30  C   UNL     1      -6.659   3.464 122.567  0.00  0.00    +0.000 A 
ATOM     31  C   UNL     1      -7.918   3.407 122.015  0.00  0.00    +0.000 A 
ATOM     32  C   UNL     1      -8.093   3.795 120.666  0.00  0.00    +0.000 A 
ATOM     33  C   UNL     1      -7.002   4.089 119.837  0.00  0.00    +0.000 A 
ATOM     34 CL   UNL     1      -7.187   4.548 118.196  0.00  0.00    +0.000 Cl
ATOM     35  C   UNL     1      -5.760   4.181 120.390  0.00  0.00    +0.000 A 
ATOM     36  C   UNL     1      -5.733   4.094 121.762  0.00  0.00    +0.000 A 
ENDBRANCH  29  30
ENDBRANCH   1  29
TORSDOF 8
ENDMDL
MODEL 8
REMARK VINA RESULT:      -8.6      4.087      7.158
REMARK  Name = CHEMBL1807273
REMARK  10 active torsions:
REMARK  status: ('A' for Active; 'I' for Inactive)
REMARK    1  A    between atoms: C_1  and  N_2
REMARK    2  A    between atoms: N_2  and  C_3
REMARK    3  A    between atoms: N_2  and  C_4
REMARK    4  A    between atoms: C_7  and  N_8
REMARK    5  A    between atoms: C_9  and  C_11
REMARK    6  A    between atoms: C_11  and  C_12
REMARK    7  A    between atoms: C_11  and  N_20
REMARK    8  A    between atoms: C_12  and  C_13
REMARK    9  A    between atoms: C_21  and  C_23
REMARK   10  A    between atoms: C_23  and  C_24
REMARK                            x       y       z     vdW  Elec       q    Type
REMARK                         _______ _______ _______ _____ _____    ______ ____
ROOT
ATOM      1  C   UNL     1      -5.831   0.521 126.779  0.00  0.00    +0.000 C 
ENDROOT
BRANCH   1   3
ATOM      2  N   UNL     1      -6.682  -1.105 128.562  0.00  0.00    +0.000 N 
ATOM      3  C   UNL     1      -6.913   0.028 127.781  0.00  0.00    +0.000 C 
ATOM      4  O   UNL     1      -7.906   0.761 127.859  0.00  0.00    +0.000 OA
ATOM      5  H   UNL     1      -5.820  -1.070 129.066  0.00  0.00    +0.000 HD
BRANCH   2   9
ATOM      6  C   UNL     1      -5.377  -2.759 131.152  0.00  0.00    +0.000 C 
ATOM      7  C   UNL     1      -5.566  -3.388 129.731  0.00  0.00    +0.000 C 
ATOM      8  C   UNL     1      -7.034  -3.337 129.345  0.00  0.00    +0.000 C 
ATOM      9  C   UNL     1      -7.486  -1.900 129.494  0.00  0.00    +0.000 C 
ATOM     10  C   UNL     1      -7.474  -1.313 130.884  0.00  0.00    +0.000 C 
ATOM     11  C   UNL     1      -6.065  -1.358 131.427  0.00  0.00    +0.000 C 
BRANCH   6  13
ATOM     12  C   UNL     1      -5.775  -3.138 133.479  0.00  0.00    +0.000 C 
ATOM     13  N   UNL     1      -5.983  -3.686 132.142  0.00  0.00    +0.000 NA
ATOM     14  C   UNL     1      -5.450  -5.050 132.111  0.00  0.00    +0.000 C 
ENDBRANCH   6  13
ENDBRANCH   2   9
ENDBRANCH   1   3
BRANCH   1  15
ATOM     15  N   UNL     1      -6.521   1.599 126.067  0.00  0.00    +0.000 N 
ATOM     16  C   UNL     1      -5.875   2.714 125.605  0.00  0.00    +0.000 C 
ATOM     17  O   UNL     1      -4.704   2.954 125.797  0.00  0.00    +0.000 OA
ATOM     18  H   UNL     1      -7.512   1.448 125.871  0.00  0.00    +0.000 HD
BRANCH  16  19
ATOM     19  C   UNL     1      -6.722   3.579 124.708  0.00  0.00    +0.000 C 
ATOM     20  C   UNL     1      -8.219   3.630 124.990  0.00  0.00    +0.000 C 
ATOM     21  C   UNL     1      -7.363   4.802 125.362  0.00  0.00    +0.000 C 
BRANCH  19  22
ATOM     22  C   UNL     1      -6.117   3.658 123.303  0.00  0.00    +0.000 A 
ATOM     23  C   UNL     1      -6.900   3.255 122.197  0.00  0.00    +0.000 A 
ATOM     24  C   UNL     1      -6.590   3.649 120.891  0.00  0.00    +0.000 A 
ATOM     25  C   UNL     1      -5.478   4.445 120.668  0.00  0.00    +0.000 A 
ATOM     26  F   UNL     1      -5.198   4.858 119.425  0.00  0.00    +0.000 F 
ATOM     27  C   UNL     1      -4.671   4.846 121.724  0.00  0.00    +0.000 A 
ATOM     28  C   UNL     1      -4.979   4.442 123.030  0.00  0.00    +0.000 A 
ENDBRANCH  19  22
ENDBRANCH  16  19
ENDBRANCH   1  15
BRANCH   1  29
ATOM     29  C   UNL     1      -5.302  -0.553 125.791  0.00  0.00    +0.000 C 
BRANCH  29  30
ATOM     30  C   UNL     1      -6.367  -1.242 124.967  0.00  0.00    +0.000 A 
ATOM     31  C   UNL     1      -6.934  -0.796 123.796  0.00  0.00    +0.000 A 
ATOM     32  C   UNL     1      -7.981  -1.546 123.211  0.00  0.00    +0.000 A 
ATOM     33  C   UNL     1      -8.556  -2.644 123.867  0.00  0.00    +0.000 A 
ATOM     34 CL   UNL     1      -9.834  -3.561 123.187  0.00  0.00    +0.000 Cl
ATOM     35  C   UNL     1      -7.974  -3.108 125.008  0.00  0.00    +0.000 A 
ATOM     36  C   UNL     1      -6.780  -2.507 125.330  0.00  0.00    +0.000 A 
ENDBRANCH  29  30
ENDBRANCH   1  29
TORSDOF 8
ENDMDL
MODEL 9
REMARK VINA RESULT:      -8.5      4.764      9.219
REMARK  Name = CHEMBL1807273
REMARK  10 active torsions:
REMARK  status: ('A' for Active; 'I' for Inactive)
REMARK    1  A    between atoms: C_1  and  N_2
REMARK    2  A    between atoms: N_2  and  C_3
REMARK    3  A    between atoms: N_2  and  C_4
REMARK    4  A    between atoms: C_7  and  N_8
REMARK    5  A    between atoms: C_9  and  C_11
REMARK    6  A    between atoms: C_11  and  C_12
REMARK    7  A    between atoms: C_11  and  N_20
REMARK    8  A    between atoms: C_12  and  C_13
REMARK    9  A    between atoms: C_21  and  C_23
REMARK   10  A    between atoms: C_23  and  C_24
REMARK                            x       y       z     vdW  Elec       q    Type
REMARK                         _______ _______ _______ _____ _____    ______ ____
ROOT
ATOM      1  C   UNL     1      -8.004   3.192 128.972  0.00  0.00    +0.000 C 
ENDROOT
BRANCH   1   3
ATOM      2  N   UNL     1      -7.940   2.586 126.487  0.00  0.00    +0.000 N 
ATOM      3  C   UNL     1      -7.569   3.466 127.505  0.00  0.00    +0.000 C 
ATOM      4  O   UNL     1      -6.965   4.534 127.344  0.00  0.00    +0.000 OA
ATOM      5  H   UNL     1      -8.921   2.397 126.464  0.00  0.00    +0.000 HD
BRANCH   2   9
ATOM      6  C   UNL     1      -9.124   0.133 124.558  0.00  0.00    +0.000 C 
ATOM      7  C   UNL     1      -7.768   0.044 125.334  0.00  0.00    +0.000 C 
ATOM      8  C   UNL     1      -6.855   1.174 124.892  0.00  0.00    +0.000 C 
ATOM      9  C   UNL     1      -7.627   2.465 125.061  0.00  0.00    +0.000 C 
ATOM     10  C   UNL     1      -8.852   2.655 124.201  0.00  0.00    +0.000 C 
ATOM     11  C   UNL     1      -9.837   1.546 124.494  0.00  0.00    +0.000 C 
BRANCH   6  13
ATOM     12  C   UNL     1     -10.095  -0.067 122.382  0.00  0.00    +0.000 C 
ATOM     13  N   UNL     1      -8.859  -0.229 123.142  0.00  0.00    +0.000 NA
ATOM     14  C   UNL     1      -8.365  -1.593 122.939  0.00  0.00    +0.000 C 
ENDBRANCH   6  13
ENDBRANCH   2   9
ENDBRANCH   1   3
BRANCH   1  15
ATOM     15  N   UNL     1      -8.175   4.542 129.514  0.00  0.00    +0.000 N 
ATOM     16  C   UNL     1      -9.394   5.046 129.878  0.00  0.00    +0.000 C 
ATOM     17  O   UNL     1     -10.446   4.466 129.726  0.00  0.00    +0.000 OA
ATOM     18  H   UNL     1      -7.318   5.076 129.670  0.00  0.00    +0.000 HD
BRANCH  16  19
ATOM     19  C   UNL     1      -9.313   6.355 130.620  0.00  0.00    +0.000 C 
ATOM     20  C   UNL     1      -8.808   6.319 132.057  0.00  0.00    +0.000 C 
ATOM     21  C   UNL     1      -7.910   6.840 130.978  0.00  0.00    +0.000 C 
BRANCH  19  22
ATOM     22  C   UNL     1     -10.385   7.328 130.118  0.00  0.00    +0.000 A 
ATOM     23  C   UNL     1     -10.244   7.898 128.832  0.00  0.00    +0.000 A 
ATOM     24  C   UNL     1     -11.328   8.464 128.153  0.00  0.00    +0.000 A 
ATOM     25  C   UNL     1     -12.574   8.483 128.760  0.00  0.00    +0.000 A 
ATOM     26  F   UNL     1     -13.624   8.989 128.099  0.00  0.00    +0.000 F 
ATOM     27  C   UNL     1     -12.751   7.953 130.031  0.00  0.00    +0.000 A 
ATOM     28  C   UNL     1     -11.661   7.394 130.712  0.00  0.00    +0.000 A 
ENDBRANCH  19  22
ENDBRANCH  16  19
ENDBRANCH   1  15
BRANCH   1  29
ATOM     29  C   UNL     1      -6.997   2.371 129.821  0.00  0.00    +0.000 C 
BRANCH  29  30
ATOM     30  C   UNL     1      -7.199   0.872 129.777  0.00  0.00    +0.000 A 
ATOM     31  C   UNL     1      -8.089   0.128 130.517  0.00  0.00    +0.000 A 
ATOM     32  C   UNL     1      -8.073  -1.281 130.394  0.00  0.00    +0.000 A 
ATOM     33  C   UNL     1      -7.081  -1.945 129.659  0.00  0.00    +0.000 A 
ATOM     34 CL   UNL     1      -7.032  -3.651 129.505  0.00  0.00    +0.000 Cl
ATOM     35  C   UNL     1      -6.222  -1.210 128.898  0.00  0.00    +0.000 A 
ATOM     36  C   UNL     1      -6.511   0.133 128.837  0.00  0.00    +0.000 A 
ENDBRANCH  29  30
ENDBRANCH   1  29
TORSDOF 8
ENDMDL
