MODEL 1
REMARK VINA RESULT:      -9.6      0.000      0.000
REMARK  Name = CHEMBL381433
REMARK  6 active torsions:
REMARK  status: ('A' for Active; 'I' for Inactive)
REMARK    1  A    between atoms: C_1  and  C_2
REMARK    2  A    between atoms: C_5  and  N_6
REMARK    3  A    between atoms: N_6  and  C_7
REMARK    4  A    between atoms: N_6  and  S_20
REMARK    5  A    between atoms: C_7  and  C_8
REMARK    6  A    between atoms: S_20  and  C_23
REMARK                            x       y       z     vdW  Elec       q    Type
REMARK                         _______ _______ _______ _____ _____    ______ ____
ROOT
ATOM      1  N   UNL     1      -7.602   2.061 123.602  0.00  0.00    +0.000 N 
ENDROOT
BRANCH   1   6
ATOM      2  C   UNL     1      -6.760   4.902 118.666  0.00  0.00    +0.000 C 
ATOM      3  C   UNL     1      -7.052   4.151 119.917  0.00  0.00    +0.000 A 
ATOM      4  C   UNL     1      -5.982   3.768 120.680  0.00  0.00    +0.000 A 
ATOM      5  C   UNL     1      -6.240   3.318 121.953  0.00  0.00    +0.000 A 
ATOM      6  C   UNL     1      -7.488   2.848 122.385  0.00  0.00    +0.000 A 
ATOM      7  C   UNL     1      -8.564   3.230 121.608  0.00  0.00    +0.000 A 
ATOM      8  C   UNL     1      -8.346   3.930 120.410  0.00  0.00    +0.000 A 
ENDBRANCH   1   6
BRANCH   1   9
ATOM      9  S   UNL     1      -8.377   2.717 125.007  0.00  0.00    +0.000 S 
ATOM     10  O   UNL     1      -8.216   4.157 124.901  0.00  0.00    +0.000 OA
ATOM     11  O   UNL     1      -9.707   2.145 125.101  0.00  0.00    +0.000 OA
BRANCH   9  12
ATOM     12  C   UNL     1      -7.583   2.303 126.587  0.00  0.00    +0.000 A 
ATOM     13  C   UNL     1      -8.389   2.155 127.732  0.00  0.00    +0.000 A 
ATOM     14  C   UNL     1      -7.796   1.987 129.000  0.00  0.00    +0.000 A 
ATOM     15  C   UNL     1      -6.412   1.893 129.135  0.00  0.00    +0.000 A 
ATOM     16  C   UNL     1      -5.621   1.986 128.011  0.00  0.00    +0.000 A 
ATOM     17  C   UNL     1      -6.210   2.179 126.766  0.00  0.00    +0.000 A 
ENDBRANCH   9  12
ENDBRANCH   1   9
BRANCH   1  18
ATOM     18  C   UNL     1      -7.285   0.645 123.520  0.00  0.00    +0.000 C 
BRANCH  18  19
ATOM     19  C   UNL     1      -8.269  -0.528 123.358  0.00  0.00    +0.000 C 
ATOM     20  O   UNL     1      -9.303  -0.472 122.681  0.00  0.00    +0.000 OA
ATOM     21  N   UNL     1      -8.042  -1.641 124.169  0.00  0.00    +0.000 N 
ATOM     22  C   UNL     1      -8.927  -2.797 123.978  0.00  0.00    +0.000 C 
ATOM     23  C   UNL     1      -9.228  -3.698 125.198  0.00  0.00    +0.000 C 
ATOM     24  C   UNL     1      -8.695  -3.209 126.522  0.00  0.00    +0.000 A 
ATOM     25  C   UNL     1      -8.864  -3.866 127.730  0.00  0.00    +0.000 A 
ATOM     26  C   UNL     1      -8.358  -3.299 128.926  0.00  0.00    +0.000 A 
ATOM     27  C   UNL     1      -7.682  -2.080 128.950  0.00  0.00    +0.000 A 
ATOM     28  C   UNL     1      -7.508  -1.433 127.769  0.00  0.00    +0.000 A 
ATOM     29  C   UNL     1      -8.011  -2.008 126.598  0.00  0.00    +0.000 A 
ATOM     30  C   UNL     1      -7.876  -1.118 125.467  0.00  0.00    +0.000 C 
ENDBRANCH  18  19
ENDBRANCH   1  18
TORSDOF 5
ENDMDL
MODEL 2
REMARK VINA RESULT:      -8.7      2.137      5.275
REMARK  Name = CHEMBL381433
REMARK  6 active torsions:
REMARK  status: ('A' for Active; 'I' for Inactive)
REMARK    1  A    between atoms: C_1  and  C_2
REMARK    2  A    between atoms: C_5  and  N_6
REMARK    3  A    between atoms: N_6  and  C_7
REMARK    4  A    between atoms: N_6  and  S_20
REMARK    5  A    between atoms: C_7  and  C_8
REMARK    6  A    between atoms: S_20  and  C_23
REMARK                            x       y       z     vdW  Elec       q    Type
REMARK                         _______ _______ _______ _____ _____    ______ ____
ROOT
ATOM      1  N   UNL     1      -7.996   1.429 125.177  0.00  0.00    +0.000 N 
ENDROOT
BRANCH   1   6
ATOM      2  C   UNL     1      -4.893  -3.086 123.406  0.00  0.00    +0.000 C 
ATOM      3  C   UNL     1      -5.748  -1.935 123.805  0.00  0.00    +0.000 A 
ATOM      4  C   UNL     1      -5.530  -1.395 125.044  0.00  0.00    +0.000 A 
ATOM      5  C   UNL     1      -6.114  -0.182 125.319  0.00  0.00    +0.000 A 
ATOM      6  C   UNL     1      -7.209   0.342 124.617  0.00  0.00    +0.000 A 
ATOM      7  C   UNL     1      -7.431  -0.211 123.371  0.00  0.00    +0.000 A 
ATOM      8  C   UNL     1      -6.662  -1.308 122.947  0.00  0.00    +0.000 A 
ENDBRANCH   1   6
BRANCH   1   9
ATOM      9  S   UNL     1      -8.451   2.783 124.195  0.00  0.00    +0.000 S 
ATOM     10  O   UNL     1      -9.443   2.273 123.265  0.00  0.00    +0.000 OA
ATOM     11  O   UNL     1      -8.785   3.889 125.073  0.00  0.00    +0.000 OA
BRANCH   9  12
ATOM     12  C   UNL     1      -7.136   3.429 123.120  0.00  0.00    +0.000 A 
ATOM     13  C   UNL     1      -7.242   3.239 121.730  0.00  0.00    +0.000 A 
ATOM     14  C   UNL     1      -6.172   3.588 120.881  0.00  0.00    +0.000 A 
ATOM     15  C   UNL     1      -5.023   4.190 121.392  0.00  0.00    +0.000 A 
ATOM     16  C   UNL     1      -4.934   4.425 122.747  0.00  0.00    +0.000 A 
ATOM     17  C   UNL     1      -5.983   4.053 123.582  0.00  0.00    +0.000 A 
ENDBRANCH   9  12
ENDBRANCH   1   9
BRANCH   1  18
ATOM     18  C   UNL     1      -8.597   1.221 126.484  0.00  0.00    +0.000 C 
BRANCH  18  19
ATOM     19  C   UNL     1      -8.088   1.739 127.841  0.00  0.00    +0.000 C 
ATOM     20  O   UNL     1      -7.393   2.755 127.975  0.00  0.00    +0.000 OA
ATOM     21  N   UNL     1      -8.295   0.902 128.939  0.00  0.00    +0.000 N 
ATOM     22  C   UNL     1      -7.881   1.410 130.252  0.00  0.00    +0.000 C 
ATOM     23  C   UNL     1      -7.413   0.391 131.316  0.00  0.00    +0.000 C 
ATOM     24  C   UNL     1      -7.281  -1.036 130.845  0.00  0.00    +0.000 A 
ATOM     25  C   UNL     1      -6.868  -2.093 131.640  0.00  0.00    +0.000 A 
ATOM     26  C   UNL     1      -6.738  -3.392 131.088  0.00  0.00    +0.000 A 
ATOM     27  C   UNL     1      -7.008  -3.666 129.749  0.00  0.00    +0.000 A 
ATOM     28  C   UNL     1      -7.418  -2.636 128.965  0.00  0.00    +0.000 A 
ATOM     29  C   UNL     1      -7.545  -1.362 129.526  0.00  0.00    +0.000 A 
ATOM     30  C   UNL     1      -7.836  -0.363 128.523  0.00  0.00    +0.000 C 
ENDBRANCH  18  19
ENDBRANCH   1  18
TORSDOF 5
ENDMDL
MODEL 3
REMARK VINA RESULT:      -8.6      1.506      4.912
REMARK  Name = CHEMBL381433
REMARK  6 active torsions:
REMARK  status: ('A' for Active; 'I' for Inactive)
REMARK    1  A    between atoms: C_1  and  C_2
REMARK    2  A    between atoms: C_5  and  N_6
REMARK    3  A    between atoms: N_6  and  C_7
REMARK    4  A    between atoms: N_6  and  S_20
REMARK    5  A    between atoms: C_7  and  C_8
REMARK    6  A    between atoms: S_20  and  C_23
REMARK                            x       y       z     vdW  Elec       q    Type
REMARK                         _______ _______ _______ _____ _____    ______ ____
ROOT
ATOM      1  N   UNL     1      -7.635   1.545 125.135  0.00  0.00    +0.000 N 
ENDROOT
BRANCH   1   6
ATOM      2  C   UNL     1      -3.446   3.368 128.638  0.00  0.00    +0.000 C 
ATOM      3  C   UNL     1      -4.582   2.934 127.781  0.00  0.00    +0.000 A 
ATOM      4  C   UNL     1      -4.279   2.494 126.520  0.00  0.00    +0.000 A 
ATOM      5  C   UNL     1      -5.269   1.845 125.820  0.00  0.00    +0.000 A 
ATOM      6  C   UNL     1      -6.637   1.948 126.113  0.00  0.00    +0.000 A 
ATOM      7  C   UNL     1      -6.937   2.399 127.382  0.00  0.00    +0.000 A 
ATOM      8  C   UNL     1      -5.905   2.834 128.232  0.00  0.00    +0.000 A 
ENDBRANCH   1   6
BRANCH   1   9
ATOM      9  S   UNL     1      -8.436   2.729 124.155  0.00  0.00    +0.000 S 
ATOM     10  O   UNL     1      -9.504   2.014 123.478  0.00  0.00    +0.000 OA
ATOM     11  O   UNL     1      -8.749   3.873 124.990  0.00  0.00    +0.000 OA
BRANCH   9  12
ATOM     12  C   UNL     1      -7.436   3.408 122.798  0.00  0.00    +0.000 A 
ATOM     13  C   UNL     1      -8.005   3.492 121.513  0.00  0.00    +0.000 A 
ATOM     14  C   UNL     1      -7.213   3.866 120.409  0.00  0.00    +0.000 A 
ATOM     15  C   UNL     1      -5.877   4.228 120.579  0.00  0.00    +0.000 A 
ATOM     16  C   UNL     1      -5.329   4.196 121.842  0.00  0.00    +0.000 A 
ATOM     17  C   UNL     1      -6.109   3.799 122.924  0.00  0.00    +0.000 A 
ENDBRANCH   9  12
ENDBRANCH   1   9
BRANCH   1  18
ATOM     18  C   UNL     1      -7.745   0.128 124.831  0.00  0.00    +0.000 C 
BRANCH  18  19
ATOM     19  C   UNL     1      -8.732  -0.887 125.438  0.00  0.00    +0.000 C 
ATOM     20  O   UNL     1      -9.957  -0.719 125.474  0.00  0.00    +0.000 OA
ATOM     21  N   UNL     1      -8.167  -1.960 126.128  0.00  0.00    +0.000 N 
ATOM     22  C   UNL     1      -9.089  -2.975 126.653  0.00  0.00    +0.000 C 
ATOM     23  C   UNL     1      -8.691  -3.728 127.943  0.00  0.00    +0.000 C 
ATOM     24  C   UNL     1      -7.445  -3.234 128.634  0.00  0.00    +0.000 A 
ATOM     25  C   UNL     1      -6.928  -3.767 129.803  0.00  0.00    +0.000 A 
ATOM     26  C   UNL     1      -5.771  -3.202 130.394  0.00  0.00    +0.000 A 
ATOM     27  C   UNL     1      -5.111  -2.104 129.846  0.00  0.00    +0.000 A 
ATOM     28  C   UNL     1      -5.608  -1.579 128.696  0.00  0.00    +0.000 A 
ATOM     29  C   UNL     1      -6.748  -2.151 128.125  0.00  0.00    +0.000 A 
ATOM     30  C   UNL     1      -7.228  -1.377 127.002  0.00  0.00    +0.000 C 
ENDBRANCH  18  19
ENDBRANCH   1  18
TORSDOF 5
ENDMDL
MODEL 4
REMARK VINA RESULT:      -8.6      0.854      5.058
REMARK  Name = CHEMBL381433
REMARK  6 active torsions:
REMARK  status: ('A' for Active; 'I' for Inactive)
REMARK    1  A    between atoms: C_1  and  C_2
REMARK    2  A    between atoms: C_5  and  N_6
REMARK    3  A    between atoms: N_6  and  C_7
REMARK    4  A    between atoms: N_6  and  S_20
REMARK    5  A    between atoms: C_7  and  C_8
REMARK    6  A    between atoms: S_20  and  C_23
REMARK                            x       y       z     vdW  Elec       q    Type
REMARK                         _______ _______ _______ _____ _____    ______ ____
ROOT
ATOM      1  N   UNL     1      -7.221   1.754 124.550  0.00  0.00    +0.000 N 
ENDROOT
BRANCH   1   6
ATOM      2  C   UNL     1      -4.399   2.788 129.460  0.00  0.00    +0.000 C 
ATOM      3  C   UNL     1      -5.057   2.520 128.153  0.00  0.00    +0.000 A 
ATOM      4  C   UNL     1      -6.347   2.062 128.186  0.00  0.00    +0.000 A 
ATOM      5  C   UNL     1      -7.052   2.067 127.006  0.00  0.00    +0.000 A 
ATOM      6  C   UNL     1      -6.460   2.116 125.735  0.00  0.00    +0.000 A 
ATOM      7  C   UNL     1      -5.157   2.570 125.708  0.00  0.00    +0.000 A 
ATOM      8  C   UNL     1      -4.481   2.828 126.913  0.00  0.00    +0.000 A 
ENDBRANCH   1   6
BRANCH   1   9
ATOM      9  S   UNL     1      -8.282   2.901 123.800  0.00  0.00    +0.000 S 
ATOM     10  O   UNL     1      -9.559   2.221 123.669  0.00  0.00    +0.000 OA
ATOM     11  O   UNL     1      -8.199   4.147 124.539  0.00  0.00    +0.000 OA
BRANCH   9  12
ATOM     12  C   UNL     1      -7.848   3.348 122.093  0.00  0.00    +0.000 A 
ATOM     13  C   UNL     1      -6.494   3.553 121.770  0.00  0.00    +0.000 A 
ATOM     14  C   UNL     1      -6.134   4.050 120.500  0.00  0.00    +0.000 A 
ATOM     15  C   UNL     1      -7.101   4.277 119.522  0.00  0.00    +0.000 A 
ATOM     16  C   UNL     1      -8.424   4.029 119.817  0.00  0.00    +0.000 A 
ATOM     17  C   UNL     1      -8.775   3.565 121.081  0.00  0.00    +0.000 A 
ENDBRANCH   9  12
ENDBRANCH   1   9
BRANCH   1  18
ATOM     18  C   UNL     1      -6.872   0.513 123.879  0.00  0.00    +0.000 C 
BRANCH  18  19
ATOM     19  C   UNL     1      -7.785  -0.698 123.614  0.00  0.00    +0.000 C 
ATOM     20  O   UNL     1      -8.725  -0.689 122.809  0.00  0.00    +0.000 OA
ATOM     21  N   UNL     1      -7.623  -1.792 124.466  0.00  0.00    +0.000 N 
ATOM     22  C   UNL     1      -8.435  -2.982 124.184  0.00  0.00    +0.000 C 
ATOM     23  C   UNL     1      -8.856  -3.878 125.371  0.00  0.00    +0.000 C 
ATOM     24  C   UNL     1      -8.515  -3.353 126.744  0.00  0.00    +0.000 A 
ATOM     25  C   UNL     1      -8.814  -4.001 127.932  0.00  0.00    +0.000 A 
ATOM     26  C   UNL     1      -8.485  -3.401 129.172  0.00  0.00    +0.000 A 
ATOM     27  C   UNL     1      -7.862  -2.157 129.261  0.00  0.00    +0.000 A 
ATOM     28  C   UNL     1      -7.561  -1.519 128.100  0.00  0.00    +0.000 A 
ATOM     29  C   UNL     1      -7.889  -2.127 126.885  0.00  0.00    +0.000 A 
ATOM     30  C   UNL     1      -7.643  -1.247 125.765  0.00  0.00    +0.000 C 
ENDBRANCH  18  19
ENDBRANCH   1  18
TORSDOF 5
ENDMDL
MODEL 5
REMARK VINA RESULT:      -8.6      2.108      5.163
REMARK  Name = CHEMBL381433
REMARK  6 active torsions:
REMARK  status: ('A' for Active; 'I' for Inactive)
REMARK    1  A    between atoms: C_1  and  C_2
REMARK    2  A    between atoms: C_5  and  N_6
REMARK    3  A    between atoms: N_6  and  C_7
REMARK    4  A    between atoms: N_6  and  S_20
REMARK    5  A    between atoms: C_7  and  C_8
REMARK    6  A    between atoms: S_20  and  C_23
REMARK                            x       y       z     vdW  Elec       q    Type
REMARK                         _______ _______ _______ _____ _____    ______ ____
ROOT
ATOM      1  N   UNL     1      -8.718   1.835 124.037  0.00  0.00    +0.000 N 
ENDROOT
BRANCH   1   6
ATOM      2  C   UNL     1      -6.625   4.546 119.409  0.00  0.00    +0.000 C 
ATOM      3  C   UNL     1      -7.093   3.850 120.639  0.00  0.00    +0.000 A 
ATOM      4  C   UNL     1      -8.445   3.772 120.835  0.00  0.00    +0.000 A 
ATOM      5  C   UNL     1      -8.896   2.913 121.809  0.00  0.00    +0.000 A 
ATOM      6  C   UNL     1      -8.104   2.429 122.860  0.00  0.00    +0.000 A 
ATOM      7  C   UNL     1      -6.740   2.519 122.662  0.00  0.00    +0.000 A 
ATOM      8  C   UNL     1      -6.241   3.175 121.524  0.00  0.00    +0.000 A 
ENDBRANCH   1   6
BRANCH   1   9
ATOM      9  S   UNL     1      -9.235   0.181 124.020  0.00  0.00    +0.000 S 
ATOM     10  O   UNL     1      -9.973  -0.008 125.256  0.00  0.00    +0.000 OA
ATOM     11  O   UNL     1      -9.879  -0.080 122.747  0.00  0.00    +0.000 OA
BRANCH   9  12
ATOM     12  C   UNL     1      -7.896  -1.044 124.120  0.00  0.00    +0.000 A 
ATOM     13  C   UNL     1      -8.219  -2.411 124.024  0.00  0.00    +0.000 A 
ATOM     14  C   UNL     1      -7.233  -3.391 124.252  0.00  0.00    +0.000 A 
ATOM     15  C   UNL     1      -5.910  -3.029 124.502  0.00  0.00    +0.000 A 
ATOM     16  C   UNL     1      -5.578  -1.692 124.546  0.00  0.00    +0.000 A 
ATOM     17  C   UNL     1      -6.562  -0.729 124.349  0.00  0.00    +0.000 A 
ENDBRANCH   9  12
ENDBRANCH   1   9
BRANCH   1  18
ATOM     18  C   UNL     1      -8.646   2.580 125.283  0.00  0.00    +0.000 C 
BRANCH  18  19
ATOM     19  C   UNL     1      -8.272   2.043 126.676  0.00  0.00    +0.000 C 
ATOM     20  O   UNL     1      -9.027   2.083 127.656  0.00  0.00    +0.000 OA
ATOM     21  N   UNL     1      -6.943   1.654 126.851  0.00  0.00    +0.000 N 
ATOM     22  C   UNL     1      -6.584   1.073 128.151  0.00  0.00    +0.000 C 
ATOM     23  C   UNL     1      -5.144   1.281 128.674  0.00  0.00    +0.000 C 
ATOM     24  C   UNL     1      -4.276   2.205 127.856  0.00  0.00    +0.000 A 
ATOM     25  C   UNL     1      -2.964   2.527 128.159  0.00  0.00    +0.000 A 
ATOM     26  C   UNL     1      -2.247   3.439 127.346  0.00  0.00    +0.000 A 
ATOM     27  C   UNL     1      -2.812   4.047 126.226  0.00  0.00    +0.000 A 
ATOM     28  C   UNL     1      -4.097   3.732 125.918  0.00  0.00    +0.000 A 
ATOM     29  C   UNL     1      -4.788   2.828 126.730  0.00  0.00    +0.000 A 
ATOM     30  C   UNL     1      -6.180   2.728 126.353  0.00  0.00    +0.000 C 
ENDBRANCH  18  19
ENDBRANCH   1  18
TORSDOF 5
ENDMDL
MODEL 6
REMARK VINA RESULT:      -8.5      6.547      9.918
REMARK  Name = CHEMBL381433
REMARK  6 active torsions:
REMARK  status: ('A' for Active; 'I' for Inactive)
REMARK    1  A    between atoms: C_1  and  C_2
REMARK    2  A    between atoms: C_5  and  N_6
REMARK    3  A    between atoms: N_6  and  C_7
REMARK    4  A    between atoms: N_6  and  S_20
REMARK    5  A    between atoms: C_7  and  C_8
REMARK    6  A    between atoms: S_20  and  C_23
REMARK                            x       y       z     vdW  Elec       q    Type
REMARK                         _______ _______ _______ _____ _____    ______ ____
ROOT
ATOM      1  N   UNL     1      -5.628   5.745 130.537  0.00  0.00    +0.000 N 
ENDROOT
BRANCH   1   6
ATOM      2  C   UNL     1      -0.484   7.164 132.698  0.00  0.00    +0.000 C 
ATOM      3  C   UNL     1      -1.811   6.729 132.183  0.00  0.00    +0.000 A 
ATOM      4  C   UNL     1      -2.593   7.683 131.592  0.00  0.00    +0.000 A 
ATOM      5  C   UNL     1      -3.688   7.254 130.880  0.00  0.00    +0.000 A 
ATOM      6  C   UNL     1      -4.286   5.995 131.038  0.00  0.00    +0.000 A 
ATOM      7  C   UNL     1      -3.496   5.038 131.643  0.00  0.00    +0.000 A 
ATOM      8  C   UNL     1      -2.238   5.394 132.158  0.00  0.00    +0.000 A 
ENDBRANCH   1   6
BRANCH   1   9
ATOM      9  S   UNL     1      -5.931   4.430 129.449  0.00  0.00    +0.000 S 
ATOM     10  O   UNL     1      -5.929   3.235 130.274  0.00  0.00    +0.000 OA
ATOM     11  O   UNL     1      -7.100   4.758 128.655  0.00  0.00    +0.000 OA
BRANCH   9  12
ATOM     12  C   UNL     1      -4.617   4.123 128.231  0.00  0.00    +0.000 A 
ATOM     13  C   UNL     1      -4.878   4.386 126.873  0.00  0.00    +0.000 A 
ATOM     14  C   UNL     1      -3.942   4.016 125.886  0.00  0.00    +0.000 A 
ATOM     15  C   UNL     1      -2.717   3.451 126.239  0.00  0.00    +0.000 A 
ATOM     16  C   UNL     1      -2.436   3.238 127.571  0.00  0.00    +0.000 A 
ATOM     17  C   UNL     1      -3.376   3.580 128.538  0.00  0.00    +0.000 A 
ENDBRANCH   9  12
ENDBRANCH   1   9
BRANCH   1  18
ATOM     18  C   UNL     1      -6.726   6.455 131.170  0.00  0.00    +0.000 C 
BRANCH  18  19
ATOM     19  C   UNL     1      -7.998   5.852 131.793  0.00  0.00    +0.000 C 
ATOM     20  O   UNL     1      -8.071   4.695 132.227  0.00  0.00    +0.000 OA
ATOM     21  N   UNL     1      -9.160   6.619 131.691  0.00  0.00    +0.000 N 
ATOM     22  C   UNL     1     -10.366   6.092 132.341  0.00  0.00    +0.000 C 
ATOM     23  C   UNL     1     -11.740   6.436 131.723  0.00  0.00    +0.000 C 
ATOM     24  C   UNL     1     -11.702   7.167 130.404  0.00  0.00    +0.000 A 
ATOM     25  C   UNL     1     -12.821   7.556 129.686  0.00  0.00    +0.000 A 
ATOM     26  C   UNL     1     -12.675   8.203 128.434  0.00  0.00    +0.000 A 
ATOM     27  C   UNL     1     -11.429   8.472 127.871  0.00  0.00    +0.000 A 
ATOM     28  C   UNL     1     -10.327   8.098 128.571  0.00  0.00    +0.000 A 
ATOM     29  C   UNL     1     -10.489   7.464 129.806  0.00  0.00    +0.000 A 
ATOM     30  C   UNL     1      -9.227   6.998 130.336  0.00  0.00    +0.000 C 
ENDBRANCH  18  19
ENDBRANCH   1  18
TORSDOF 5
ENDMDL
MODEL 7
REMARK VINA RESULT:      -8.5      6.969      9.254
REMARK  Name = CHEMBL381433
REMARK  6 active torsions:
REMARK  status: ('A' for Active; 'I' for Inactive)
REMARK    1  A    between atoms: C_1  and  C_2
REMARK    2  A    between atoms: C_5  and  N_6
REMARK    3  A    between atoms: N_6  and  C_7
REMARK    4  A    between atoms: N_6  and  S_20
REMARK    5  A    between atoms: C_7  and  C_8
REMARK    6  A    between atoms: S_20  and  C_23
REMARK                            x       y       z     vdW  Elec       q    Type
REMARK                         _______ _______ _______ _____ _____    ______ ____
ROOT
ATOM      1  N   UNL     1      -5.826   4.791 130.189  0.00  0.00    +0.000 N 
ENDROOT
BRANCH   1   6
ATOM      2  C   UNL     1      -1.693   3.067 126.570  0.00  0.00    +0.000 C 
ATOM      3  C   UNL     1      -2.759   3.440 127.540  0.00  0.00    +0.000 A 
ATOM      4  C   UNL     1      -3.027   4.774 127.690  0.00  0.00    +0.000 A 
ATOM      5  C   UNL     1      -4.173   5.118 128.368  0.00  0.00    +0.000 A 
ATOM      6  C   UNL     1      -4.858   4.262 129.243  0.00  0.00    +0.000 A 
ATOM      7  C   UNL     1      -4.577   2.918 129.093  0.00  0.00    +0.000 A 
ATOM      8  C   UNL     1      -3.572   2.509 128.201  0.00  0.00    +0.000 A 
ENDBRANCH   1   6
BRANCH   1   9
ATOM      9  S   UNL     1      -5.315   5.806 131.498  0.00  0.00    +0.000 S 
ATOM     10  O   UNL     1      -5.653   7.160 131.094  0.00  0.00    +0.000 OA
ATOM     11  O   UNL     1      -5.854   5.264 132.731  0.00  0.00    +0.000 OA
BRANCH   9  12
ATOM     12  C   UNL     1      -3.519   5.867 131.767  0.00  0.00    +0.000 A 
ATOM     13  C   UNL     1      -2.855   4.694 132.174  0.00  0.00    +0.000 A 
ATOM     14  C   UNL     1      -1.494   4.740 132.541  0.00  0.00    +0.000 A 
ATOM     15  C   UNL     1      -0.766   5.925 132.439  0.00  0.00    +0.000 A 
ATOM     16  C   UNL     1      -1.399   7.064 131.991  0.00  0.00    +0.000 A 
ATOM     17  C   UNL     1      -2.749   7.019 131.658  0.00  0.00    +0.000 A 
ENDBRANCH   9  12
ENDBRANCH   1   9
BRANCH   1  18
ATOM     18  C   UNL     1      -7.235   4.657 129.857  0.00  0.00    +0.000 C 
BRANCH  18  19
ATOM     19  C   UNL     1      -8.420   4.531 130.831  0.00  0.00    +0.000 C 
ATOM     20  O   UNL     1      -8.818   3.456 131.296  0.00  0.00    +0.000 OA
ATOM     21  N   UNL     1      -9.169   5.689 131.045  0.00  0.00    +0.000 N 
ATOM     22  C   UNL     1     -10.259   5.606 132.025  0.00  0.00    +0.000 C 
ATOM     23  C   UNL     1     -11.501   6.503 131.816  0.00  0.00    +0.000 C 
ATOM     24  C   UNL     1     -11.540   7.279 130.522  0.00  0.00    +0.000 A 
ATOM     25  C   UNL     1     -12.567   8.128 130.144  0.00  0.00    +0.000 A 
ATOM     26  C   UNL     1     -12.526   8.780 128.886  0.00  0.00    +0.000 A 
ATOM     27  C   UNL     1     -11.478   8.602 127.985  0.00  0.00    +0.000 A 
ATOM     28  C   UNL     1     -10.465   7.775 128.351  0.00  0.00    +0.000 A 
ATOM     29  C   UNL     1     -10.520   7.143 129.597  0.00  0.00    +0.000 A 
ATOM     30  C   UNL     1      -9.449   6.185 129.756  0.00  0.00    +0.000 C 
ENDBRANCH  18  19
ENDBRANCH   1  18
TORSDOF 5
ENDMDL
MODEL 8
REMARK VINA RESULT:      -8.4      2.502      7.959
REMARK  Name = CHEMBL381433
REMARK  6 active torsions:
REMARK  status: ('A' for Active; 'I' for Inactive)
REMARK    1  A    between atoms: C_1  and  C_2
REMARK    2  A    between atoms: C_5  and  N_6
REMARK    3  A    between atoms: N_6  and  C_7
REMARK    4  A    between atoms: N_6  and  S_20
REMARK    5  A    between atoms: C_7  and  C_8
REMARK    6  A    between atoms: S_20  and  C_23
REMARK                            x       y       z     vdW  Elec       q    Type
REMARK                         _______ _______ _______ _____ _____    ______ ____
ROOT
ATOM      1  N   UNL     1      -7.962  -0.862 127.197  0.00  0.00    +0.000 N 
ENDROOT
BRANCH   1   6
ATOM      2  C   UNL     1      -5.566  -4.452 131.007  0.00  0.00    +0.000 C 
ATOM      3  C   UNL     1      -6.119  -3.531 129.977  0.00  0.00    +0.000 A 
ATOM      4  C   UNL     1      -7.466  -3.292 130.013  0.00  0.00    +0.000 A 
ATOM      5  C   UNL     1      -7.946  -2.252 129.253  0.00  0.00    +0.000 A 
ATOM      6  C   UNL     1      -7.261  -1.689 128.166  0.00  0.00    +0.000 A 
ATOM      7  C   UNL     1      -5.904  -1.941 128.130  0.00  0.00    +0.000 A 
ATOM      8  C   UNL     1      -5.329  -2.812 129.070  0.00  0.00    +0.000 A 
ENDBRANCH   1   6
BRANCH   1   9
ATOM      9  S   UNL     1      -8.634  -1.564 125.762  0.00  0.00    +0.000 S 
ATOM     10  O   UNL     1      -9.240  -2.813 126.188  0.00  0.00    +0.000 OA
ATOM     11  O   UNL     1      -9.442  -0.557 125.100  0.00  0.00    +0.000 OA
BRANCH   9  12
ATOM     12  C   UNL     1      -7.416  -2.072 124.513  0.00  0.00    +0.000 A 
ATOM     13  C   UNL     1      -6.571  -3.163 124.795  0.00  0.00    +0.000 A 
ATOM     14  C   UNL     1      -5.515  -3.488 123.920  0.00  0.00    +0.000 A 
ATOM     15  C   UNL     1      -5.331  -2.785 122.730  0.00  0.00    +0.000 A 
ATOM     16  C   UNL     1      -6.187  -1.749 122.424  0.00  0.00    +0.000 A 
ATOM     17  C   UNL     1      -7.210  -1.415 123.306  0.00  0.00    +0.000 A 
ENDBRANCH   9  12
ENDBRANCH   1   9
BRANCH   1  18
ATOM     18  C   UNL     1      -8.300   0.496 127.591  0.00  0.00    +0.000 C 
BRANCH  18  19
ATOM     19  C   UNL     1      -7.332   1.659 127.870  0.00  0.00    +0.000 C 
ATOM     20  O   UNL     1      -7.432   2.423 128.839  0.00  0.00    +0.000 OA
ATOM     21  N   UNL     1      -6.406   1.946 126.866  0.00  0.00    +0.000 N 
ATOM     22  C   UNL     1      -5.428   3.006 127.143  0.00  0.00    +0.000 C 
ATOM     23  C   UNL     1      -4.897   3.840 125.955  0.00  0.00    +0.000 C 
ATOM     24  C   UNL     1      -5.558   3.582 124.624  0.00  0.00    +0.000 A 
ATOM     25  C   UNL     1      -5.234   4.231 123.444  0.00  0.00    +0.000 A 
ATOM     26  C   UNL     1      -5.945   3.944 122.253  0.00  0.00    +0.000 A 
ATOM     27  C   UNL     1      -6.986   3.018 122.208  0.00  0.00    +0.000 A 
ATOM     28  C   UNL     1      -7.307   2.374 123.360  0.00  0.00    +0.000 A 
ATOM     29  C   UNL     1      -6.592   2.667 124.524  0.00  0.00    +0.000 A 
ATOM     30  C   UNL     1      -7.164   2.013 125.680  0.00  0.00    +0.000 C 
ENDBRANCH  18  19
ENDBRANCH   1  18
TORSDOF 5
ENDMDL
MODEL 9
REMARK VINA RESULT:      -8.4      2.615      7.145
REMARK  Name = CHEMBL381433
REMARK  6 active torsions:
REMARK  status: ('A' for Active; 'I' for Inactive)
REMARK    1  A    between atoms: C_1  and  C_2
REMARK    2  A    between atoms: C_5  and  N_6
REMARK    3  A    between atoms: N_6  and  C_7
REMARK    4  A    between atoms: N_6  and  S_20
REMARK    5  A    between atoms: C_7  and  C_8
REMARK    6  A    between atoms: S_20  and  C_23
REMARK                            x       y       z     vdW  Elec       q    Type
REMARK                         _______ _______ _______ _____ _____    ______ ____
ROOT
ATOM      1  N   UNL     1      -6.679   1.798 124.926  0.00  0.00    +0.000 N 
ENDROOT
BRANCH   1   6
ATOM      2  C   UNL     1      -9.257  -3.149 123.500  0.00  0.00    +0.000 C 
ATOM      3  C   UNL     1      -8.617  -1.881 123.944  0.00  0.00    +0.000 A 
ATOM      4  C   UNL     1      -7.667  -1.340 123.121  0.00  0.00    +0.000 A 
ATOM      5  C   UNL     1      -7.265  -0.051 123.378  0.00  0.00    +0.000 A 
ATOM      6  C   UNL     1      -7.436   0.597 124.609  0.00  0.00    +0.000 A 
ATOM      7  C   UNL     1      -8.389   0.043 125.440  0.00  0.00    +0.000 A 
ATOM      8  C   UNL     1      -9.018  -1.160 125.078  0.00  0.00    +0.000 A 
ENDBRANCH   1   6
BRANCH   1   9
ATOM      9  S   UNL     1      -7.202   3.346 124.350  0.00  0.00    +0.000 S 
ATOM     10  O   UNL     1      -8.614   3.426 124.680  0.00  0.00    +0.000 OA
ATOM     11  O   UNL     1      -6.285   4.351 124.853  0.00  0.00    +0.000 OA
BRANCH   9  12
ATOM     12  C   UNL     1      -7.163   3.548 122.545  0.00  0.00    +0.000 A 
ATOM     13  C   UNL     1      -5.929   3.808 121.918  0.00  0.00    +0.000 A 
ATOM     14  C   UNL     1      -5.882   4.123 120.545  0.00  0.00    +0.000 A 
ATOM     15  C   UNL     1      -7.042   4.112 119.770  0.00  0.00    +0.000 A 
ATOM     16  C   UNL     1      -8.245   3.808 120.368  0.00  0.00    +0.000 A 
ATOM     17  C   UNL     1      -8.288   3.525 121.729  0.00  0.00    +0.000 A 
ENDBRANCH   9  12
ENDBRANCH   1   9
BRANCH   1  18
ATOM     18  C   UNL     1      -5.639   1.691 125.936  0.00  0.00    +0.000 C 
BRANCH  18  19
ATOM     19  C   UNL     1      -5.820   1.627 127.464  0.00  0.00    +0.000 C 
ATOM     20  O   UNL     1      -6.895   1.368 128.020  0.00  0.00    +0.000 OA
ATOM     21  N   UNL     1      -4.738   2.057 128.232  0.00  0.00    +0.000 N 
ATOM     22  C   UNL     1      -4.865   1.937 129.690  0.00  0.00    +0.000 C 
ATOM     23  C   UNL     1      -4.127   2.966 130.576  0.00  0.00    +0.000 C 
ATOM     24  C   UNL     1      -3.459   4.104 129.845  0.00  0.00    +0.000 A 
ATOM     25  C   UNL     1      -2.756   5.129 130.456  0.00  0.00    +0.000 A 
ATOM     26  C   UNL     1      -2.200   6.175 129.678  0.00  0.00    +0.000 A 
ATOM     27  C   UNL     1      -2.330   6.226 128.291  0.00  0.00    +0.000 A 
ATOM     28  C   UNL     1      -3.012   5.221 127.684  0.00  0.00    +0.000 A 
ATOM     29  C   UNL     1      -3.551   4.196 128.466  0.00  0.00    +0.000 A 
ATOM     30  C   UNL     1      -4.373   3.302 127.682  0.00  0.00    +0.000 C 
ENDBRANCH  18  19
ENDBRANCH   1  18
TORSDOF 5
ENDMDL
