MODEL 1
REMARK VINA RESULT:     -10.2      0.000      0.000
REMARK  Name = CHEMBL3814165
REMARK  24 active torsions:
REMARK  status: ('A' for Active; 'I' for Inactive)
REMARK    1  A    between atoms: C_1  and  C_2
REMARK    2  A    between atoms: C_2  and  C_3
REMARK    3  A    between atoms: C_3  and  C_4
REMARK    4  A    between atoms: C_3  and  C_5
REMARK    5  A    between atoms: C_9  and  C_10
REMARK    6  A    between atoms: C_10  and  C_11
REMARK    7  A    between atoms: C_14  and  O_15
REMARK    8  A    between atoms: N_18  and  C_19
REMARK    9  A    between atoms: C_22  and  N_23
REMARK   10  A    between atoms: C_28  and  C_29
REMARK   11  A    between atoms: C_35  and  C_36
REMARK   12  A    between atoms: N_38  and  C_39
REMARK   13  A    between atoms: C_39  and  C_40
REMARK   14  A    between atoms: C_39  and  C_44
REMARK   15  A    between atoms: C_40  and  C_41
REMARK   16  A    between atoms: C_41  and  C_42
REMARK   17  A    between atoms: C_41  and  C_43
REMARK   18  A    between atoms: N_46  and  C_47
REMARK   19  A    between atoms: C_47  and  C_48
REMARK   20  A    between atoms: C_54  and  C_55
REMARK   21  A    between atoms: C_55  and  C_56
REMARK   22  A    between atoms: C_62  and  C_63
REMARK   23  A    between atoms: C_63  and  C_64
REMARK   24  A    between atoms: C_64  and  C_65
REMARK                            x       y       z     vdW  Elec       q    Type
REMARK                         _______ _______ _______ _____ _____    ______ ____
ROOT
ATOM      1  C   UNL     1      -6.871  -1.192 128.038  0.00  0.00    +0.000 C 
ATOM      2  N   UNL     1      -7.238   0.046 126.110  0.00  0.00    +0.000 N 
ATOM      3  C   UNL     1      -7.539   1.425 124.447  0.00  0.00    +0.000 C 
ATOM      4  O   UNL     1      -8.121   2.060 122.953  0.00  0.00    +0.000 OA
ATOM      5  C   UNL     1      -7.594   3.189 123.552  0.00  0.00    +0.000 C 
ATOM      6  N   UNL     1      -8.876   2.247 124.366  0.00  0.00    +0.000 N 
ATOM      7  C   UNL     1      -9.126   0.682 123.165  0.00  0.00    +0.000 C 
ATOM      8  C   UNL     1      -9.107   2.821 125.539  0.00  0.00    +0.000 C 
ATOM      9  O   UNL     1      -8.444   3.834 125.770  0.00  0.00    +0.000 OA
ATOM     10  C   UNL     1      -9.432   1.591 126.330  0.00  0.00    +0.000 C 
ATOM     11  C   UNL     1      -8.399   1.393 127.428  0.00  0.00    +0.000 C 
ATOM     12  S   UNL     1      -7.853   3.017 128.054  0.00  0.00    +0.000 S 
ATOM     13  S   UNL     1      -6.140   2.793 129.042  0.00  0.00    +0.000 S 
ATOM     14  C   UNL     1      -6.036   3.895 130.692  0.00  0.00    +0.000 C 
ATOM     15  C   UNL     1      -5.170   3.392 131.805  0.00  0.00    +0.000 C 
ATOM     16  N   UNL     1      -5.814   2.314 132.632  0.00  0.00    +0.000 N 
ATOM     17  C   UNL     1      -6.192   1.084 132.214  0.00  0.00    +0.000 C 
ATOM     18  O   UNL     1      -6.711   0.324 133.010  0.00  0.00    +0.000 OA
ATOM     19  C   UNL     1      -6.016   0.730 130.743  0.00  0.00    +0.000 C 
ATOM     20  N   UNL     1      -5.109  -0.065 130.114  0.00  0.00    +0.000 N 
ATOM     21  C   UNL     1      -5.300  -1.163 130.527  0.00  0.00    +0.000 C 
ATOM     22  O   UNL     1      -4.483  -2.366 129.697  0.00  0.00    +0.000 OA
ATOM     23  C   UNL     1      -6.904  -1.702 131.773  0.00  0.00    +0.000 C 
ATOM     24  N   UNL     1      -7.821  -2.660 130.929  0.00  0.00    +0.000 N 
ATOM     25  C   UNL     1      -7.615  -2.734 129.294  0.00  0.00    +0.000 C 
ATOM     26  O   UNL     1      -7.622  -4.071 129.568  0.00  0.00    +0.000 OA
ATOM     27  H   UNL     1      -7.541   1.417 125.614  0.00  0.00    +0.000 HD
ATOM     28  H   UNL     1      -5.956   2.499 133.640  0.00  0.00    +0.000 HD
ATOM     29  H   UNL     1      -4.144  -0.217 129.929  0.00  0.00    +0.000 HD
ATOM     30  H   UNL     1      -8.763  -2.557 130.847  0.00  0.00    +0.000 HD
ENDROOT
BRANCH  15  31
ATOM     31  C   UNL     1      -4.876   4.624 132.638  0.00  0.00    +0.000 C 
ATOM     32  O   UNL     1      -4.958   5.652 131.972  0.00  0.00    +0.000 OA
ATOM     33  N   UNL     1      -4.689   4.480 134.033  0.00  0.00    +0.000 N 
ATOM     34  C   UNL     1      -3.851   3.534 134.765  0.00  0.00    +0.000 C 
ATOM     35  C   UNL     1      -4.625   3.300 136.034  0.00  0.00    +0.000 C 
ATOM     36  C   UNL     1      -5.066   4.691 136.409  0.00  0.00    +0.000 C 
ATOM     37  C   UNL     1      -5.234   5.404 135.086  0.00  0.00    +0.000 C 
BRANCH  37  38
ATOM     38  C   UNL     1      -4.255   6.574 135.419  0.00  0.00    +0.000 C 
ATOM     39  O   UNL     1      -3.845   6.643 136.597  0.00  0.00    +0.000 OA
ATOM     40  N   UNL     1      -3.520   7.124 134.289  0.00  0.00    +0.000 N 
ATOM     41  H   UNL     1      -3.883   7.107 133.338  0.00  0.00    +0.000 HD
BRANCH  40  42
ATOM     42  C   UNL     1      -2.203   7.846 134.459  0.00  0.00    +0.000 C 
BRANCH  42  43
ATOM     43  C   UNL     1      -2.401   9.382 134.279  0.00  0.00    +0.000 C 
ATOM     44  O   UNL     1      -2.723  10.061 135.257  0.00  0.00    +0.000 OA
ATOM     45  N   UNL     1      -2.199   9.942 133.026  0.00  0.00    +0.000 N 
ATOM     46  H   UNL     1      -1.938   9.384 132.232  0.00  0.00    +0.000 HD
BRANCH  45  47
ATOM     47  C   UNL     1      -2.362  11.380 132.786  0.00  0.00    +0.000 C 
BRANCH  47  48
ATOM     48  C   UNL     1      -1.096  12.067 132.232  0.00  0.00    +0.000 C 
ATOM     49  N   UNL     1      -1.258  12.990 131.213  0.00  0.00    +0.000 N 
ATOM     50  O   UNL     1       0.016  11.801 132.685  0.00  0.00    +0.000 OA
ATOM     51  H   UNL     1      -2.134  13.256 130.797  0.00  0.00    +0.000 HD
ATOM     52  H   UNL     1      -0.453  13.468 130.818  0.00  0.00    +0.000 HD
ENDBRANCH  47  48
ENDBRANCH  45  47
ENDBRANCH  42  43
BRANCH  42  53
ATOM     53  C   UNL     1      -1.117   7.368 133.489  0.00  0.00    +0.000 C 
BRANCH  53  54
ATOM     54  C   UNL     1      -1.627   6.367 132.477  0.00  0.00    +0.000 C 
ATOM     55  C   UNL     1      -0.960   6.523 131.181  0.00  0.00    +0.000 C 
ATOM     56  C   UNL     1      -1.155   4.991 132.697  0.00  0.00    +0.000 C 
ENDBRANCH  53  54
ENDBRANCH  42  53
ENDBRANCH  40  42
ENDBRANCH  37  38
ENDBRANCH  15  31
BRANCH  10  57
ATOM     57  N   UNL     1      -9.728   0.347 125.503  0.00  0.00    +0.000 NA
ATOM     58  H   UNL     1     -10.695   0.459 125.127  0.00  0.00    +0.000 HD
ATOM     59  H   UNL     1      -9.735  -0.429 126.167  0.00  0.00    +0.000 HD
ENDBRANCH  10  57
BRANCH   1  60
ATOM     60  C   UNL     1      -6.076  -2.560 129.906  0.00  0.00    +0.000 C 
ATOM     61  C   UNL     1      -5.388  -4.334 131.141  0.00  0.00    +0.000 C 
BRANCH  60  63
ATOM     62  C   UNL     1      -5.163  -5.526 131.356  0.00  0.00    +0.000 C 
ATOM     63  C   UNL     1      -4.983  -4.308 130.211  0.00  0.00    +0.000 C 
ENDBRANCH  60  63
ENDBRANCH   1  60
BRANCH  19  64
ATOM     64  C   UNL     1      -7.404   0.510 130.116  0.00  0.00    +0.000 C 
BRANCH  64  65
ATOM     65  C   UNL     1      -8.647   0.775 130.967  0.00  0.00    +0.000 C 
ATOM     66  N   UNL     1      -9.031   2.059 131.107  0.00  0.00    +0.000 N 
ATOM     67  O   UNL     1      -9.399  -0.104 131.361  0.00  0.00    +0.000 OA
ATOM     68  H   UNL     1      -8.445   2.570 130.478  0.00  0.00    +0.000 HD
ATOM     69  H   UNL     1     -10.043   2.340 131.038  0.00  0.00    +0.000 HD
ENDBRANCH  64  65
ENDBRANCH  19  64
BRANCH   5  70
ATOM     70  C   UNL     1      -6.488   2.899 122.347  0.00  0.00    +0.000 C 
BRANCH  70  71
ATOM     71  C   UNL     1      -6.242   3.804 121.185  0.00  0.00    +0.000 A 
ATOM     72  C   UNL     1      -5.113   4.600 121.057  0.00  0.00    +0.000 A 
ATOM     73  C   UNL     1      -4.904   5.390 119.925  0.00  0.00    +0.000 A 
ATOM     74  C   UNL     1      -5.843   5.380 118.914  0.00  0.00    +0.000 A 
ATOM     75  C   UNL     1      -6.990   4.619 119.046  0.00  0.00    +0.000 A 
ATOM     76  C   UNL     1      -7.190   3.836 120.170  0.00  0.00    +0.000 A 
BRANCH  74  77
ATOM     77  O   UNL     1      -5.731   6.090 117.760  0.00  0.00    +0.000 OA
ATOM     78  H   UNL     1      -5.445   7.008 117.889  0.00  0.00    +0.000 HD
ENDBRANCH  74  77
ENDBRANCH  70  71
ENDBRANCH   5  70
BRANCH  23  79
ATOM     79  C   UNL     1      -6.715  -2.354 133.264  0.00  0.00    +0.000 C 
BRANCH  79  80
ATOM     80  C   UNL     1      -7.950  -2.671 133.970  0.00  0.00    +0.000 C 
BRANCH  80  81
ATOM     81  C   UNL     1      -7.874  -4.067 134.568  0.00  0.00    +0.000 C 
ATOM     82  N   UNL     1      -8.947  -4.597 135.272  0.00  0.00    +0.000 N 
ATOM     83  O   UNL     1      -6.838  -4.705 134.408  0.00  0.00    +0.000 OA
ATOM     84  H   UNL     1      -9.829  -4.129 135.450  0.00  0.00    +0.000 HD
ATOM     85  H   UNL     1      -8.902  -5.527 135.668  0.00  0.00    +0.000 HD
ENDBRANCH  80  81
ENDBRANCH  79  80
ENDBRANCH  23  79
TORSDOF 19
ENDMDL
MODEL 2
REMARK VINA RESULT:     -10.0      1.256      2.222
REMARK  Name = CHEMBL3814165
REMARK  24 active torsions:
REMARK  status: ('A' for Active; 'I' for Inactive)
REMARK    1  A    between atoms: C_1  and  C_2
REMARK    2  A    between atoms: C_2  and  C_3
REMARK    3  A    between atoms: C_3  and  C_4
REMARK    4  A    between atoms: C_3  and  C_5
REMARK    5  A    between atoms: C_9  and  C_10
REMARK    6  A    between atoms: C_10  and  C_11
REMARK    7  A    between atoms: C_14  and  O_15
REMARK    8  A    between atoms: N_18  and  C_19
REMARK    9  A    between atoms: C_22  and  N_23
REMARK   10  A    between atoms: C_28  and  C_29
REMARK   11  A    between atoms: C_35  and  C_36
REMARK   12  A    between atoms: N_38  and  C_39
REMARK   13  A    between atoms: C_39  and  C_40
REMARK   14  A    between atoms: C_39  and  C_44
REMARK   15  A    between atoms: C_40  and  C_41
REMARK   16  A    between atoms: C_41  and  C_42
REMARK   17  A    between atoms: C_41  and  C_43
REMARK   18  A    between atoms: N_46  and  C_47
REMARK   19  A    between atoms: C_47  and  C_48
REMARK   20  A    between atoms: C_54  and  C_55
REMARK   21  A    between atoms: C_55  and  C_56
REMARK   22  A    between atoms: C_62  and  C_63
REMARK   23  A    between atoms: C_63  and  C_64
REMARK   24  A    between atoms: C_64  and  C_65
REMARK                            x       y       z     vdW  Elec       q    Type
REMARK                         _______ _______ _______ _____ _____    ______ ____
ROOT
ATOM      1  C   UNL     1      -6.774  -1.120 128.064  0.00  0.00    +0.000 C 
ATOM      2  N   UNL     1      -7.159   0.117 126.140  0.00  0.00    +0.000 N 
ATOM      3  C   UNL     1      -7.472   1.496 124.478  0.00  0.00    +0.000 C 
ATOM      4  O   UNL     1      -8.072   2.134 122.992  0.00  0.00    +0.000 OA
ATOM      5  C   UNL     1      -7.525   3.258 123.580  0.00  0.00    +0.000 C 
ATOM      6  N   UNL     1      -8.802   2.331 124.416  0.00  0.00    +0.000 N 
ATOM      7  C   UNL     1      -9.087   0.766 123.223  0.00  0.00    +0.000 C 
ATOM      8  C   UNL     1      -9.010   2.910 125.592  0.00  0.00    +0.000 C 
ATOM      9  O   UNL     1      -8.333   3.916 125.810  0.00  0.00    +0.000 OA
ATOM     10  C   UNL     1      -9.334   1.685 126.390  0.00  0.00    +0.000 C 
ATOM     11  C   UNL     1      -8.285   1.478 127.472  0.00  0.00    +0.000 C 
ATOM     12  S   UNL     1      -7.714   3.098 128.086  0.00  0.00    +0.000 S 
ATOM     13  S   UNL     1      -5.988   2.860 129.048  0.00  0.00    +0.000 S 
ATOM     14  C   UNL     1      -5.847   3.964 130.694  0.00  0.00    +0.000 C 
ATOM     15  C   UNL     1      -4.969   3.455 131.794  0.00  0.00    +0.000 C 
ATOM     16  N   UNL     1      -5.610   2.385 132.633  0.00  0.00    +0.000 N 
ATOM     17  C   UNL     1      -6.007   1.157 132.224  0.00  0.00    +0.000 C 
ATOM     18  O   UNL     1      -6.520   0.404 133.030  0.00  0.00    +0.000 OA
ATOM     19  C   UNL     1      -5.857   0.799 130.751  0.00  0.00    +0.000 C 
ATOM     20  N   UNL     1      -4.968  -0.006 130.109  0.00  0.00    +0.000 N 
ATOM     21  C   UNL     1      -5.163  -1.102 130.528  0.00  0.00    +0.000 C 
ATOM     22  O   UNL     1      -4.371  -2.315 129.687  0.00  0.00    +0.000 OA
ATOM     23  C   UNL     1      -6.753  -1.622 131.800  0.00  0.00    +0.000 C 
ATOM     24  N   UNL     1      -7.692  -2.573 130.973  0.00  0.00    +0.000 N 
ATOM     25  C   UNL     1      -7.513  -2.652 129.335  0.00  0.00    +0.000 C 
ATOM     26  O   UNL     1      -7.528  -3.989 129.612  0.00  0.00    +0.000 OA
ATOM     27  H   UNL     1      -7.457   1.490 125.645  0.00  0.00    +0.000 HD
ATOM     28  H   UNL     1      -5.735   2.573 133.643  0.00  0.00    +0.000 HD
ATOM     29  H   UNL     1      -4.007  -0.168 129.910  0.00  0.00    +0.000 HD
ATOM     30  H   UNL     1      -8.635  -2.460 130.906  0.00  0.00    +0.000 HD
ENDROOT
BRANCH  15  31
ATOM     31  C   UNL     1      -4.649   4.685 132.619  0.00  0.00    +0.000 C 
ATOM     32  O   UNL     1      -5.566   4.968 133.386  0.00  0.00    +0.000 OA
ATOM     33  N   UNL     1      -3.358   5.256 132.528  0.00  0.00    +0.000 N 
ATOM     34  C   UNL     1      -2.576   5.597 131.343  0.00  0.00    +0.000 C 
ATOM     35  C   UNL     1      -1.158   5.368 131.790  0.00  0.00    +0.000 C 
ATOM     36  C   UNL     1      -1.145   5.982 133.165  0.00  0.00    +0.000 C 
ATOM     37  C   UNL     1      -2.551   5.778 133.684  0.00  0.00    +0.000 C 
BRANCH  37  38
ATOM     38  C   UNL     1      -2.827   7.287 133.972  0.00  0.00    +0.000 C 
ATOM     39  O   UNL     1      -3.761   7.546 134.759  0.00  0.00    +0.000 OA
ATOM     40  N   UNL     1      -1.707   8.190 133.746  0.00  0.00    +0.000 N 
ATOM     41  H   UNL     1      -0.974   7.995 133.066  0.00  0.00    +0.000 HD
BRANCH  40  42
ATOM     42  C   UNL     1      -1.599   9.528 134.438  0.00  0.00    +0.000 C 
BRANCH  42  43
ATOM     43  C   UNL     1      -0.539  10.423 133.725  0.00  0.00    +0.000 C 
ATOM     44  O   UNL     1       0.464   9.891 133.243  0.00  0.00    +0.000 OA
ATOM     45  N   UNL     1      -0.759  11.790 133.647  0.00  0.00    +0.000 N 
ATOM     46  H   UNL     1      -1.577  12.219 134.043  0.00  0.00    +0.000 HD
BRANCH  45  47
ATOM     47  C   UNL     1       0.193  12.690 132.987  0.00  0.00    +0.000 C 
BRANCH  47  48
ATOM     48  C   UNL     1      -0.123  12.949 131.498  0.00  0.00    +0.000 C 
ATOM     49  N   UNL     1      -1.444  13.181 131.152  0.00  0.00    +0.000 N 
ATOM     50  O   UNL     1       0.770  12.950 130.653  0.00  0.00    +0.000 OA
ATOM     51  H   UNL     1      -2.222  13.195 131.788  0.00  0.00    +0.000 HD
ATOM     52  H   UNL     1      -1.699  13.357 130.184  0.00  0.00    +0.000 HD
ENDBRANCH  47  48
ENDBRANCH  45  47
ENDBRANCH  42  43
BRANCH  42  53
ATOM     53  C   UNL     1      -1.236   9.418 135.924  0.00  0.00    +0.000 C 
BRANCH  53  54
ATOM     54  C   UNL     1      -1.942  10.443 136.782  0.00  0.00    +0.000 C 
ATOM     55  C   UNL     1      -3.351  10.585 136.405  0.00  0.00    +0.000 C 
ATOM     56  C   UNL     1      -2.224   9.990 138.154  0.00  0.00    +0.000 C 
ENDBRANCH  53  54
ENDBRANCH  42  53
ENDBRANCH  40  42
ENDBRANCH  37  38
ENDBRANCH  15  31
BRANCH  10  57
ATOM     57  N   UNL     1      -9.655   0.442 125.571  0.00  0.00    +0.000 NA
ATOM     58  H   UNL     1     -10.695   0.362 125.541  0.00  0.00    +0.000 HD
ATOM     59  H   UNL     1      -9.294  -0.345 126.113  0.00  0.00    +0.000 HD
ENDBRANCH  10  57
BRANCH   1  60
ATOM     60  C   UNL     1      -5.963  -2.492 129.922  0.00  0.00    +0.000 C 
ATOM     61  C   UNL     1      -5.279  -4.271 131.152  0.00  0.00    +0.000 C 
BRANCH  60  63
ATOM     62  C   UNL     1      -5.042  -5.445 131.395  0.00  0.00    +0.000 C 
ATOM     63  C   UNL     1      -4.894  -4.256 130.214  0.00  0.00    +0.000 C 
ENDBRANCH  60  63
ENDBRANCH   1  60
BRANCH  19  64
ATOM     64  C   UNL     1      -7.258   0.591 130.147  0.00  0.00    +0.000 C 
BRANCH  64  65
ATOM     65  C   UNL     1      -8.483   0.864 131.018  0.00  0.00    +0.000 C 
ATOM     66  N   UNL     1      -8.819   2.153 131.218  0.00  0.00    +0.000 N 
ATOM     67  O   UNL     1      -9.265  -0.004 131.380  0.00  0.00    +0.000 OA
ATOM     68  H   UNL     1      -8.219   2.670 130.608  0.00  0.00    +0.000 HD
ATOM     69  H   UNL     1      -9.820   2.474 131.170  0.00  0.00    +0.000 HD
ENDBRANCH  64  65
ENDBRANCH  19  64
BRANCH   5  70
ATOM     70  C   UNL     1      -6.441   2.955 122.358  0.00  0.00    +0.000 C 
BRANCH  70  71
ATOM     71  C   UNL     1      -6.303   3.780 121.122  0.00  0.00    +0.000 A 
ATOM     72  C   UNL     1      -7.245   3.804 120.103  0.00  0.00    +0.000 A 
ATOM     73  C   UNL     1      -7.094   4.634 118.992  0.00  0.00    +0.000 A 
ATOM     74  C   UNL     1      -5.982   5.446 118.903  0.00  0.00    +0.000 A 
ATOM     75  C   UNL     1      -5.018   5.405 119.894  0.00  0.00    +0.000 A 
ATOM     76  C   UNL     1      -5.175   4.581 120.995  0.00  0.00    +0.000 A 
BRANCH  74  77
ATOM     77  O   UNL     1      -5.746   6.309 117.879  0.00  0.00    +0.000 OA
ATOM     78  H   UNL     1      -5.502   5.874 117.047  0.00  0.00    +0.000 HD
ENDBRANCH  74  77
ENDBRANCH  70  71
ENDBRANCH   5  70
BRANCH  23  79
ATOM     79  C   UNL     1      -6.547  -2.273 133.289  0.00  0.00    +0.000 C 
BRANCH  79  80
ATOM     80  C   UNL     1      -7.624  -3.140 133.749  0.00  0.00    +0.000 C 
BRANCH  80  81
ATOM     81  C   UNL     1      -7.545  -3.331 135.255  0.00  0.00    +0.000 C 
ATOM     82  N   UNL     1      -6.533  -4.093 135.822  0.00  0.00    +0.000 N 
ATOM     83  O   UNL     1      -8.402  -2.791 135.948  0.00  0.00    +0.000 OA
ATOM     84  H   UNL     1      -5.797  -4.574 135.316  0.00  0.00    +0.000 HD
ATOM     85  H   UNL     1      -6.475  -4.220 136.824  0.00  0.00    +0.000 HD
ENDBRANCH  80  81
ENDBRANCH  79  80
ENDBRANCH  23  79
TORSDOF 19
ENDMDL
MODEL 3
REMARK VINA RESULT:      -9.7      1.756      3.041
REMARK  Name = CHEMBL3814165
REMARK  24 active torsions:
REMARK  status: ('A' for Active; 'I' for Inactive)
REMARK    1  A    between atoms: C_1  and  C_2
REMARK    2  A    between atoms: C_2  and  C_3
REMARK    3  A    between atoms: C_3  and  C_4
REMARK    4  A    between atoms: C_3  and  C_5
REMARK    5  A    between atoms: C_9  and  C_10
REMARK    6  A    between atoms: C_10  and  C_11
REMARK    7  A    between atoms: C_14  and  O_15
REMARK    8  A    between atoms: N_18  and  C_19
REMARK    9  A    between atoms: C_22  and  N_23
REMARK   10  A    between atoms: C_28  and  C_29
REMARK   11  A    between atoms: C_35  and  C_36
REMARK   12  A    between atoms: N_38  and  C_39
REMARK   13  A    between atoms: C_39  and  C_40
REMARK   14  A    between atoms: C_39  and  C_44
REMARK   15  A    between atoms: C_40  and  C_41
REMARK   16  A    between atoms: C_41  and  C_42
REMARK   17  A    between atoms: C_41  and  C_43
REMARK   18  A    between atoms: N_46  and  C_47
REMARK   19  A    between atoms: C_47  and  C_48
REMARK   20  A    between atoms: C_54  and  C_55
REMARK   21  A    between atoms: C_55  and  C_56
REMARK   22  A    between atoms: C_62  and  C_63
REMARK   23  A    between atoms: C_63  and  C_64
REMARK   24  A    between atoms: C_64  and  C_65
REMARK                            x       y       z     vdW  Elec       q    Type
REMARK                         _______ _______ _______ _____ _____    ______ ____
ROOT
ATOM      1  C   UNL     1      -6.658  -0.764 128.033  0.00  0.00    +0.000 C 
ATOM      2  N   UNL     1      -7.129   0.478 126.130  0.00  0.00    +0.000 N 
ATOM      3  C   UNL     1      -7.460   1.851 124.468  0.00  0.00    +0.000 C 
ATOM      4  O   UNL     1      -8.175   2.557 123.066  0.00  0.00    +0.000 OA
ATOM      5  C   UNL     1      -7.338   3.569 123.494  0.00  0.00    +0.000 C 
ATOM      6  N   UNL     1      -8.603   2.924 124.577  0.00  0.00    +0.000 N 
ATOM      7  C   UNL     1      -9.371   1.415 123.534  0.00  0.00    +0.000 C 
ATOM      8  C   UNL     1      -8.498   3.559 125.736  0.00  0.00    +0.000 C 
ATOM      9  O   UNL     1      -7.619   4.423 125.785  0.00  0.00    +0.000 OA
ATOM     10  C   UNL     1      -8.902   2.438 126.643  0.00  0.00    +0.000 C 
ATOM     11  C   UNL     1      -7.741   2.061 127.550  0.00  0.00    +0.000 C 
ATOM     12  S   UNL     1      -6.785   3.555 127.973  0.00  0.00    +0.000 S 
ATOM     13  S   UNL     1      -4.995   3.014 128.653  0.00  0.00    +0.000 S 
ATOM     14  C   UNL     1      -4.374   4.109 130.191  0.00  0.00    +0.000 C 
ATOM     15  C   UNL     1      -3.432   3.468 131.160  0.00  0.00    +0.000 C 
ATOM     16  N   UNL     1      -4.107   2.560 132.150  0.00  0.00    +0.000 N 
ATOM     17  C   UNL     1      -4.788   1.422 131.880  0.00  0.00    +0.000 C 
ATOM     18  O   UNL     1      -5.287   0.801 132.799  0.00  0.00    +0.000 OA
ATOM     19  C   UNL     1      -4.960   1.007 130.424  0.00  0.00    +0.000 C 
ATOM     20  N   UNL     1      -4.357   0.032 129.692  0.00  0.00    +0.000 N 
ATOM     21  C   UNL     1      -4.677  -0.996 130.198  0.00  0.00    +0.000 C 
ATOM     22  O   UNL     1      -4.277  -2.358 129.308  0.00  0.00    +0.000 OA
ATOM     23  C   UNL     1      -6.096  -1.172 131.737  0.00  0.00    +0.000 C 
ATOM     24  N   UNL     1      -7.321  -1.945 131.128  0.00  0.00    +0.000 N 
ATOM     25  C   UNL     1      -7.441  -2.096 129.489  0.00  0.00    +0.000 C 
ATOM     26  O   UNL     1      -7.655  -3.398 129.839  0.00  0.00    +0.000 OA
ATOM     27  H   UNL     1      -7.247   1.871 125.615  0.00  0.00    +0.000 HD
ATOM     28  H   UNL     1      -4.022   2.792 133.155  0.00  0.00    +0.000 HD
ATOM     29  H   UNL     1      -3.491  -0.316 129.349  0.00  0.00    +0.000 HD
ATOM     30  H   UNL     1      -8.224  -1.656 131.208  0.00  0.00    +0.000 HD
ENDROOT
BRANCH  15  31
ATOM     31  C   UNL     1      -2.754   4.633 131.854  0.00  0.00    +0.000 C 
ATOM     32  O   UNL     1      -1.727   4.284 132.428  0.00  0.00    +0.000 OA
ATOM     33  N   UNL     1      -3.265   5.938 131.660  0.00  0.00    +0.000 N 
ATOM     34  C   UNL     1      -4.642   6.418 131.751  0.00  0.00    +0.000 C 
ATOM     35  C   UNL     1      -4.689   7.519 130.727  0.00  0.00    +0.000 C 
ATOM     36  C   UNL     1      -3.394   8.248 130.969  0.00  0.00    +0.000 C 
ATOM     37  C   UNL     1      -2.440   7.176 131.447  0.00  0.00    +0.000 C 
BRANCH  37  38
ATOM     38  C   UNL     1      -2.072   7.886 132.788  0.00  0.00    +0.000 C 
ATOM     39  O   UNL     1      -1.242   7.307 133.520  0.00  0.00    +0.000 OA
ATOM     40  N   UNL     1      -2.293   9.325 132.823  0.00  0.00    +0.000 N 
ATOM     41  H   UNL     1      -3.006   9.784 132.259  0.00  0.00    +0.000 HD
BRANCH  40  42
ATOM     42  C   UNL     1      -1.543  10.232 133.770  0.00  0.00    +0.000 C 
BRANCH  42  43
ATOM     43  C   UNL     1      -2.325  10.382 135.110  0.00  0.00    +0.000 C 
ATOM     44  O   UNL     1      -2.794  11.482 135.408  0.00  0.00    +0.000 OA
ATOM     45  N   UNL     1      -2.478   9.269 135.925  0.00  0.00    +0.000 N 
ATOM     46  H   UNL     1      -2.093   8.375 135.678  0.00  0.00    +0.000 HD
BRANCH  45  47
ATOM     47  C   UNL     1      -3.206   9.336 137.197  0.00  0.00    +0.000 C 
BRANCH  47  48
ATOM     48  C   UNL     1      -4.644   8.778 137.123  0.00  0.00    +0.000 C 
ATOM     49  N   UNL     1      -5.626   9.434 137.846  0.00  0.00    +0.000 N 
ATOM     50  O   UNL     1      -4.902   7.787 136.443  0.00  0.00    +0.000 OA
ATOM     51  H   UNL     1      -5.487  10.247 138.421  0.00  0.00    +0.000 HD
ATOM     52  H   UNL     1      -6.587   9.103 137.827  0.00  0.00    +0.000 HD
ENDBRANCH  47  48
ENDBRANCH  45  47
ENDBRANCH  42  43
BRANCH  42  53
ATOM     53  C   UNL     1      -1.275  11.627 133.193  0.00  0.00    +0.000 C 
BRANCH  53  54
ATOM     54  C   UNL     1       0.182  12.025 133.259  0.00  0.00    +0.000 C 
ATOM     55  C   UNL     1       1.064  10.857 133.184  0.00  0.00    +0.000 C 
ATOM     56  C   UNL     1       0.694  12.648 132.028  0.00  0.00    +0.000 C 
ENDBRANCH  53  54
ENDBRANCH  42  53
ENDBRANCH  40  42
ENDBRANCH  37  38
ENDBRANCH  15  31
BRANCH  10  57
ATOM     57  N   UNL     1      -9.582   1.261 125.957  0.00  0.00    +0.000 NA
ATOM     58  H   UNL     1      -8.857   0.795 125.370  0.00  0.00    +0.000 HD
ATOM     59  H   UNL     1     -10.278   1.672 125.332  0.00  0.00    +0.000 HD
ENDBRANCH  10  57
BRANCH   1  60
ATOM     60  C   UNL     1      -5.811  -2.222 129.808  0.00  0.00    +0.000 C 
ATOM     61  C   UNL     1      -5.259  -4.069 131.002  0.00  0.00    +0.000 C 
BRANCH  60  63
ATOM     62  C   UNL     1      -5.260  -5.292 131.224  0.00  0.00    +0.000 C 
ATOM     63  C   UNL     1      -5.034  -4.144 130.016  0.00  0.00    +0.000 C 
ENDBRANCH  60  63
ENDBRANCH   1  60
BRANCH  19  64
ATOM     64  C   UNL     1      -6.456   1.057 130.068  0.00  0.00    +0.000 C 
BRANCH  64  65
ATOM     65  C   UNL     1      -7.443   1.592 131.106  0.00  0.00    +0.000 C 
ATOM     66  N   UNL     1      -7.397   2.912 131.371  0.00  0.00    +0.000 N 
ATOM     67  O   UNL     1      -8.372   0.940 131.558  0.00  0.00    +0.000 OA
ATOM     68  H   UNL     1      -6.766   3.287 130.692  0.00  0.00    +0.000 HD
ATOM     69  H   UNL     1      -8.275   3.484 131.467  0.00  0.00    +0.000 HD
ENDBRANCH  64  65
ENDBRANCH  19  64
BRANCH   5  70
ATOM     70  C   UNL     1      -6.552   3.035 122.131  0.00  0.00    +0.000 C 
BRANCH  70  71
ATOM     71  C   UNL     1      -6.383   3.834 120.881  0.00  0.00    +0.000 A 
ATOM     72  C   UNL     1      -7.303   3.840 119.842  0.00  0.00    +0.000 A 
ATOM     73  C   UNL     1      -7.125   4.646 118.717  0.00  0.00    +0.000 A 
ATOM     74  C   UNL     1      -6.007   5.451 118.635  0.00  0.00    +0.000 A 
ATOM     75  C   UNL     1      -5.064   5.426 119.646  0.00  0.00    +0.000 A 
ATOM     76  C   UNL     1      -5.249   4.626 120.761  0.00  0.00    +0.000 A 
BRANCH  74  77
ATOM     77  O   UNL     1      -5.744   6.291 117.598  0.00  0.00    +0.000 OA
ATOM     78  H   UNL     1      -5.368   7.143 117.868  0.00  0.00    +0.000 HD
ENDBRANCH  74  77
ENDBRANCH  70  71
ENDBRANCH   5  70
BRANCH  23  79
ATOM     79  C   UNL     1      -5.763  -1.815 133.207  0.00  0.00    +0.000 C 
BRANCH  79  80
ATOM     80  C   UNL     1      -6.867  -2.519 133.848  0.00  0.00    +0.000 C 
BRANCH  80  81
ATOM     81  C   UNL     1      -6.377  -3.812 134.479  0.00  0.00    +0.000 C 
ATOM     82  N   UNL     1      -5.099  -3.900 135.013  0.00  0.00    +0.000 N 
ATOM     83  O   UNL     1      -7.145  -4.768 134.500  0.00  0.00    +0.000 OA
ATOM     84  H   UNL     1      -4.408  -3.158 135.026  0.00  0.00    +0.000 HD
ATOM     85  H   UNL     1      -4.770  -4.758 135.437  0.00  0.00    +0.000 HD
ENDBRANCH  80  81
ENDBRANCH  79  80
ENDBRANCH  23  79
TORSDOF 19
ENDMDL
MODEL 4
REMARK VINA RESULT:      -9.4      2.844      4.062
REMARK  Name = CHEMBL3814165
REMARK  24 active torsions:
REMARK  status: ('A' for Active; 'I' for Inactive)
REMARK    1  A    between atoms: C_1  and  C_2
REMARK    2  A    between atoms: C_2  and  C_3
REMARK    3  A    between atoms: C_3  and  C_4
REMARK    4  A    between atoms: C_3  and  C_5
REMARK    5  A    between atoms: C_9  and  C_10
REMARK    6  A    between atoms: C_10  and  C_11
REMARK    7  A    between atoms: C_14  and  O_15
REMARK    8  A    between atoms: N_18  and  C_19
REMARK    9  A    between atoms: C_22  and  N_23
REMARK   10  A    between atoms: C_28  and  C_29
REMARK   11  A    between atoms: C_35  and  C_36
REMARK   12  A    between atoms: N_38  and  C_39
REMARK   13  A    between atoms: C_39  and  C_40
REMARK   14  A    between atoms: C_39  and  C_44
REMARK   15  A    between atoms: C_40  and  C_41
REMARK   16  A    between atoms: C_41  and  C_42
REMARK   17  A    between atoms: C_41  and  C_43
REMARK   18  A    between atoms: N_46  and  C_47
REMARK   19  A    between atoms: C_47  and  C_48
REMARK   20  A    between atoms: C_54  and  C_55
REMARK   21  A    between atoms: C_55  and  C_56
REMARK   22  A    between atoms: C_62  and  C_63
REMARK   23  A    between atoms: C_63  and  C_64
REMARK   24  A    between atoms: C_64  and  C_65
REMARK                            x       y       z     vdW  Elec       q    Type
REMARK                         _______ _______ _______ _____ _____    ______ ____
ROOT
ATOM      1  C   UNL     1      -6.320  -1.099 128.798  0.00  0.00    +0.000 C 
ATOM      2  N   UNL     1      -6.619   0.146 126.863  0.00  0.00    +0.000 N 
ATOM      3  C   UNL     1      -6.908   1.530 125.201  0.00  0.00    +0.000 C 
ATOM      4  O   UNL     1      -7.383   2.130 123.656  0.00  0.00    +0.000 OA
ATOM      5  C   UNL     1      -7.116   3.300 124.341  0.00  0.00    +0.000 C 
ATOM      6  N   UNL     1      -8.333   2.148 124.959  0.00  0.00    +0.000 N 
ATOM      7  C   UNL     1      -8.186   0.612 123.705  0.00  0.00    +0.000 C 
ATOM      8  C   UNL     1      -8.799   2.634 126.101  0.00  0.00    +0.000 C 
ATOM      9  O   UNL     1      -8.332   3.724 126.438  0.00  0.00    +0.000 OA
ATOM     10  C   UNL     1      -9.032   1.340 126.817  0.00  0.00    +0.000 C 
ATOM     11  C   UNL     1      -8.131   1.253 128.039  0.00  0.00    +0.000 C 
ATOM     12  S   UNL     1      -7.924   2.915 128.764  0.00  0.00    +0.000 S 
ATOM     13  S   UNL     1      -6.339   2.908 129.968  0.00  0.00    +0.000 S 
ATOM     14  C   UNL     1      -6.617   3.948 131.638  0.00  0.00    +0.000 C 
ATOM     15  C   UNL     1      -5.836   3.535 132.847  0.00  0.00    +0.000 C 
ATOM     16  N   UNL     1      -6.409   2.342 133.559  0.00  0.00    +0.000 N 
ATOM     17  C   UNL     1      -6.539   1.087 133.071  0.00  0.00    +0.000 C 
ATOM     18  O   UNL     1      -7.034   0.228 133.776  0.00  0.00    +0.000 OA
ATOM     19  C   UNL     1      -6.123   0.821 131.630  0.00  0.00    +0.000 C 
ATOM     20  N   UNL     1      -5.032   0.195 131.112  0.00  0.00    +0.000 N 
ATOM     21  C   UNL     1      -5.106  -0.935 131.475  0.00  0.00    +0.000 C 
ATOM     22  O   UNL     1      -4.015  -1.971 130.737  0.00  0.00    +0.000 OA
ATOM     23  C   UNL     1      -6.756  -1.754 132.484  0.00  0.00    +0.000 C 
ATOM     24  N   UNL     1      -7.401  -2.804 131.507  0.00  0.00    +0.000 N 
ATOM     25  C   UNL     1      -6.977  -2.782 129.913  0.00  0.00    +0.000 C 
ATOM     26  O   UNL     1      -6.815  -4.115 130.158  0.00  0.00    +0.000 OA
ATOM     27  H   UNL     1      -7.060   1.476 126.357  0.00  0.00    +0.000 HD
ATOM     28  H   UNL     1      -6.707   2.463 134.543  0.00  0.00    +0.000 HD
ATOM     29  H   UNL     1      -4.039   0.194 131.055  0.00  0.00    +0.000 HD
ATOM     30  H   UNL     1      -8.329  -2.838 131.302  0.00  0.00    +0.000 HD
ENDROOT
BRANCH  15  31
ATOM     31  C   UNL     1      -5.841   4.763 133.736  0.00  0.00    +0.000 C 
ATOM     32  O   UNL     1      -6.312   5.739 133.157  0.00  0.00    +0.000 OA
ATOM     33  N   UNL     1      -5.462   4.630 135.092  0.00  0.00    +0.000 N 
ATOM     34  C   UNL     1      -4.295   3.967 135.668  0.00  0.00    +0.000 C 
ATOM     35  C   UNL     1      -4.809   3.452 136.985  0.00  0.00    +0.000 C 
ATOM     36  C   UNL     1      -5.611   4.617 137.502  0.00  0.00    +0.000 C 
ATOM     37  C   UNL     1      -6.141   5.294 136.257  0.00  0.00    +0.000 C 
BRANCH  37  38
ATOM     38  C   UNL     1      -5.538   6.697 136.579  0.00  0.00    +0.000 C 
ATOM     39  O   UNL     1      -4.823   7.217 135.696  0.00  0.00    +0.000 OA
ATOM     40  N   UNL     1      -6.249   7.476 137.583  0.00  0.00    +0.000 N 
ATOM     41  H   UNL     1      -6.790   7.045 138.330  0.00  0.00    +0.000 HD
BRANCH  40  42
ATOM     42  C   UNL     1      -6.159   8.983 137.646  0.00  0.00    +0.000 C 
BRANCH  42  43
ATOM     43  C   UNL     1      -5.462   9.429 138.968  0.00  0.00    +0.000 C 
ATOM     44  O   UNL     1      -4.971  10.559 139.032  0.00  0.00    +0.000 OA
ATOM     45  N   UNL     1      -5.420   8.545 140.036  0.00  0.00    +0.000 N 
ATOM     46  H   UNL     1      -5.820   7.625 139.977  0.00  0.00    +0.000 HD
BRANCH  45  47
ATOM     47  C   UNL     1      -4.785   8.900 141.310  0.00  0.00    +0.000 C 
BRANCH  47  48
ATOM     48  C   UNL     1      -5.712   9.668 142.276  0.00  0.00    +0.000 C 
ATOM     49  N   UNL     1      -5.800  11.041 142.127  0.00  0.00    +0.000 N 
ATOM     50  O   UNL     1      -6.349   9.075 143.145  0.00  0.00    +0.000 OA
ATOM     51  H   UNL     1      -5.310  11.589 141.441  0.00  0.00    +0.000 HD
ATOM     52  H   UNL     1      -6.398  11.588 142.740  0.00  0.00    +0.000 HD
ENDBRANCH  47  48
ENDBRANCH  45  47
ENDBRANCH  42  43
BRANCH  42  53
ATOM     53  C   UNL     1      -7.521   9.679 137.544  0.00  0.00    +0.000 C 
BRANCH  53  54
ATOM     54  C   UNL     1      -8.601   8.986 138.343  0.00  0.00    +0.000 C 
ATOM     55  C   UNL     1      -9.256   9.905 139.278  0.00  0.00    +0.000 C 
ATOM     56  C   UNL     1      -9.823   8.692 137.579  0.00  0.00    +0.000 C 
ENDBRANCH  53  54
ENDBRANCH  42  53
ENDBRANCH  40  42
ENDBRANCH  37  38
ENDBRANCH  15  31
BRANCH  10  57
ATOM     57  N   UNL     1      -9.027   0.099 125.934  0.00  0.00    +0.000 NA
ATOM     58  H   UNL     1      -9.788  -0.523 126.284  0.00  0.00    +0.000 HD
ATOM     59  H   UNL     1      -8.134  -0.362 126.116  0.00  0.00    +0.000 HD
ENDBRANCH  10  57
BRANCH   1  60
ATOM     60  C   UNL     1      -5.574  -2.407 130.728  0.00  0.00    +0.000 C 
ATOM     61  C   UNL     1      -4.758  -4.094 132.005  0.00  0.00    +0.000 C 
BRANCH  60  63
ATOM     62  C   UNL     1      -3.822  -4.665 132.615  0.00  0.00    +0.000 C 
ATOM     63  C   UNL     1      -4.230  -3.940 131.154  0.00  0.00    +0.000 C 
ENDBRANCH  60  63
ENDBRANCH   1  60
BRANCH  19  64
ATOM     64  C   UNL     1      -7.369   0.423 130.819  0.00  0.00    +0.000 C 
BRANCH  64  65
ATOM     65  C   UNL     1      -8.741   0.512 131.487  0.00  0.00    +0.000 C 
ATOM     66  N   UNL     1      -9.259   1.743 131.660  0.00  0.00    +0.000 N 
ATOM     67  O   UNL     1      -9.458  -0.455 131.696  0.00  0.00    +0.000 OA
ATOM     68  H   UNL     1      -8.638   2.353 131.167  0.00  0.00    +0.000 HD
ATOM     69  H   UNL     1     -10.272   1.947 131.458  0.00  0.00    +0.000 HD
ENDBRANCH  64  65
ENDBRANCH  19  64
BRANCH   5  70
ATOM     70  C   UNL     1      -5.832   3.224 123.289  0.00  0.00    +0.000 C 
BRANCH  70  71
ATOM     71  C   UNL     1      -5.747   3.973 122.000  0.00  0.00    +0.000 A 
ATOM     72  C   UNL     1      -4.742   4.884 121.705  0.00  0.00    +0.000 A 
ATOM     73  C   UNL     1      -4.677   5.519 120.464  0.00  0.00    +0.000 A 
ATOM     74  C   UNL     1      -5.634   5.235 119.511  0.00  0.00    +0.000 A 
ATOM     75  C   UNL     1      -6.661   4.356 119.806  0.00  0.00    +0.000 A 
ATOM     76  C   UNL     1      -6.718   3.729 121.038  0.00  0.00    +0.000 A 
BRANCH  74  77
ATOM     77  O   UNL     1      -5.655   5.776 118.263  0.00  0.00    +0.000 OA
ATOM     78  H   UNL     1      -6.409   5.492 117.725  0.00  0.00    +0.000 HD
ENDBRANCH  74  77
ENDBRANCH  70  71
ENDBRANCH   5  70
BRANCH  23  79
ATOM     79  C   UNL     1      -6.664  -2.429 133.974  0.00  0.00    +0.000 C 
BRANCH  79  80
ATOM     80  C   UNL     1      -7.716  -3.386 134.295  0.00  0.00    +0.000 C 
BRANCH  80  81
ATOM     81  C   UNL     1      -8.195  -3.187 135.724  0.00  0.00    +0.000 C 
ATOM     82  N   UNL     1      -9.143  -4.036 136.279  0.00  0.00    +0.000 N 
ATOM     83  O   UNL     1      -7.719  -2.255 136.365  0.00  0.00    +0.000 OA
ATOM     84  H   UNL     1      -9.585  -4.819 135.811  0.00  0.00    +0.000 HD
ATOM     85  H   UNL     1      -9.462  -3.909 137.232  0.00  0.00    +0.000 HD
ENDBRANCH  80  81
ENDBRANCH  79  80
ENDBRANCH  23  79
TORSDOF 19
ENDMDL
MODEL 5
REMARK VINA RESULT:      -9.4      1.712      3.451
REMARK  Name = CHEMBL3814165
REMARK  24 active torsions:
REMARK  status: ('A' for Active; 'I' for Inactive)
REMARK    1  A    between atoms: C_1  and  C_2
REMARK    2  A    between atoms: C_2  and  C_3
REMARK    3  A    between atoms: C_3  and  C_4
REMARK    4  A    between atoms: C_3  and  C_5
REMARK    5  A    between atoms: C_9  and  C_10
REMARK    6  A    between atoms: C_10  and  C_11
REMARK    7  A    between atoms: C_14  and  O_15
REMARK    8  A    between atoms: N_18  and  C_19
REMARK    9  A    between atoms: C_22  and  N_23
REMARK   10  A    between atoms: C_28  and  C_29
REMARK   11  A    between atoms: C_35  and  C_36
REMARK   12  A    between atoms: N_38  and  C_39
REMARK   13  A    between atoms: C_39  and  C_40
REMARK   14  A    between atoms: C_39  and  C_44
REMARK   15  A    between atoms: C_40  and  C_41
REMARK   16  A    between atoms: C_41  and  C_42
REMARK   17  A    between atoms: C_41  and  C_43
REMARK   18  A    between atoms: N_46  and  C_47
REMARK   19  A    between atoms: C_47  and  C_48
REMARK   20  A    between atoms: C_54  and  C_55
REMARK   21  A    between atoms: C_55  and  C_56
REMARK   22  A    between atoms: C_62  and  C_63
REMARK   23  A    between atoms: C_63  and  C_64
REMARK   24  A    between atoms: C_64  and  C_65
REMARK                            x       y       z     vdW  Elec       q    Type
REMARK                         _______ _______ _______ _____ _____    ______ ____
ROOT
ATOM      1  C   UNL     1      -6.794  -0.840 128.203  0.00  0.00    +0.000 C 
ATOM      2  N   UNL     1      -6.930   0.618 126.403  0.00  0.00    +0.000 N 
ATOM      3  C   UNL     1      -6.951   2.171 124.871  0.00  0.00    +0.000 C 
ATOM      4  O   UNL     1      -7.430   3.067 123.478  0.00  0.00    +0.000 OA
ATOM      5  C   UNL     1      -6.590   3.962 124.112  0.00  0.00    +0.000 C 
ATOM      6  N   UNL     1      -8.025   3.315 124.955  0.00  0.00    +0.000 N 
ATOM      7  C   UNL     1      -8.750   1.983 123.670  0.00  0.00    +0.000 C 
ATOM      8  C   UNL     1      -8.029   3.822 126.181  0.00  0.00    +0.000 C 
ATOM      9  O   UNL     1      -7.109   4.604 126.430  0.00  0.00    +0.000 OA
ATOM     10  C   UNL     1      -8.621   2.653 126.905  0.00  0.00    +0.000 C 
ATOM     11  C   UNL     1      -7.616   2.096 127.901  0.00  0.00    +0.000 C 
ATOM     12  S   UNL     1      -6.625   3.460 128.596  0.00  0.00    +0.000 S 
ATOM     13  S   UNL     1      -4.978   2.714 129.428  0.00  0.00    +0.000 S 
ATOM     14  C   UNL     1      -4.491   3.598 131.139  0.00  0.00    +0.000 C 
ATOM     15  C   UNL     1      -3.727   2.791 132.141  0.00  0.00    +0.000 C 
ATOM     16  N   UNL     1      -4.584   1.846 132.937  0.00  0.00    +0.000 N 
ATOM     17  C   UNL     1      -5.298   0.799 132.464  0.00  0.00    +0.000 C 
ATOM     18  O   UNL     1      -5.952   0.131 133.242  0.00  0.00    +0.000 OA
ATOM     19  C   UNL     1      -5.307   0.544 130.962  0.00  0.00    +0.000 C 
ATOM     20  N   UNL     1      -4.680  -0.398 130.208  0.00  0.00    +0.000 N 
ATOM     21  C   UNL     1      -5.131  -1.442 130.556  0.00  0.00    +0.000 C 
ATOM     22  O   UNL     1      -4.710  -2.737 129.580  0.00  0.00    +0.000 OA
ATOM     23  C   UNL     1      -6.745  -1.656 131.882  0.00  0.00    +0.000 C 
ATOM     24  N   UNL     1      -7.930  -2.265 131.048  0.00  0.00    +0.000 N 
ATOM     25  C   UNL     1      -7.846  -2.243 129.400  0.00  0.00    +0.000 C 
ATOM     26  O   UNL     1      -8.190  -3.552 129.578  0.00  0.00    +0.000 OA
ATOM     27  H   UNL     1      -6.889   2.060 126.031  0.00  0.00    +0.000 HD
ATOM     28  H   UNL     1      -4.614   1.971 133.964  0.00  0.00    +0.000 HD
ATOM     29  H   UNL     1      -3.802  -0.778 129.937  0.00  0.00    +0.000 HD
ATOM     30  H   UNL     1      -8.815  -1.914 131.049  0.00  0.00    +0.000 HD
ENDROOT
BRANCH  15  31
ATOM     31  C   UNL     1      -3.069   3.824 133.034  0.00  0.00    +0.000 C 
ATOM     32  O   UNL     1      -3.028   3.452 134.203  0.00  0.00    +0.000 OA
ATOM     33  N   UNL     1      -2.484   4.969 132.443  0.00  0.00    +0.000 N 
ATOM     34  C   UNL     1      -3.035   5.883 131.446  0.00  0.00    +0.000 C 
ATOM     35  C   UNL     1      -1.822   6.309 130.664  0.00  0.00    +0.000 C 
ATOM     36  C   UNL     1      -0.807   6.560 131.748  0.00  0.00    +0.000 C 
ATOM     37  C   UNL     1      -1.171   5.583 132.843  0.00  0.00    +0.000 C 
BRANCH  37  38
ATOM     38  C   UNL     1      -1.332   6.660 133.961  0.00  0.00    +0.000 C 
ATOM     39  O   UNL     1      -0.937   7.814 133.689  0.00  0.00    +0.000 OA
ATOM     40  N   UNL     1      -2.356   6.387 134.960  0.00  0.00    +0.000 N 
ATOM     41  H   UNL     1      -2.638   5.442 135.211  0.00  0.00    +0.000 HD
BRANCH  40  42
ATOM     42  C   UNL     1      -3.009   7.487 135.765  0.00  0.00    +0.000 C 
BRANCH  42  43
ATOM     43  C   UNL     1      -4.418   7.034 136.256  0.00  0.00    +0.000 C 
ATOM     44  O   UNL     1      -4.922   7.601 137.228  0.00  0.00    +0.000 OA
ATOM     45  N   UNL     1      -5.068   6.012 135.579  0.00  0.00    +0.000 N 
ATOM     46  H   UNL     1      -4.652   5.553 134.788  0.00  0.00    +0.000 HD
BRANCH  45  47
ATOM     47  C   UNL     1      -6.397   5.540 135.983  0.00  0.00    +0.000 C 
BRANCH  47  48
ATOM     48  C   UNL     1      -7.097   4.664 134.921  0.00  0.00    +0.000 C 
ATOM     49  N   UNL     1      -8.481   4.620 134.935  0.00  0.00    +0.000 N 
ATOM     50  O   UNL     1      -6.443   4.032 134.093  0.00  0.00    +0.000 OA
ATOM     51  H   UNL     1      -9.076   5.109 135.580  0.00  0.00    +0.000 HD
ATOM     52  H   UNL     1      -8.984   4.057 134.255  0.00  0.00    +0.000 HD
ENDBRANCH  47  48
ENDBRANCH  45  47
ENDBRANCH  42  43
BRANCH  42  53
ATOM     53  C   UNL     1      -3.152   8.804 134.993  0.00  0.00    +0.000 C 
BRANCH  53  54
ATOM     54  C   UNL     1      -2.556   9.985 135.725  0.00  0.00    +0.000 C 
ATOM     55  C   UNL     1      -2.414  11.149 134.846  0.00  0.00    +0.000 C 
ATOM     56  C   UNL     1      -3.481  10.646 136.659  0.00  0.00    +0.000 C 
ENDBRANCH  53  54
ENDBRANCH  42  53
ENDBRANCH  40  42
ENDBRANCH  37  38
ENDBRANCH  15  31
BRANCH  10  57
ATOM     57  N   UNL     1      -9.283   1.607 126.018  0.00  0.00    +0.000 NA
ATOM     58  H   UNL     1     -10.309   1.794 126.046  0.00  0.00    +0.000 HD
ATOM     59  H   UNL     1      -9.113   0.711 126.477  0.00  0.00    +0.000 HD
ENDBRANCH  10  57
BRANCH   1  60
ATOM     60  C   UNL     1      -6.284  -2.529 129.900  0.00  0.00    +0.000 C 
ATOM     61  C   UNL     1      -5.905  -4.522 130.914  0.00  0.00    +0.000 C 
BRANCH  60  63
ATOM     62  C   UNL     1      -5.478  -5.572 131.250  0.00  0.00    +0.000 C 
ATOM     63  C   UNL     1      -5.459  -4.439 130.007  0.00  0.00    +0.000 C 
ENDBRANCH  60  63
ENDBRANCH   1  60
BRANCH  19  64
ATOM     64  C   UNL     1      -6.737   0.749 130.433  0.00  0.00    +0.000 C 
BRANCH  64  65
ATOM     65  C   UNL     1      -7.817   1.235 131.399  0.00  0.00    +0.000 C 
ATOM     66  N   UNL     1      -7.724   2.507 131.832  0.00  0.00    +0.000 N 
ATOM     67  O   UNL     1      -8.838   0.609 131.647  0.00  0.00    +0.000 OA
ATOM     68  H   UNL     1      -6.986   2.908 131.289  0.00  0.00    +0.000 HD
ATOM     69  H   UNL     1      -8.570   3.131 131.890  0.00  0.00    +0.000 HD
ENDBRANCH  64  65
ENDBRANCH  19  64
BRANCH   5  70
ATOM     70  C   UNL     1      -5.671   3.504 122.805  0.00  0.00    +0.000 C 
BRANCH  70  71
ATOM     71  C   UNL     1      -5.773   4.107 121.443  0.00  0.00    +0.000 A 
ATOM     72  C   UNL     1      -6.745   3.755 120.517  0.00  0.00    +0.000 A 
ATOM     73  C   UNL     1      -6.831   4.387 119.276  0.00  0.00    +0.000 A 
ATOM     74  C   UNL     1      -5.926   5.381 118.962  0.00  0.00    +0.000 A 
ATOM     75  C   UNL     1      -4.930   5.715 119.861  0.00  0.00    +0.000 A 
ATOM     76  C   UNL     1      -4.853   5.086 121.092  0.00  0.00    +0.000 A 
BRANCH  74  77
ATOM     77  O   UNL     1      -5.930   6.078 117.794  0.00  0.00    +0.000 OA
ATOM     78  H   UNL     1      -5.047   6.323 117.480  0.00  0.00    +0.000 HD
ENDBRANCH  74  77
ENDBRANCH  70  71
ENDBRANCH   5  70
BRANCH  23  79
ATOM     79  C   UNL     1      -6.650  -2.466 133.304  0.00  0.00    +0.000 C 
BRANCH  79  80
ATOM     80  C   UNL     1      -7.893  -3.074 133.763  0.00  0.00    +0.000 C 
BRANCH  80  81
ATOM     81  C   UNL     1      -7.600  -4.242 134.691  0.00  0.00    +0.000 C 
ATOM     82  N   UNL     1      -8.455  -4.547 135.740  0.00  0.00    +0.000 N 
ATOM     83  O   UNL     1      -6.586  -4.902 134.480  0.00  0.00    +0.000 OA
ATOM     84  H   UNL     1      -9.303  -4.046 135.979  0.00  0.00    +0.000 HD
ATOM     85  H   UNL     1      -8.265  -5.327 136.358  0.00  0.00    +0.000 HD
ENDBRANCH  80  81
ENDBRANCH  79  80
ENDBRANCH  23  79
TORSDOF 19
ENDMDL
MODEL 6
REMARK VINA RESULT:      -9.2      1.523      2.930
REMARK  Name = CHEMBL3814165
REMARK  24 active torsions:
REMARK  status: ('A' for Active; 'I' for Inactive)
REMARK    1  A    between atoms: C_1  and  C_2
REMARK    2  A    between atoms: C_2  and  C_3
REMARK    3  A    between atoms: C_3  and  C_4
REMARK    4  A    between atoms: C_3  and  C_5
REMARK    5  A    between atoms: C_9  and  C_10
REMARK    6  A    between atoms: C_10  and  C_11
REMARK    7  A    between atoms: C_14  and  O_15
REMARK    8  A    between atoms: N_18  and  C_19
REMARK    9  A    between atoms: C_22  and  N_23
REMARK   10  A    between atoms: C_28  and  C_29
REMARK   11  A    between atoms: C_35  and  C_36
REMARK   12  A    between atoms: N_38  and  C_39
REMARK   13  A    between atoms: C_39  and  C_40
REMARK   14  A    between atoms: C_39  and  C_44
REMARK   15  A    between atoms: C_40  and  C_41
REMARK   16  A    between atoms: C_41  and  C_42
REMARK   17  A    between atoms: C_41  and  C_43
REMARK   18  A    between atoms: N_46  and  C_47
REMARK   19  A    between atoms: C_47  and  C_48
REMARK   20  A    between atoms: C_54  and  C_55
REMARK   21  A    between atoms: C_55  and  C_56
REMARK   22  A    between atoms: C_62  and  C_63
REMARK   23  A    between atoms: C_63  and  C_64
REMARK   24  A    between atoms: C_64  and  C_65
REMARK                            x       y       z     vdW  Elec       q    Type
REMARK                         _______ _______ _______ _____ _____    ______ ____
ROOT
ATOM      1  C   UNL     1      -6.789  -1.043 128.101  0.00  0.00    +0.000 C 
ATOM      2  N   UNL     1      -7.194   0.216 126.195  0.00  0.00    +0.000 N 
ATOM      3  C   UNL     1      -7.500   1.611 124.545  0.00  0.00    +0.000 C 
ATOM      4  O   UNL     1      -8.140   2.290 123.095  0.00  0.00    +0.000 OA
ATOM      5  C   UNL     1      -7.469   3.369 123.639  0.00  0.00    +0.000 C 
ATOM      6  N   UNL     1      -8.761   2.549 124.560  0.00  0.00    +0.000 N 
ATOM      7  C   UNL     1      -9.244   1.009 123.399  0.00  0.00    +0.000 C 
ATOM      8  C   UNL     1      -8.848   3.146 125.742  0.00  0.00    +0.000 C 
ATOM      9  O   UNL     1      -8.081   4.096 125.909  0.00  0.00    +0.000 OA
ATOM     10  C   UNL     1      -9.218   1.953 126.568  0.00  0.00    +0.000 C 
ATOM     11  C   UNL     1      -8.123   1.666 127.584  0.00  0.00    +0.000 C 
ATOM     12  S   UNL     1      -7.387   3.237 128.149  0.00  0.00    +0.000 S 
ATOM     13  S   UNL     1      -5.629   2.865 129.003  0.00  0.00    +0.000 S 
ATOM     14  C   UNL     1      -5.297   3.959 130.628  0.00  0.00    +0.000 C 
ATOM     15  C   UNL     1      -4.395   3.384 131.675  0.00  0.00    +0.000 C 
ATOM     16  N   UNL     1      -5.065   2.371 132.561  0.00  0.00    +0.000 N 
ATOM     17  C   UNL     1      -5.583   1.178 132.187  0.00  0.00    +0.000 C 
ATOM     18  O   UNL     1      -6.103   0.470 133.029  0.00  0.00    +0.000 OA
ATOM     19  C   UNL     1      -5.556   0.804 130.711  0.00  0.00    +0.000 C 
ATOM     20  N   UNL     1      -4.775  -0.070 130.021  0.00  0.00    +0.000 N 
ATOM     21  C   UNL     1      -5.030  -1.146 130.460  0.00  0.00    +0.000 C 
ATOM     22  O   UNL     1      -4.392  -2.421 129.581  0.00  0.00    +0.000 OA
ATOM     23  C   UNL     1      -6.573  -1.534 131.832  0.00  0.00    +0.000 C 
ATOM     24  N   UNL     1      -7.635  -2.410 131.073  0.00  0.00    +0.000 N 
ATOM     25  C   UNL     1      -7.566  -2.508 129.427  0.00  0.00    +0.000 C 
ATOM     26  O   UNL     1      -7.670  -3.838 129.715  0.00  0.00    +0.000 OA
ATOM     27  H   UNL     1      -7.412   1.607 125.709  0.00  0.00    +0.000 HD
ATOM     28  H   UNL     1      -5.111   2.571 133.575  0.00  0.00    +0.000 HD
ATOM     29  H   UNL     1      -3.845  -0.310 129.763  0.00  0.00    +0.000 HD
ATOM     30  H   UNL     1      -8.568  -2.222 131.063  0.00  0.00    +0.000 HD
ENDROOT
BRANCH  15  31
ATOM     31  C   UNL     1      -3.927   4.587 132.470  0.00  0.00    +0.000 C 
ATOM     32  O   UNL     1      -4.424   4.610 133.593  0.00  0.00    +0.000 OA
ATOM     33  N   UNL     1      -2.926   5.423 131.924  0.00  0.00    +0.000 N 
ATOM     34  C   UNL     1      -2.834   6.011 130.590  0.00  0.00    +0.000 C 
ATOM     35  C   UNL     1      -1.352   6.053 130.334  0.00  0.00    +0.000 C 
ATOM     36  C   UNL     1      -0.807   6.549 131.648  0.00  0.00    +0.000 C 
ATOM     37  C   UNL     1      -1.771   6.013 132.684  0.00  0.00    +0.000 C 
BRANCH  37  38
ATOM     38  C   UNL     1      -2.114   7.404 133.305  0.00  0.00    +0.000 C 
ATOM     39  O   UNL     1      -2.689   7.396 134.414  0.00  0.00    +0.000 OA
ATOM     40  N   UNL     1      -1.307   8.522 132.838  0.00  0.00    +0.000 N 
ATOM     41  H   UNL     1      -0.881   8.542 131.914  0.00  0.00    +0.000 HD
BRANCH  40  42
ATOM     42  C   UNL     1      -1.118   9.777 133.658  0.00  0.00    +0.000 C 
BRANCH  42  43
ATOM     43  C   UNL     1      -0.160   9.501 134.857  0.00  0.00    +0.000 C 
ATOM     44  O   UNL     1       0.141  10.432 135.607  0.00  0.00    +0.000 OA
ATOM     45  N   UNL     1       0.318   8.213 135.051  0.00  0.00    +0.000 N 
ATOM     46  H   UNL     1       0.070   7.458 134.436  0.00  0.00    +0.000 HD
BRANCH  45  47
ATOM     47  C   UNL     1       1.218   7.881 136.161  0.00  0.00    +0.000 C 
BRANCH  47  48
ATOM     48  C   UNL     1       0.488   7.406 137.435  0.00  0.00    +0.000 C 
ATOM     49  N   UNL     1       0.323   6.042 137.611  0.00  0.00    +0.000 N 
ATOM     50  O   UNL     1       0.070   8.214 138.263  0.00  0.00    +0.000 OA
ATOM     51  H   UNL     1       0.639   5.328 136.978  0.00  0.00    +0.000 HD
ATOM     52  H   UNL     1      -0.151   5.683 138.435  0.00  0.00    +0.000 HD
ENDBRANCH  47  48
ENDBRANCH  45  47
ENDBRANCH  42  43
BRANCH  42  53
ATOM     53  C   UNL     1      -2.431  10.356 134.195  0.00  0.00    +0.000 C 
BRANCH  53  54
ATOM     54  C   UNL     1      -2.668  11.785 133.762  0.00  0.00    +0.000 C 
ATOM     55  C   UNL     1      -2.252  12.739 134.794  0.00  0.00    +0.000 C 
ATOM     56  C   UNL     1      -1.719  12.274 132.749  0.00  0.00    +0.000 C 
ENDBRANCH  53  54
ENDBRANCH  42  53
ENDBRANCH  40  42
ENDBRANCH  37  38
ENDBRANCH  15  31
BRANCH  10  57
ATOM     57  N   UNL     1      -9.688   0.737 125.780  0.00  0.00    +0.000 NA
ATOM     58  H   UNL     1     -10.458   0.301 126.331  0.00  0.00    +0.000 HD
ATOM     59  H   UNL     1      -8.897   0.091 125.776  0.00  0.00    +0.000 HD
ENDBRANCH  10  57
BRANCH   1  60
ATOM     60  C   UNL     1      -5.975  -2.470 129.916  0.00  0.00    +0.000 C 
ATOM     61  C   UNL     1      -5.350  -4.294 131.111  0.00  0.00    +0.000 C 
BRANCH  60  63
ATOM     62  C   UNL     1      -5.085  -5.422 131.409  0.00  0.00    +0.000 C 
ATOM     63  C   UNL     1      -5.017  -4.305 130.153  0.00  0.00    +0.000 C 
ENDBRANCH  60  63
ENDBRANCH   1  60
BRANCH  19  64
ATOM     64  C   UNL     1      -7.003   0.708 130.196  0.00  0.00    +0.000 C 
BRANCH  64  65
ATOM     65  C   UNL     1      -8.125   1.322 131.034  0.00  0.00    +0.000 C 
ATOM     66  N   UNL     1      -9.042   0.477 131.543  0.00  0.00    +0.000 N 
ATOM     67  O   UNL     1      -8.129   2.483 131.415  0.00  0.00    +0.000 OA
ATOM     68  H   UNL     1      -8.686  -0.436 131.343  0.00  0.00    +0.000 HD
ATOM     69  H   UNL     1      -9.385   0.570 132.534  0.00  0.00    +0.000 HD
ENDBRANCH  64  65
ENDBRANCH  19  64
BRANCH   5  70
ATOM     70  C   UNL     1      -6.491   2.977 122.354  0.00  0.00    +0.000 C 
BRANCH  70  71
ATOM     71  C   UNL     1      -6.249   3.857 121.173  0.00  0.00    +0.000 A 
ATOM     72  C   UNL     1      -5.119   4.650 121.024  0.00  0.00    +0.000 A 
ATOM     73  C   UNL     1      -4.914   5.415 119.875  0.00  0.00    +0.000 A 
ATOM     74  C   UNL     1      -5.856   5.384 118.868  0.00  0.00    +0.000 A 
ATOM     75  C   UNL     1      -7.003   4.626 119.019  0.00  0.00    +0.000 A 
ATOM     76  C   UNL     1      -7.199   3.868 120.161  0.00  0.00    +0.000 A 
BRANCH  74  77
ATOM     77  O   UNL     1      -5.748   6.070 117.698  0.00  0.00    +0.000 OA
ATOM     78  H   UNL     1      -4.844   6.115 117.351  0.00  0.00    +0.000 HD
ENDBRANCH  74  77
ENDBRANCH  70  71
ENDBRANCH   5  70
BRANCH  23  79
ATOM     79  C   UNL     1      -6.326  -2.196 133.310  0.00  0.00    +0.000 C 
BRANCH  79  80
ATOM     80  C   UNL     1      -7.519  -2.359 134.131  0.00  0.00    +0.000 C 
BRANCH  80  81
ATOM     81  C   UNL     1      -7.725  -3.824 134.482  0.00  0.00    +0.000 C 
ATOM     82  N   UNL     1      -8.958  -4.282 134.925  0.00  0.00    +0.000 N 
ATOM     83  O   UNL     1      -6.768  -4.583 134.361  0.00  0.00    +0.000 OA
ATOM     84  H   UNL     1      -9.789  -3.716 135.056  0.00  0.00    +0.000 HD
ATOM     85  H   UNL     1      -9.099  -5.257 135.156  0.00  0.00    +0.000 HD
ENDBRANCH  80  81
ENDBRANCH  79  80
ENDBRANCH  23  79
TORSDOF 19
ENDMDL
MODEL 7
REMARK VINA RESULT:      -8.7      3.616     12.471
REMARK  Name = CHEMBL3814165
REMARK  24 active torsions:
REMARK  status: ('A' for Active; 'I' for Inactive)
REMARK    1  A    between atoms: C_1  and  C_2
REMARK    2  A    between atoms: C_2  and  C_3
REMARK    3  A    between atoms: C_3  and  C_4
REMARK    4  A    between atoms: C_3  and  C_5
REMARK    5  A    between atoms: C_9  and  C_10
REMARK    6  A    between atoms: C_10  and  C_11
REMARK    7  A    between atoms: C_14  and  O_15
REMARK    8  A    between atoms: N_18  and  C_19
REMARK    9  A    between atoms: C_22  and  N_23
REMARK   10  A    between atoms: C_28  and  C_29
REMARK   11  A    between atoms: C_35  and  C_36
REMARK   12  A    between atoms: N_38  and  C_39
REMARK   13  A    between atoms: C_39  and  C_40
REMARK   14  A    between atoms: C_39  and  C_44
REMARK   15  A    between atoms: C_40  and  C_41
REMARK   16  A    between atoms: C_41  and  C_42
REMARK   17  A    between atoms: C_41  and  C_43
REMARK   18  A    between atoms: N_46  and  C_47
REMARK   19  A    between atoms: C_47  and  C_48
REMARK   20  A    between atoms: C_54  and  C_55
REMARK   21  A    between atoms: C_55  and  C_56
REMARK   22  A    between atoms: C_62  and  C_63
REMARK   23  A    between atoms: C_63  and  C_64
REMARK   24  A    between atoms: C_64  and  C_65
REMARK                            x       y       z     vdW  Elec       q    Type
REMARK                         _______ _______ _______ _____ _____    ______ ____
ROOT
ATOM      1  C   UNL     1      -5.381   1.849 134.283  0.00  0.00    +0.000 C 
ATOM      2  N   UNL     1      -4.728  -0.345 134.661  0.00  0.00    +0.000 N 
ATOM      3  C   UNL     1      -4.201  -2.459 134.770  0.00  0.00    +0.000 C 
ATOM      4  O   UNL     1      -3.882  -4.017 135.437  0.00  0.00    +0.000 OA
ATOM      5  C   UNL     1      -3.994  -4.305 134.090  0.00  0.00    +0.000 C 
ATOM      6  N   UNL     1      -5.342  -3.524 134.963  0.00  0.00    +0.000 N 
ATOM      7  C   UNL     1      -4.587  -3.201 136.774  0.00  0.00    +0.000 C 
ATOM      8  C   UNL     1      -6.307  -3.294 134.083  0.00  0.00    +0.000 C 
ATOM      9  O   UNL     1      -6.076  -3.681 132.936  0.00  0.00    +0.000 OA
ATOM     10  C   UNL     1      -6.838  -2.018 134.661  0.00  0.00    +0.000 C 
ATOM     11  C   UNL     1      -6.636  -0.879 133.674  0.00  0.00    +0.000 C 
ATOM     12  S   UNL     1      -6.828  -1.504 131.971  0.00  0.00    +0.000 S 
ATOM     13  S   UNL     1      -6.019  -0.201 130.703  0.00  0.00    +0.000 S 
ATOM     14  C   UNL     1      -7.082   0.042 129.042  0.00  0.00    +0.000 C 
ATOM     15  C   UNL     1      -6.974   1.359 128.339  0.00  0.00    +0.000 C 
ATOM     16  N   UNL     1      -7.802   2.448 128.964  0.00  0.00    +0.000 N 
ATOM     17  C   UNL     1      -7.663   2.967 130.206  0.00  0.00    +0.000 C 
ATOM     18  O   UNL     1      -8.424   3.844 130.567  0.00  0.00    +0.000 OA
ATOM     19  C   UNL     1      -6.600   2.378 131.125  0.00  0.00    +0.000 C 
ATOM     20  N   UNL     1      -5.386   2.852 131.512  0.00  0.00    +0.000 N 
ATOM     21  C   UNL     1      -5.609   3.844 132.130  0.00  0.00    +0.000 C 
ATOM     22  O   UNL     1      -4.283   4.464 132.944  0.00  0.00    +0.000 OA
ATOM     23  C   UNL     1      -7.530   4.496 132.676  0.00  0.00    +0.000 C 
ATOM     24  N   UNL     1      -7.609   4.389 134.242  0.00  0.00    +0.000 N 
ATOM     25  C   UNL     1      -6.469   3.505 135.045  0.00  0.00    +0.000 C 
ATOM     26  O   UNL     1      -6.427   4.642 135.799  0.00  0.00    +0.000 OA
ATOM     27  H   UNL     1      -4.891  -1.740 134.163  0.00  0.00    +0.000 HD
ATOM     28  H   UNL     1      -8.539   2.887 128.384  0.00  0.00    +0.000 HD
ATOM     29  H   UNL     1      -4.489   3.152 131.205  0.00  0.00    +0.000 HD
ATOM     30  H   UNL     1      -8.323   3.969 134.710  0.00  0.00    +0.000 HD
ENDROOT
BRANCH  15  31
ATOM     31  C   UNL     1      -7.425   1.068 126.922  0.00  0.00    +0.000 C 
ATOM     32  O   UNL     1      -8.370   0.284 126.899  0.00  0.00    +0.000 OA
ATOM     33  N   UNL     1      -6.842   1.789 125.854  0.00  0.00    +0.000 N 
ATOM     34  C   UNL     1      -5.433   2.050 125.570  0.00  0.00    +0.000 C 
ATOM     35  C   UNL     1      -5.460   3.406 124.918  0.00  0.00    +0.000 C 
ATOM     36  C   UNL     1      -6.630   3.293 123.977  0.00  0.00    +0.000 C 
ATOM     37  C   UNL     1      -7.582   2.341 124.667  0.00  0.00    +0.000 C 
BRANCH  37  38
ATOM     38  C   UNL     1      -7.661   1.323 123.487  0.00  0.00    +0.000 C 
ATOM     39  O   UNL     1      -6.716   1.335 122.671  0.00  0.00    +0.000 OA
ATOM     40  N   UNL     1      -8.494   0.151 123.718  0.00  0.00    +0.000 N 
ATOM     41  H   UNL     1      -9.293   0.162 124.348  0.00  0.00    +0.000 HD
BRANCH  40  42
ATOM     42  C   UNL     1      -8.289  -1.144 122.966  0.00  0.00    +0.000 C 
BRANCH  42  43
ATOM     43  C   UNL     1      -8.927  -2.332 123.749  0.00  0.00    +0.000 C 
ATOM     44  O   UNL     1      -9.259  -3.345 123.130  0.00  0.00    +0.000 OA
ATOM     45  N   UNL     1      -9.097  -2.217 125.121  0.00  0.00    +0.000 N 
ATOM     46  H   UNL     1      -8.826  -1.388 125.620  0.00  0.00    +0.000 HD
BRANCH  45  47
ATOM     47  C   UNL     1      -9.686  -3.297 125.921  0.00  0.00    +0.000 C 
BRANCH  47  48
ATOM     48  C   UNL     1      -8.976  -3.531 127.271  0.00  0.00    +0.000 C 
ATOM     49  N   UNL     1      -7.786  -2.860 127.497  0.00  0.00    +0.000 N 
ATOM     50  O   UNL     1      -9.455  -4.288 128.114  0.00  0.00    +0.000 OA
ATOM     51  H   UNL     1      -7.338  -2.229 126.855  0.00  0.00    +0.000 HD
ATOM     52  H   UNL     1      -7.284  -2.984 128.371  0.00  0.00    +0.000 HD
ENDBRANCH  47  48
ENDBRANCH  45  47
ENDBRANCH  42  43
BRANCH  42  53
ATOM     53  C   UNL     1      -6.814  -1.463 122.695  0.00  0.00    +0.000 C 
BRANCH  53  54
ATOM     54  C   UNL     1      -6.184  -2.308 123.779  0.00  0.00    +0.000 C 
ATOM     55  C   UNL     1      -4.982  -2.995 123.297  0.00  0.00    +0.000 C 
ATOM     56  C   UNL     1      -5.480  -1.536 124.815  0.00  0.00    +0.000 C 
ENDBRANCH  53  54
ENDBRANCH  42  53
ENDBRANCH  40  42
ENDBRANCH  37  38
ENDBRANCH  15  31
BRANCH  10  57
ATOM     57  N   UNL     1      -6.390  -1.714 136.084  0.00  0.00    +0.000 NA
ATOM     58  H   UNL     1      -6.301  -0.677 136.157  0.00  0.00    +0.000 HD
ATOM     59  H   UNL     1      -5.456  -2.119 136.170  0.00  0.00    +0.000 HD
ENDBRANCH  10  57
BRANCH   1  60
ATOM     60  C   UNL     1      -5.639   4.235 133.799  0.00  0.00    +0.000 C 
ATOM     61  C   UNL     1      -5.478   6.493 133.936  0.00  0.00    +0.000 C 
BRANCH  60  63
ATOM     62  C   UNL     1      -3.684   6.535 135.418  0.00  0.00    +0.000 C 
ATOM     63  C   UNL     1      -4.601   6.015 134.108  0.00  0.00    +0.000 C 
ENDBRANCH  60  63
ENDBRANCH   1  60
BRANCH  19  64
ATOM     64  C   UNL     1      -7.296   1.719 132.329  0.00  0.00    +0.000 C 
BRANCH  64  65
ATOM     65  C   UNL     1      -8.797   1.442 132.251  0.00  0.00    +0.000 C 
ATOM     66  N   UNL     1      -9.612   2.292 132.905  0.00  0.00    +0.000 N 
ATOM     67  O   UNL     1      -9.297   0.624 131.493  0.00  0.00    +0.000 OA
ATOM     68  H   UNL     1      -9.014   3.032 133.214  0.00  0.00    +0.000 HD
ATOM     69  H   UNL     1     -10.502   2.645 132.469  0.00  0.00    +0.000 HD
ENDBRANCH  64  65
ENDBRANCH  19  64
BRANCH   5  70
ATOM     70  C   UNL     1      -2.362  -4.487 134.338  0.00  0.00    +0.000 C 
BRANCH  70  71
ATOM     71  C   UNL     1      -1.745  -4.963 135.612  0.00  0.00    +0.000 A 
ATOM     72  C   UNL     1      -1.893  -6.252 136.104  0.00  0.00    +0.000 A 
ATOM     73  C   UNL     1      -1.252  -6.662 137.274  0.00  0.00    +0.000 A 
ATOM     74  C   UNL     1      -0.456  -5.765 137.956  0.00  0.00    +0.000 A 
ATOM     75  C   UNL     1      -0.330  -4.467 137.496  0.00  0.00    +0.000 A 
ATOM     76  C   UNL     1      -0.967  -4.068 136.334  0.00  0.00    +0.000 A 
BRANCH  74  77
ATOM     77  O   UNL     1       0.232  -6.063 139.091  0.00  0.00    +0.000 OA
ATOM     78  H   UNL     1       0.095  -5.429 139.812  0.00  0.00    +0.000 HD
ENDBRANCH  74  77
ENDBRANCH  70  71
ENDBRANCH   5  70
BRANCH  23  79
ATOM     79  C   UNL     1      -8.157   5.942 132.229  0.00  0.00    +0.000 C 
BRANCH  79  80
ATOM     80  C   UNL     1      -9.532   6.186 132.648  0.00  0.00    +0.000 C 
BRANCH  80  81
ATOM     81  C   UNL     1     -10.463   6.166 131.447  0.00  0.00    +0.000 C 
ATOM     82  N   UNL     1     -11.287   5.075 131.205  0.00  0.00    +0.000 N 
ATOM     83  O   UNL     1     -10.462   7.141 130.702  0.00  0.00    +0.000 OA
ATOM     84  H   UNL     1     -11.338   4.233 131.769  0.00  0.00    +0.000 HD
ATOM     85  H   UNL     1     -11.911   5.059 130.408  0.00  0.00    +0.000 HD
ENDBRANCH  80  81
ENDBRANCH  79  80
ENDBRANCH  23  79
TORSDOF 19
ENDMDL
MODEL 8
REMARK VINA RESULT:      -8.5      2.447      3.010
REMARK  Name = CHEMBL3814165
REMARK  24 active torsions:
REMARK  status: ('A' for Active; 'I' for Inactive)
REMARK    1  A    between atoms: C_1  and  C_2
REMARK    2  A    between atoms: C_2  and  C_3
REMARK    3  A    between atoms: C_3  and  C_4
REMARK    4  A    between atoms: C_3  and  C_5
REMARK    5  A    between atoms: C_9  and  C_10
REMARK    6  A    between atoms: C_10  and  C_11
REMARK    7  A    between atoms: C_14  and  O_15
REMARK    8  A    between atoms: N_18  and  C_19
REMARK    9  A    between atoms: C_22  and  N_23
REMARK   10  A    between atoms: C_28  and  C_29
REMARK   11  A    between atoms: C_35  and  C_36
REMARK   12  A    between atoms: N_38  and  C_39
REMARK   13  A    between atoms: C_39  and  C_40
REMARK   14  A    between atoms: C_39  and  C_44
REMARK   15  A    between atoms: C_40  and  C_41
REMARK   16  A    between atoms: C_41  and  C_42
REMARK   17  A    between atoms: C_41  and  C_43
REMARK   18  A    between atoms: N_46  and  C_47
REMARK   19  A    between atoms: C_47  and  C_48
REMARK   20  A    between atoms: C_54  and  C_55
REMARK   21  A    between atoms: C_55  and  C_56
REMARK   22  A    between atoms: C_62  and  C_63
REMARK   23  A    between atoms: C_63  and  C_64
REMARK   24  A    between atoms: C_64  and  C_65
REMARK                            x       y       z     vdW  Elec       q    Type
REMARK                         _______ _______ _______ _____ _____    ______ ____
ROOT
ATOM      1  C   UNL     1      -6.338  -0.530 129.258  0.00  0.00    +0.000 C 
ATOM      2  N   UNL     1      -6.736   0.695 127.328  0.00  0.00    +0.000 N 
ATOM      3  C   UNL     1      -6.982   2.046 125.633  0.00  0.00    +0.000 C 
ATOM      4  O   UNL     1      -7.660   2.770 124.222  0.00  0.00    +0.000 OA
ATOM      5  C   UNL     1      -6.736   3.722 124.610  0.00  0.00    +0.000 C 
ATOM      6  N   UNL     1      -8.033   3.211 125.728  0.00  0.00    +0.000 N 
ATOM      7  C   UNL     1      -8.937   1.743 124.738  0.00  0.00    +0.000 C 
ATOM      8  C   UNL     1      -7.857   3.866 126.868  0.00  0.00    +0.000 C 
ATOM      9  O   UNL     1      -6.911   4.656 126.881  0.00  0.00    +0.000 OA
ATOM     10  C   UNL     1      -8.337   2.807 127.811  0.00  0.00    +0.000 C 
ATOM     11  C   UNL     1      -7.196   2.360 128.712  0.00  0.00    +0.000 C 
ATOM     12  S   UNL     1      -6.115   3.782 129.079  0.00  0.00    +0.000 S 
ATOM     13  S   UNL     1      -4.364   3.115 129.750  0.00  0.00    +0.000 S 
ATOM     14  C   UNL     1      -3.632   4.197 131.248  0.00  0.00    +0.000 C 
ATOM     15  C   UNL     1      -2.729   3.507 132.222  0.00  0.00    +0.000 C 
ATOM     16  N   UNL     1      -3.460   2.684 133.246  0.00  0.00    +0.000 N 
ATOM     17  C   UNL     1      -4.235   1.598 133.017  0.00  0.00    +0.000 C 
ATOM     18  O   UNL     1      -4.768   1.044 133.959  0.00  0.00    +0.000 OA
ATOM     19  C   UNL     1      -4.464   1.160 131.576  0.00  0.00    +0.000 C 
ATOM     20  N   UNL     1      -3.953   0.120 130.863  0.00  0.00    +0.000 N 
ATOM     21  C   UNL     1      -4.348  -0.865 131.401  0.00  0.00    +0.000 C 
ATOM     22  O   UNL     1      -4.074  -2.278 130.544  0.00  0.00    +0.000 OA
ATOM     23  C   UNL     1      -5.751  -0.884 132.964  0.00  0.00    +0.000 C 
ATOM     24  N   UNL     1      -7.045  -1.570 132.394  0.00  0.00    +0.000 N 
ATOM     25  C   UNL     1      -7.202  -1.754 130.761  0.00  0.00    +0.000 C 
ATOM     26  O   UNL     1      -7.516  -3.025 131.150  0.00  0.00    +0.000 OA
ATOM     27  H   UNL     1      -6.750   2.079 126.776  0.00  0.00    +0.000 HD
ATOM     28  H   UNL     1      -3.340   2.935 134.243  0.00  0.00    +0.000 HD
ATOM     29  H   UNL     1      -3.124  -0.307 130.518  0.00  0.00    +0.000 HD
ATOM     30  H   UNL     1      -7.920  -1.206 132.478  0.00  0.00    +0.000 HD
ENDROOT
BRANCH  15  31
ATOM     31  C   UNL     1      -1.949   4.631 132.873  0.00  0.00    +0.000 C 
ATOM     32  O   UNL     1      -0.812   4.716 132.418  0.00  0.00    +0.000 OA
ATOM     33  N   UNL     1      -2.614   5.496 133.773  0.00  0.00    +0.000 N 
ATOM     34  C   UNL     1      -3.483   5.171 134.902  0.00  0.00    +0.000 C 
ATOM     35  C   UNL     1      -4.458   6.317 134.924  0.00  0.00    +0.000 C 
ATOM     36  C   UNL     1      -3.566   7.510 134.704  0.00  0.00    +0.000 C 
ATOM     37  C   UNL     1      -2.441   6.988 133.838  0.00  0.00    +0.000 C 
BRANCH  37  38
ATOM     38  C   UNL     1      -1.294   7.415 134.807  0.00  0.00    +0.000 C 
ATOM     39  O   UNL     1      -0.127   7.178 134.433  0.00  0.00    +0.000 OA
ATOM     40  N   UNL     1      -1.625   8.472 135.753  0.00  0.00    +0.000 N 
ATOM     41  H   UNL     1      -2.572   8.628 136.091  0.00  0.00    +0.000 HD
BRANCH  40  42
ATOM     42  C   UNL     1      -0.569   9.357 136.373  0.00  0.00    +0.000 C 
BRANCH  42  43
ATOM     43  C   UNL     1      -0.047  10.390 135.328  0.00  0.00    +0.000 C 
ATOM     44  O   UNL     1      -0.847  10.895 134.537  0.00  0.00    +0.000 OA
ATOM     45  N   UNL     1       1.301  10.718 135.324  0.00  0.00    +0.000 N 
ATOM     46  H   UNL     1       1.949  10.302 135.970  0.00  0.00    +0.000 HD
BRANCH  45  47
ATOM     47  C   UNL     1       1.859  11.686 134.373  0.00  0.00    +0.000 C 
BRANCH  47  48
ATOM     48  C   UNL     1       1.931  13.128 134.921  0.00  0.00    +0.000 C 
ATOM     49  N   UNL     1       2.667  14.053 134.200  0.00  0.00    +0.000 N 
ATOM     50  O   UNL     1       1.352  13.438 135.960  0.00  0.00    +0.000 OA
ATOM     51  H   UNL     1       3.164  13.869 133.346  0.00  0.00    +0.000 HD
ATOM     52  H   UNL     1       2.742  15.014 134.522  0.00  0.00    +0.000 HD
ENDBRANCH  47  48
ENDBRANCH  45  47
ENDBRANCH  42  43
BRANCH  42  53
ATOM     53  C   UNL     1       0.624   8.577 136.938  0.00  0.00    +0.000 C 
BRANCH  53  54
ATOM     54  C   UNL     1       0.741   8.683 138.442  0.00  0.00    +0.000 C 
ATOM     55  C   UNL     1       1.863   9.539 138.837  0.00  0.00    +0.000 C 
ATOM     56  C   UNL     1      -0.288   9.528 139.069  0.00  0.00    +0.000 C 
ENDBRANCH  53  54
ENDBRANCH  42  53
ENDBRANCH  40  42
ENDBRANCH  37  38
ENDBRANCH  15  31
BRANCH  10  57
ATOM     57  N   UNL     1      -9.121   1.671 127.167  0.00  0.00    +0.000 NA
ATOM     58  H   UNL     1      -9.983   2.093 126.759  0.00  0.00    +0.000 HD
ATOM     59  H   UNL     1      -9.402   1.061 127.937  0.00  0.00    +0.000 HD
ENDBRANCH  10  57
BRANCH   1  60
ATOM     60  C   UNL     1      -5.583  -2.004 131.061  0.00  0.00    +0.000 C 
ATOM     61  C   UNL     1      -5.122  -3.861 132.278  0.00  0.00    +0.000 C 
BRANCH  60  63
ATOM     62  C   UNL     1      -5.076  -5.041 132.561  0.00  0.00    +0.000 C 
ATOM     63  C   UNL     1      -4.875  -3.949 131.299  0.00  0.00    +0.000 C 
ENDBRANCH  60  63
ENDBRANCH   1  60
BRANCH  19  64
ATOM     64  C   UNL     1      -5.956   1.322 131.238  0.00  0.00    +0.000 C 
BRANCH  64  65
ATOM     65  C   UNL     1      -6.884   1.941 132.284  0.00  0.00    +0.000 C 
ATOM     66  N   UNL     1      -6.758   3.263 132.509  0.00  0.00    +0.000 N 
ATOM     67  O   UNL     1      -7.836   1.355 132.778  0.00  0.00    +0.000 OA
ATOM     68  H   UNL     1      -6.125   3.583 131.804  0.00  0.00    +0.000 HD
ATOM     69  H   UNL     1      -7.600   3.887 132.610  0.00  0.00    +0.000 HD
ENDBRANCH  64  65
ENDBRANCH  19  64
BRANCH   5  70
ATOM     70  C   UNL     1      -6.018   3.090 123.252  0.00  0.00    +0.000 C 
BRANCH  70  71
ATOM     71  C   UNL     1      -5.958   3.775 121.927  0.00  0.00    +0.000 A 
ATOM     72  C   UNL     1      -6.928   3.637 120.944  0.00  0.00    +0.000 A 
ATOM     73  C   UNL     1      -6.852   4.342 119.742  0.00  0.00    +0.000 A 
ATOM     74  C   UNL     1      -5.786   5.191 119.526  0.00  0.00    +0.000 A 
ATOM     75  C   UNL     1      -4.793   5.309 120.482  0.00  0.00    +0.000 A 
ATOM     76  C   UNL     1      -4.877   4.610 121.673  0.00  0.00    +0.000 A 
BRANCH  74  77
ATOM     77  O   UNL     1      -5.623   5.942 118.404  0.00  0.00    +0.000 OA
ATOM     78  H   UNL     1      -4.695   6.114 118.177  0.00  0.00    +0.000 HD
ENDBRANCH  74  77
ENDBRANCH  70  71
ENDBRANCH   5  70
BRANCH  23  79
ATOM     79  C   UNL     1      -5.449  -1.512 134.447  0.00  0.00    +0.000 C 
BRANCH  79  80
ATOM     80  C   UNL     1      -6.585  -2.146 135.103  0.00  0.00    +0.000 C 
BRANCH  80  81
ATOM     81  C   UNL     1      -6.345  -2.244 136.601  0.00  0.00    +0.000 C 
ATOM     82  N   UNL     1      -6.134  -1.103 137.362  0.00  0.00    +0.000 N 
ATOM     83  O   UNL     1      -6.344  -3.361 137.110  0.00  0.00    +0.000 OA
ATOM     84  H   UNL     1      -6.115  -0.151 137.013  0.00  0.00    +0.000 HD
ATOM     85  H   UNL     1      -5.977  -1.164 138.361  0.00  0.00    +0.000 HD
ENDBRANCH  80  81
ENDBRANCH  79  80
ENDBRANCH  23  79
TORSDOF 19
ENDMDL
MODEL 9
REMARK VINA RESULT:      -8.5      3.919      9.944
REMARK  Name = CHEMBL3814165
REMARK  24 active torsions:
REMARK  status: ('A' for Active; 'I' for Inactive)
REMARK    1  A    between atoms: C_1  and  C_2
REMARK    2  A    between atoms: C_2  and  C_3
REMARK    3  A    between atoms: C_3  and  C_4
REMARK    4  A    between atoms: C_3  and  C_5
REMARK    5  A    between atoms: C_9  and  C_10
REMARK    6  A    between atoms: C_10  and  C_11
REMARK    7  A    between atoms: C_14  and  O_15
REMARK    8  A    between atoms: N_18  and  C_19
REMARK    9  A    between atoms: C_22  and  N_23
REMARK   10  A    between atoms: C_28  and  C_29
REMARK   11  A    between atoms: C_35  and  C_36
REMARK   12  A    between atoms: N_38  and  C_39
REMARK   13  A    between atoms: C_39  and  C_40
REMARK   14  A    between atoms: C_39  and  C_44
REMARK   15  A    between atoms: C_40  and  C_41
REMARK   16  A    between atoms: C_41  and  C_42
REMARK   17  A    between atoms: C_41  and  C_43
REMARK   18  A    between atoms: N_46  and  C_47
REMARK   19  A    between atoms: C_47  and  C_48
REMARK   20  A    between atoms: C_54  and  C_55
REMARK   21  A    between atoms: C_55  and  C_56
REMARK   22  A    between atoms: C_62  and  C_63
REMARK   23  A    between atoms: C_63  and  C_64
REMARK   24  A    between atoms: C_64  and  C_65
REMARK                            x       y       z     vdW  Elec       q    Type
REMARK                         _______ _______ _______ _____ _____    ______ ____
ROOT
ATOM      1  C   UNL     1      -6.685  -0.344 129.752  0.00  0.00    +0.000 C 
ATOM      2  N   UNL     1      -6.505  -2.055 131.309  0.00  0.00    +0.000 N 
ATOM      3  C   UNL     1      -6.320  -3.473 132.956  0.00  0.00    +0.000 C 
ATOM      4  O   UNL     1      -5.937  -4.919 133.815  0.00  0.00    +0.000 OA
ATOM      5  C   UNL     1      -6.175  -4.033 134.849  0.00  0.00    +0.000 C 
ATOM      6  N   UNL     1      -4.916  -3.685 133.631  0.00  0.00    +0.000 N 
ATOM      7  C   UNL     1      -5.120  -5.169 132.324  0.00  0.00    +0.000 C 
ATOM      8  C   UNL     1      -4.391  -2.503 133.927  0.00  0.00    +0.000 C 
ATOM      9  O   UNL     1      -4.847  -1.963 134.937  0.00  0.00    +0.000 OA
ATOM     10  C   UNL     1      -4.108  -2.029 132.535  0.00  0.00    +0.000 C 
ATOM     11  C   UNL     1      -4.939  -0.792 132.229  0.00  0.00    +0.000 C 
ATOM     12  S   UNL     1      -5.118   0.212 133.741  0.00  0.00    +0.000 S 
ATOM     13  S   UNL     1      -6.633   1.481 133.506  0.00  0.00    +0.000 S 
ATOM     14  C   UNL     1      -6.271   3.285 134.256  0.00  0.00    +0.000 C 
ATOM     15  C   UNL     1      -6.980   4.447 133.633  0.00  0.00    +0.000 C 
ATOM     16  N   UNL     1      -6.358   4.917 132.347  0.00  0.00    +0.000 N 
ATOM     17  C   UNL     1      -6.245   4.217 131.194  0.00  0.00    +0.000 C 
ATOM     18  O   UNL     1      -5.704   4.740 130.238  0.00  0.00    +0.000 OA
ATOM     19  C   UNL     1      -6.739   2.777 131.166  0.00  0.00    +0.000 C 
ATOM     20  N   UNL     1      -7.852   2.220 130.617  0.00  0.00    +0.000 N 
ATOM     21  C   UNL     1      -7.749   2.383 129.444  0.00  0.00    +0.000 C 
ATOM     22  O   UNL     1      -8.871   1.542 128.528  0.00  0.00    +0.000 OA
ATOM     23  C   UNL     1      -6.038   3.150 128.496  0.00  0.00    +0.000 C 
ATOM     24  N   UNL     1      -5.441   1.978 127.636  0.00  0.00    +0.000 N 
ATOM     25  C   UNL     1      -5.954   0.434 127.918  0.00  0.00    +0.000 C 
ATOM     26  O   UNL     1      -6.091   0.460 126.560  0.00  0.00    +0.000 OA
ATOM     27  H   UNL     1      -6.103  -2.353 132.712  0.00  0.00    +0.000 HD
ATOM     28  H   UNL     1      -6.006   5.889 132.307  0.00  0.00    +0.000 HD
ATOM     29  H   UNL     1      -8.846   2.217 130.609  0.00  0.00    +0.000 HD
ATOM     30  H   UNL     1      -4.525   1.720 127.653  0.00  0.00    +0.000 HD
ENDROOT
BRANCH  15  31
ATOM     31  C   UNL     1      -6.934   5.528 134.694  0.00  0.00    +0.000 C 
ATOM     32  O   UNL     1      -8.061   5.885 135.027  0.00  0.00    +0.000 OA
ATOM     33  N   UNL     1      -5.686   5.887 135.255  0.00  0.00    +0.000 N 
ATOM     34  C   UNL     1      -4.426   6.204 134.588  0.00  0.00    +0.000 C 
ATOM     35  C   UNL     1      -3.389   5.707 135.559  0.00  0.00    +0.000 C 
ATOM     36  C   UNL     1      -3.927   6.182 136.883  0.00  0.00    +0.000 C 
ATOM     37  C   UNL     1      -5.430   6.163 136.710  0.00  0.00    +0.000 C 
BRANCH  37  38
ATOM     38  C   UNL     1      -5.644   7.664 137.080  0.00  0.00    +0.000 C 
ATOM     39  O   UNL     1      -6.665   8.215 136.618  0.00  0.00    +0.000 OA
ATOM     40  N   UNL     1      -4.978   8.118 138.293  0.00  0.00    +0.000 N 
ATOM     41  H   UNL     1      -4.119   7.696 138.637  0.00  0.00    +0.000 HD
BRANCH  40  42
ATOM     42  C   UNL     1      -5.464   9.314 139.079  0.00  0.00    +0.000 C 
BRANCH  42  43
ATOM     43  C   UNL     1      -6.970   9.147 139.443  0.00  0.00    +0.000 C 
ATOM     44  O   UNL     1      -7.274   8.495 140.445  0.00  0.00    +0.000 OA
ATOM     45  N   UNL     1      -7.927   9.743 138.633  0.00  0.00    +0.000 N 
ATOM     46  H   UNL     1      -7.674  10.272 137.817  0.00  0.00    +0.000 HD
BRANCH  45  47
ATOM     47  C   UNL     1      -9.361   9.631 138.919  0.00  0.00    +0.000 C 
BRANCH  47  48
ATOM     48  C   UNL     1     -10.143   8.810 137.871  0.00  0.00    +0.000 C 
ATOM     49  N   UNL     1      -9.428   7.924 137.084  0.00  0.00    +0.000 N 
ATOM     50  O   UNL     1     -11.359   8.941 137.745  0.00  0.00    +0.000 OA
ATOM     51  H   UNL     1      -8.436   7.765 137.133  0.00  0.00    +0.000 HD
ATOM     52  H   UNL     1      -9.900   7.362 136.382  0.00  0.00    +0.000 HD
ENDBRANCH  47  48
ENDBRANCH  45  47
ENDBRANCH  42  43
BRANCH  42  53
ATOM     53  C   UNL     1      -5.276  10.645 138.341  0.00  0.00    +0.000 C 
BRANCH  53  54
ATOM     54  C   UNL     1      -4.907  11.785 139.263  0.00  0.00    +0.000 C 
ATOM     55  C   UNL     1      -3.853  12.625 138.687  0.00  0.00    +0.000 C 
ATOM     56  C   UNL     1      -5.908  12.862 139.321  0.00  0.00    +0.000 C 
ENDBRANCH  53  54
ENDBRANCH  42  53
ENDBRANCH  40  42
ENDBRANCH  37  38
ENDBRANCH  15  31
BRANCH  10  57
ATOM     57  N   UNL     1      -4.152  -3.107 131.460  0.00  0.00    +0.000 NA
ATOM     58  H   UNL     1      -3.168  -3.414 131.300  0.00  0.00    +0.000 HD
ATOM     59  H   UNL     1      -4.478  -2.636 130.613  0.00  0.00    +0.000 HD
ENDBRANCH  10  57
BRANCH   1  60
ATOM     60  C   UNL     1      -7.311   1.376 128.127  0.00  0.00    +0.000 C 
ATOM     61  C   UNL     1      -8.035   2.392 126.233  0.00  0.00    +0.000 C 
BRANCH  60  63
ATOM     62  C   UNL     1      -8.497   2.579 125.147  0.00  0.00    +0.000 C 
ATOM     63  C   UNL     1      -8.608   1.604 126.512  0.00  0.00    +0.000 C 
ENDBRANCH  60  63
ENDBRANCH   1  60
BRANCH  19  64
ATOM     64  C   UNL     1      -5.537   1.845 130.931  0.00  0.00    +0.000 C 
BRANCH  64  65
ATOM     65  C   UNL     1      -4.140   2.457 130.829  0.00  0.00    +0.000 C 
ATOM     66  N   UNL     1      -3.558   2.851 131.979  0.00  0.00    +0.000 N 
ATOM     67  O   UNL     1      -3.463   2.436 129.812  0.00  0.00    +0.000 OA
ATOM     68  H   UNL     1      -4.166   2.518 132.699  0.00  0.00    +0.000 HD
ATOM     69  H   UNL     1      -2.544   2.650 132.179  0.00  0.00    +0.000 HD
ENDBRANCH  64  65
ENDBRANCH  19  64
BRANCH   5  70
ATOM     70  C   UNL     1      -7.515  -5.013 134.928  0.00  0.00    +0.000 C 
BRANCH  70  71
ATOM     71  C   UNL     1      -8.628  -4.850 135.910  0.00  0.00    +0.000 A 
ATOM     72  C   UNL     1      -9.583  -5.825 136.158  0.00  0.00    +0.000 A 
ATOM     73  C   UNL     1     -10.573  -5.644 137.125  0.00  0.00    +0.000 A 
ATOM     74  C   UNL     1     -10.604  -4.468 137.846  0.00  0.00    +0.000 A 
ATOM     75  C   UNL     1      -9.680  -3.474 137.583  0.00  0.00    +0.000 A 
ATOM     76  C   UNL     1      -8.699  -3.661 136.625  0.00  0.00    +0.000 A 
BRANCH  74  77
ATOM     77  O   UNL     1     -11.507  -4.196 138.826  0.00  0.00    +0.000 OA
ATOM     78  H   UNL     1     -11.855  -4.984 139.270  0.00  0.00    +0.000 HD
ENDBRANCH  74  77
ENDBRANCH  70  71
ENDBRANCH   5  70
BRANCH  23  79
ATOM     79  C   UNL     1      -6.041   4.508 127.579  0.00  0.00    +0.000 C 
BRANCH  79  80
ATOM     80  C   UNL     1      -4.850   4.719 126.767  0.00  0.00    +0.000 C 
BRANCH  80  81
ATOM     81  C   UNL     1      -3.792   5.467 127.563  0.00  0.00    +0.000 C 
ATOM     82  N   UNL     1      -2.627   4.832 127.969  0.00  0.00    +0.000 N 
ATOM     83  O   UNL     1      -4.003   6.646 127.833  0.00  0.00    +0.000 OA
ATOM     84  H   UNL     1      -2.386   3.863 127.790  0.00  0.00    +0.000 HD
ATOM     85  H   UNL     1      -1.919   5.328 128.496  0.00  0.00    +0.000 HD
ENDBRANCH  80  81
ENDBRANCH  79  80
ENDBRANCH  23  79
TORSDOF 19
ENDMDL
