MODEL 1
REMARK VINA RESULT:      -8.8      0.000      0.000
REMARK  Name = CHEMBL1643587
REMARK  15 active torsions:
REMARK  status: ('A' for Active; 'I' for Inactive)
REMARK    1  A    between atoms: C_1  and  O_2
REMARK    2  A    between atoms: O_2  and  C_3
REMARK    3  A    between atoms: C_6  and  S_7
REMARK    4  A    between atoms: S_7  and  N_10
REMARK    5  A    between atoms: N_10  and  C_11
REMARK    6  A    between atoms: N_10  and  C_30
REMARK    7  A    between atoms: C_11  and  C_12
REMARK    8  A    between atoms: C_15  and  C_16
REMARK    9  A    between atoms: C_19  and  C_20
REMARK   10  A    between atoms: C_20  and  N_21
REMARK   11  A    between atoms: N_21  and  C_22
REMARK   12  A    between atoms: C_22  and  C_23
REMARK   13  A    between atoms: C_23  and  C_24
REMARK   14  A    between atoms: C_23  and  C_25
REMARK   15  A    between atoms: C_23  and  C_26
REMARK                            x       y       z     vdW  Elec       q    Type
REMARK                         _______ _______ _______ _____ _____    ______ ____
ROOT
ATOM      1  C   UNL     1      -7.331   1.309 127.326  0.00  0.00    +0.000 A 
ATOM      2  C   UNL     1      -6.201   2.104 127.203  0.00  0.00    +0.000 A 
ATOM      3  S   UNL     1      -6.252   3.402 128.331  0.00  0.00    +0.000 S 
ATOM      4  C   UNL     1      -7.786   2.855 128.912  0.00  0.00    +0.000 A 
ATOM      5  N   UNL     1      -8.143   1.679 128.404  0.00  0.00    +0.000 NA
ENDROOT
BRANCH   4   6
ATOM      6  C   UNL     1      -8.650   3.703 129.792  0.00  0.00    +0.000 A 
ATOM      7  C   UNL     1      -8.356   5.042 130.112  0.00  0.00    +0.000 A 
ATOM      8  C   UNL     1      -9.303   5.931 130.675  0.00  0.00    +0.000 A 
ATOM      9  C   UNL     1     -10.548   5.474 131.049  0.00  0.00    +0.000 A 
ATOM     10  C   UNL     1     -10.813   4.108 130.840  0.00  0.00    +0.000 A 
ATOM     11  C   UNL     1      -9.910   3.259 130.173  0.00  0.00    +0.000 A 
BRANCH   9  12
ATOM     12  C   UNL     1     -11.536   6.462 131.634  0.00  0.00    +0.000 C 
BRANCH  12  13
ATOM     13  N   UNL     1     -11.864   7.412 130.604  0.00  0.00    +0.000 NA
ATOM     14  H   UNL     1     -10.984   7.827 130.308  0.00  0.00    +0.000 HD
BRANCH  13  15
ATOM     15  C   UNL     1     -12.538   6.848 129.461  0.00  0.00    +0.000 C 
BRANCH  15  16
ATOM     16  C   UNL     1     -12.373   7.839 128.288  0.00  0.00    +0.000 C 
ATOM     17  C   UNL     1     -12.765   7.164 126.958  0.00  0.00    +0.000 C 
ATOM     18  C   UNL     1     -13.245   9.095 128.497  0.00  0.00    +0.000 C 
ATOM     19  C   UNL     1     -10.901   8.255 128.236  0.00  0.00    +0.000 C 
ENDBRANCH  15  16
ENDBRANCH  13  15
ENDBRANCH  12  13
ENDBRANCH   9  12
ENDBRANCH   4   6
BRANCH   1  20
ATOM     20  C   UNL     1      -7.704   0.137 126.434  0.00  0.00    +0.000 C 
BRANCH  20  21
ATOM     21  N   UNL     1      -7.555   0.292 124.917  0.00  0.00    +0.000 NA
BRANCH  21  22
ATOM     22  C   UNL     1      -7.458  -1.095 124.257  0.00  0.00    +0.000 C 
ATOM     23  C   UNL     1      -6.029  -1.638 124.126  0.00  0.00    +0.000 C 
ATOM     24  C   UNL     1      -6.219  -3.131 123.854  0.00  0.00    +0.000 C 
ATOM     25  C   UNL     1      -7.508  -3.517 124.566  0.00  0.00    +0.000 C 
ATOM     26  C   UNL     1      -8.106  -2.213 125.080  0.00  0.00    +0.000 C 
ENDBRANCH  21  22
BRANCH  21  27
ATOM     27  S   UNL     1      -8.866   1.185 124.163  0.00  0.00    +0.000 S 
ATOM     28  O   UNL     1      -9.483   1.980 125.222  0.00  0.00    +0.000 OA
ATOM     29  O   UNL     1      -9.661   0.258 123.405  0.00  0.00    +0.000 OA
BRANCH  27  33
ATOM     30  C   UNL     1      -6.996   3.740 120.864  0.00  0.00    +0.000 A 
ATOM     31  C   UNL     1      -8.398   3.590 120.956  0.00  0.00    +0.000 A 
ATOM     32  C   UNL     1      -8.988   2.896 122.026  0.00  0.00    +0.000 A 
ATOM     33  C   UNL     1      -8.161   2.234 122.931  0.00  0.00    +0.000 A 
ATOM     34  C   UNL     1      -6.779   2.384 122.846  0.00  0.00    +0.000 A 
ATOM     35  C   UNL     1      -6.219   3.219 121.885  0.00  0.00    +0.000 A 
BRANCH  30  37
ATOM     36  C   UNL     1      -5.221   5.174 120.001  0.00  0.00    +0.000 C 
ATOM     37  O   UNL     1      -6.500   4.533 119.859  0.00  0.00    +0.000 OA
ENDBRANCH  30  37
ENDBRANCH  27  33
ENDBRANCH  21  27
ENDBRANCH  20  21
ENDBRANCH   1  20
TORSDOF 11
ENDMDL
MODEL 2
REMARK VINA RESULT:      -8.8      4.465      7.363
REMARK  Name = CHEMBL1643587
REMARK  15 active torsions:
REMARK  status: ('A' for Active; 'I' for Inactive)
REMARK    1  A    between atoms: C_1  and  O_2
REMARK    2  A    between atoms: O_2  and  C_3
REMARK    3  A    between atoms: C_6  and  S_7
REMARK    4  A    between atoms: S_7  and  N_10
REMARK    5  A    between atoms: N_10  and  C_11
REMARK    6  A    between atoms: N_10  and  C_30
REMARK    7  A    between atoms: C_11  and  C_12
REMARK    8  A    between atoms: C_15  and  C_16
REMARK    9  A    between atoms: C_19  and  C_20
REMARK   10  A    between atoms: C_20  and  N_21
REMARK   11  A    between atoms: N_21  and  C_22
REMARK   12  A    between atoms: C_22  and  C_23
REMARK   13  A    between atoms: C_23  and  C_24
REMARK   14  A    between atoms: C_23  and  C_25
REMARK   15  A    between atoms: C_23  and  C_26
REMARK                            x       y       z     vdW  Elec       q    Type
REMARK                         _______ _______ _______ _____ _____    ______ ____
ROOT
ATOM      1  C   UNL     1      -8.871  -0.296 123.799  0.00  0.00    +0.000 A 
ATOM      2  C   UNL     1      -8.758  -1.365 122.924  0.00  0.00    +0.000 A 
ATOM      3  S   UNL     1      -8.420  -2.816 123.784  0.00  0.00    +0.000 S 
ATOM      4  C   UNL     1      -8.419  -1.945 125.279  0.00  0.00    +0.000 A 
ATOM      5  N   UNL     1      -8.816  -0.684 125.143  0.00  0.00    +0.000 NA
ENDROOT
BRANCH   4   6
ATOM      6  C   UNL     1      -7.894  -2.544 126.546  0.00  0.00    +0.000 A 
ATOM      7  C   UNL     1      -6.616  -2.268 127.066  0.00  0.00    +0.000 A 
ATOM      8  C   UNL     1      -6.236  -2.576 128.394  0.00  0.00    +0.000 A 
ATOM      9  C   UNL     1      -7.087  -3.283 129.215  0.00  0.00    +0.000 A 
ATOM     10  C   UNL     1      -8.325  -3.666 128.666  0.00  0.00    +0.000 A 
ATOM     11  C   UNL     1      -8.743  -3.254 127.387  0.00  0.00    +0.000 A 
BRANCH   9  12
ATOM     12  C   UNL     1      -6.645  -3.578 130.633  0.00  0.00    +0.000 C 
BRANCH  12  13
ATOM     13  N   UNL     1      -6.307  -2.325 131.254  0.00  0.00    +0.000 NA
ATOM     14  H   UNL     1      -5.801  -1.787 130.554  0.00  0.00    +0.000 HD
BRANCH  13  15
ATOM     15  C   UNL     1      -7.437  -1.562 131.721  0.00  0.00    +0.000 C 
BRANCH  15  16
ATOM     16  C   UNL     1      -7.206  -0.091 131.312  0.00  0.00    +0.000 C 
ATOM     17  C   UNL     1      -7.625   0.855 132.456  0.00  0.00    +0.000 C 
ATOM     18  C   UNL     1      -5.724   0.161 130.962  0.00  0.00    +0.000 C 
ATOM     19  C   UNL     1      -8.067   0.188 130.078  0.00  0.00    +0.000 C 
ENDBRANCH  15  16
ENDBRANCH  13  15
ENDBRANCH  12  13
ENDBRANCH   9  12
ENDBRANCH   4   6
BRANCH   1  20
ATOM     20  C   UNL     1      -9.053   1.163 123.414  0.00  0.00    +0.000 C 
BRANCH  20  21
ATOM     21  N   UNL     1      -7.929   2.152 123.738  0.00  0.00    +0.000 NA
BRANCH  21  22
ATOM     22  C   UNL     1      -7.848   3.229 122.642  0.00  0.00    +0.000 C 
ATOM     23  C   UNL     1      -6.574   3.172 121.788  0.00  0.00    +0.000 C 
ATOM     24  C   UNL     1      -6.909   4.017 120.558  0.00  0.00    +0.000 C 
ATOM     25  C   UNL     1      -8.409   3.863 120.351  0.00  0.00    +0.000 C 
ATOM     26  C   UNL     1      -8.918   3.079 121.554  0.00  0.00    +0.000 C 
ENDBRANCH  21  22
BRANCH  21  27
ATOM     27  S   UNL     1      -8.110   2.947 125.295  0.00  0.00    +0.000 S 
ATOM     28  O   UNL     1      -8.970   2.081 126.099  0.00  0.00    +0.000 OA
ATOM     29  O   UNL     1      -8.486   4.313 125.059  0.00  0.00    +0.000 OA
BRANCH  27  33
ATOM     30  C   UNL     1      -3.903   3.112 127.078  0.00  0.00    +0.000 A 
ATOM     31  C   UNL     1      -4.260   3.937 125.988  0.00  0.00    +0.000 A 
ATOM     32  C   UNL     1      -5.578   3.972 125.501  0.00  0.00    +0.000 A 
ATOM     33  C   UNL     1      -6.507   3.074 126.021  0.00  0.00    +0.000 A 
ATOM     34  C   UNL     1      -6.160   2.263 127.099  0.00  0.00    +0.000 A 
ATOM     35  C   UNL     1      -4.902   2.369 127.683  0.00  0.00    +0.000 A 
BRANCH  30  37
ATOM     36  C   UNL     1      -1.493   2.931 126.740  0.00  0.00    +0.000 C 
ATOM     37  O   UNL     1      -2.627   3.221 127.575  0.00  0.00    +0.000 OA
ENDBRANCH  30  37
ENDBRANCH  27  33
ENDBRANCH  21  27
ENDBRANCH  20  21
ENDBRANCH   1  20
TORSDOF 11
ENDMDL
MODEL 3
REMARK VINA RESULT:      -8.5      4.066     10.201
REMARK  Name = CHEMBL1643587
REMARK  15 active torsions:
REMARK  status: ('A' for Active; 'I' for Inactive)
REMARK    1  A    between atoms: C_1  and  O_2
REMARK    2  A    between atoms: O_2  and  C_3
REMARK    3  A    between atoms: C_6  and  S_7
REMARK    4  A    between atoms: S_7  and  N_10
REMARK    5  A    between atoms: N_10  and  C_11
REMARK    6  A    between atoms: N_10  and  C_30
REMARK    7  A    between atoms: C_11  and  C_12
REMARK    8  A    between atoms: C_15  and  C_16
REMARK    9  A    between atoms: C_19  and  C_20
REMARK   10  A    between atoms: C_20  and  N_21
REMARK   11  A    between atoms: N_21  and  C_22
REMARK   12  A    between atoms: C_22  and  C_23
REMARK   13  A    between atoms: C_23  and  C_24
REMARK   14  A    between atoms: C_23  and  C_25
REMARK   15  A    between atoms: C_23  and  C_26
REMARK                            x       y       z     vdW  Elec       q    Type
REMARK                         _______ _______ _______ _____ _____    ______ ____
ROOT
ATOM      1  C   UNL     1      -8.391   3.764 129.054  0.00  0.00    +0.000 A 
ATOM      2  C   UNL     1      -7.069   4.112 128.819  0.00  0.00    +0.000 A 
ATOM      3  S   UNL     1      -6.385   3.098 127.609  0.00  0.00    +0.000 S 
ATOM      4  C   UNL     1      -7.875   2.231 127.474  0.00  0.00    +0.000 A 
ATOM      5  N   UNL     1      -8.862   2.786 128.171  0.00  0.00    +0.000 NA
ENDROOT
BRANCH   4   6
ATOM      6  C   UNL     1      -7.972   0.927 126.746  0.00  0.00    +0.000 A 
ATOM      7  C   UNL     1      -7.922  -0.326 127.384  0.00  0.00    +0.000 A 
ATOM      8  C   UNL     1      -8.317  -1.532 126.758  0.00  0.00    +0.000 A 
ATOM      9  C   UNL     1      -8.663  -1.542 125.424  0.00  0.00    +0.000 A 
ATOM     10  C   UNL     1      -8.604  -0.312 124.744  0.00  0.00    +0.000 A 
ATOM     11  C   UNL     1      -8.325   0.901 125.402  0.00  0.00    +0.000 A 
BRANCH   9  12
ATOM     12  C   UNL     1      -9.093  -2.852 124.797  0.00  0.00    +0.000 C 
BRANCH  12  13
ATOM     13  N   UNL     1      -8.099  -3.216 123.823  0.00  0.00    +0.000 NA
ATOM     14  H   UNL     1      -7.917  -2.379 123.274  0.00  0.00    +0.000 HD
BRANCH  13  15
ATOM     15  C   UNL     1      -6.862  -3.702 124.380  0.00  0.00    +0.000 C 
BRANCH  15  16
ATOM     16  C   UNL     1      -5.714  -2.880 123.754  0.00  0.00    +0.000 C 
ATOM     17  C   UNL     1      -4.536  -3.803 123.381  0.00  0.00    +0.000 C 
ATOM     18  C   UNL     1      -6.193  -2.132 122.492  0.00  0.00    +0.000 C 
ATOM     19  C   UNL     1      -5.253  -1.859 124.797  0.00  0.00    +0.000 C 
ENDBRANCH  15  16
ENDBRANCH  13  15
ENDBRANCH  12  13
ENDBRANCH   9  12
ENDBRANCH   4   6
BRANCH   1  20
ATOM     20  C   UNL     1      -9.296   4.350 130.125  0.00  0.00    +0.000 C 
BRANCH  20  21
ATOM     21  N   UNL     1      -8.879   5.659 130.802  0.00  0.00    +0.000 NA
BRANCH  21  22
ATOM     22  C   UNL     1     -10.096   6.593 130.927  0.00  0.00    +0.000 C 
ATOM     23  C   UNL     1     -10.340   7.486 129.703  0.00  0.00    +0.000 C 
ATOM     24  C   UNL     1     -11.776   7.980 129.880  0.00  0.00    +0.000 C 
ATOM     25  C   UNL     1     -12.504   6.869 130.625  0.00  0.00    +0.000 C 
ATOM     26  C   UNL     1     -11.435   5.851 131.001  0.00  0.00    +0.000 C 
ENDBRANCH  21  22
BRANCH  21  27
ATOM     27  S   UNL     1      -8.172   5.440 132.395  0.00  0.00    +0.000 S 
ATOM     28  O   UNL     1      -8.230   4.008 132.676  0.00  0.00    +0.000 OA
ATOM     29  O   UNL     1      -8.792   6.375 133.293  0.00  0.00    +0.000 OA
BRANCH  27  33
ATOM     30  C   UNL     1      -3.890   7.040 132.249  0.00  0.00    +0.000 A 
ATOM     31  C   UNL     1      -4.342   6.281 133.352  0.00  0.00    +0.000 A 
ATOM     32  C   UNL     1      -5.620   5.695 133.360  0.00  0.00    +0.000 A 
ATOM     33  C   UNL     1      -6.495   5.987 132.317  0.00  0.00    +0.000 A 
ATOM     34  C   UNL     1      -6.052   6.731 131.225  0.00  0.00    +0.000 A 
ATOM     35  C   UNL     1      -4.729   7.154 131.153  0.00  0.00    +0.000 A 
BRANCH  30  37
ATOM     36  C   UNL     1      -1.548   6.685 131.666  0.00  0.00    +0.000 C 
ATOM     37  O   UNL     1      -2.589   7.478 132.261  0.00  0.00    +0.000 OA
ENDBRANCH  30  37
ENDBRANCH  27  33
ENDBRANCH  21  27
ENDBRANCH  20  21
ENDBRANCH   1  20
TORSDOF 11
ENDMDL
MODEL 4
REMARK VINA RESULT:      -8.5      2.506      3.298
REMARK  Name = CHEMBL1643587
REMARK  15 active torsions:
REMARK  status: ('A' for Active; 'I' for Inactive)
REMARK    1  A    between atoms: C_1  and  O_2
REMARK    2  A    between atoms: O_2  and  C_3
REMARK    3  A    between atoms: C_6  and  S_7
REMARK    4  A    between atoms: S_7  and  N_10
REMARK    5  A    between atoms: N_10  and  C_11
REMARK    6  A    between atoms: N_10  and  C_30
REMARK    7  A    between atoms: C_11  and  C_12
REMARK    8  A    between atoms: C_15  and  C_16
REMARK    9  A    between atoms: C_19  and  C_20
REMARK   10  A    between atoms: C_20  and  N_21
REMARK   11  A    between atoms: N_21  and  C_22
REMARK   12  A    between atoms: C_22  and  C_23
REMARK   13  A    between atoms: C_23  and  C_24
REMARK   14  A    between atoms: C_23  and  C_25
REMARK   15  A    between atoms: C_23  and  C_26
REMARK                            x       y       z     vdW  Elec       q    Type
REMARK                         _______ _______ _______ _____ _____    ______ ____
ROOT
ATOM      1  C   UNL     1      -7.388  -1.286 128.572  0.00  0.00    +0.000 A 
ATOM      2  C   UNL     1      -6.383  -1.982 129.225  0.00  0.00    +0.000 A 
ATOM      3  S   UNL     1      -6.351  -1.571 130.895  0.00  0.00    +0.000 S 
ATOM      4  C   UNL     1      -7.664  -0.469 130.663  0.00  0.00    +0.000 A 
ATOM      5  N   UNL     1      -8.192  -0.543 129.445  0.00  0.00    +0.000 NA
ENDROOT
BRANCH   4   6
ATOM      6  C   UNL     1      -8.049   0.536 131.702  0.00  0.00    +0.000 A 
ATOM      7  C   UNL     1      -7.122   1.188 132.535  0.00  0.00    +0.000 A 
ATOM      8  C   UNL     1      -7.435   2.344 133.290  0.00  0.00    +0.000 A 
ATOM      9  C   UNL     1      -8.728   2.819 133.329  0.00  0.00    +0.000 A 
ATOM     10  C   UNL     1      -9.690   2.105 132.591  0.00  0.00    +0.000 A 
ATOM     11  C   UNL     1      -9.348   1.029 131.750  0.00  0.00    +0.000 A 
BRANCH   9  12
ATOM     12  C   UNL     1      -9.016   4.067 134.138  0.00  0.00    +0.000 C 
BRANCH  12  13
ATOM     13  N   UNL     1      -9.863   4.916 133.343  0.00  0.00    +0.000 NA
ATOM     14  H   UNL     1     -10.415   5.463 134.000  0.00  0.00    +0.000 HD
BRANCH  13  15
ATOM     15  C   UNL     1      -9.159   5.803 132.452  0.00  0.00    +0.000 C 
BRANCH  15  16
ATOM     16  C   UNL     1     -10.069   6.057 131.231  0.00  0.00    +0.000 C 
ATOM     17  C   UNL     1      -9.465   7.155 130.332  0.00  0.00    +0.000 C 
ATOM     18  C   UNL     1     -10.256   4.768 130.403  0.00  0.00    +0.000 C 
ATOM     19  C   UNL     1     -11.431   6.518 131.755  0.00  0.00    +0.000 C 
ENDBRANCH  15  16
ENDBRANCH  13  15
ENDBRANCH  12  13
ENDBRANCH   9  12
ENDBRANCH   4   6
BRANCH   1  20
ATOM     20  C   UNL     1      -7.660  -1.293 127.077  0.00  0.00    +0.000 C 
BRANCH  20  21
ATOM     21  N   UNL     1      -7.035  -0.193 126.213  0.00  0.00    +0.000 NA
BRANCH  21  22
ATOM     22  C   UNL     1      -7.054  -0.616 124.734  0.00  0.00    +0.000 C 
ATOM     23  C   UNL     1      -5.888  -1.522 124.316  0.00  0.00    +0.000 C 
ATOM     24  C   UNL     1      -6.341  -2.128 122.987  0.00  0.00    +0.000 C 
ATOM     25  C   UNL     1      -7.858  -2.215 123.072  0.00  0.00    +0.000 C 
ATOM     26  C   UNL     1      -8.245  -1.508 124.365  0.00  0.00    +0.000 C 
ENDBRANCH  21  22
BRANCH  21  27
ATOM     27  S   UNL     1      -7.831   1.366 126.364  0.00  0.00    +0.000 S 
ATOM     28  O   UNL     1      -7.052   2.133 127.332  0.00  0.00    +0.000 OA
ATOM     29  O   UNL     1      -9.231   1.133 126.591  0.00  0.00    +0.000 OA
BRANCH  27  33
ATOM     30  C   UNL     1      -7.640   3.217 122.187  0.00  0.00    +0.000 A 
ATOM     31  C   UNL     1      -8.843   2.660 122.677  0.00  0.00    +0.000 A 
ATOM     32  C   UNL     1      -8.941   2.185 123.996  0.00  0.00    +0.000 A 
ATOM     33  C   UNL     1      -7.791   2.144 124.780  0.00  0.00    +0.000 A 
ATOM     34  C   UNL     1      -6.605   2.696 124.301  0.00  0.00    +0.000 A 
ATOM     35  C   UNL     1      -6.570   3.322 123.060  0.00  0.00    +0.000 A 
BRANCH  30  37
ATOM     36  C   UNL     1      -8.893   3.929 120.218  0.00  0.00    +0.000 C 
ATOM     37  O   UNL     1      -7.654   3.769 120.930  0.00  0.00    +0.000 OA
ENDBRANCH  30  37
ENDBRANCH  27  33
ENDBRANCH  21  27
ENDBRANCH  20  21
ENDBRANCH   1  20
TORSDOF 11
ENDMDL
MODEL 5
REMARK VINA RESULT:      -8.4      3.672      7.361
REMARK  Name = CHEMBL1643587
REMARK  15 active torsions:
REMARK  status: ('A' for Active; 'I' for Inactive)
REMARK    1  A    between atoms: C_1  and  O_2
REMARK    2  A    between atoms: O_2  and  C_3
REMARK    3  A    between atoms: C_6  and  S_7
REMARK    4  A    between atoms: S_7  and  N_10
REMARK    5  A    between atoms: N_10  and  C_11
REMARK    6  A    between atoms: N_10  and  C_30
REMARK    7  A    between atoms: C_11  and  C_12
REMARK    8  A    between atoms: C_15  and  C_16
REMARK    9  A    between atoms: C_19  and  C_20
REMARK   10  A    between atoms: C_20  and  N_21
REMARK   11  A    between atoms: N_21  and  C_22
REMARK   12  A    between atoms: C_22  and  C_23
REMARK   13  A    between atoms: C_23  and  C_24
REMARK   14  A    between atoms: C_23  and  C_25
REMARK   15  A    between atoms: C_23  and  C_26
REMARK                            x       y       z     vdW  Elec       q    Type
REMARK                         _______ _______ _______ _____ _____    ______ ____
ROOT
ATOM      1  C   UNL     1      -7.290  -0.335 123.970  0.00  0.00    +0.000 A 
ATOM      2  C   UNL     1      -6.553  -1.298 123.299  0.00  0.00    +0.000 A 
ATOM      3  S   UNL     1      -6.276  -2.661 124.312  0.00  0.00    +0.000 S 
ATOM      4  C   UNL     1      -7.133  -1.892 125.603  0.00  0.00    +0.000 A 
ATOM      5  N   UNL     1      -7.728  -0.763 125.229  0.00  0.00    +0.000 NA
ENDROOT
BRANCH   4   6
ATOM      6  C   UNL     1      -7.078  -2.404 127.008  0.00  0.00    +0.000 A 
ATOM      7  C   UNL     1      -5.951  -2.272 127.841  0.00  0.00    +0.000 A 
ATOM      8  C   UNL     1      -5.994  -2.469 129.242  0.00  0.00    +0.000 A 
ATOM      9  C   UNL     1      -7.146  -2.925 129.844  0.00  0.00    +0.000 A 
ATOM     10  C   UNL     1      -8.248  -3.172 129.004  0.00  0.00    +0.000 A 
ATOM     11  C   UNL     1      -8.233  -2.862 127.631  0.00  0.00    +0.000 A 
BRANCH   9  12
ATOM     12  C   UNL     1      -7.153  -3.109 131.348  0.00  0.00    +0.000 C 
BRANCH  12  13
ATOM     13  N   UNL     1      -6.867  -1.830 131.944  0.00  0.00    +0.000 NA
ATOM     14  H   UNL     1      -6.152  -1.399 131.364  0.00  0.00    +0.000 HD
BRANCH  13  15
ATOM     15  C   UNL     1      -8.002  -0.947 132.042  0.00  0.00    +0.000 C 
BRANCH  15  16
ATOM     16  C   UNL     1      -7.583   0.417 131.452  0.00  0.00    +0.000 C 
ATOM     17  C   UNL     1      -8.101   0.557 130.006  0.00  0.00    +0.000 C 
ATOM     18  C   UNL     1      -8.132   1.581 132.304  0.00  0.00    +0.000 C 
ATOM     19  C   UNL     1      -6.053   0.473 131.455  0.00  0.00    +0.000 C 
ENDBRANCH  15  16
ENDBRANCH  13  15
ENDBRANCH  12  13
ENDBRANCH   9  12
ENDBRANCH   4   6
BRANCH   1  20
ATOM     20  C   UNL     1      -7.639   1.051 123.453  0.00  0.00    +0.000 C 
BRANCH  20  21
ATOM     21  N   UNL     1      -7.057   2.271 124.174  0.00  0.00    +0.000 NA
BRANCH  21  22
ATOM     22  C   UNL     1      -6.620   3.327 123.144  0.00  0.00    +0.000 C 
ATOM     23  C   UNL     1      -5.325   4.067 123.502  0.00  0.00    +0.000 C 
ATOM     24  C   UNL     1      -4.890   4.718 122.188  0.00  0.00    +0.000 C 
ATOM     25  C   UNL     1      -5.390   3.794 121.087  0.00  0.00    +0.000 C 
ATOM     26  C   UNL     1      -6.236   2.736 121.782  0.00  0.00    +0.000 C 
ENDBRANCH  21  22
BRANCH  21  27
ATOM     27  S   UNL     1      -8.167   3.018 125.312  0.00  0.00    +0.000 S 
ATOM     28  O   UNL     1      -9.311   2.116 125.422  0.00  0.00    +0.000 OA
ATOM     29  O   UNL     1      -8.365   4.384 124.912  0.00  0.00    +0.000 OA
BRANCH  27  33
ATOM     30  C   UNL     1      -5.884   3.502 129.244  0.00  0.00    +0.000 A 
ATOM     31  C   UNL     1      -7.104   4.180 129.028  0.00  0.00    +0.000 A 
ATOM     32  C   UNL     1      -7.867   3.957 127.868  0.00  0.00    +0.000 A 
ATOM     33  C   UNL     1      -7.335   3.155 126.862  0.00  0.00    +0.000 A 
ATOM     34  C   UNL     1      -6.135   2.480 127.074  0.00  0.00    +0.000 A 
ATOM     35  C   UNL     1      -5.481   2.574 128.298  0.00  0.00    +0.000 A 
BRANCH  30  37
ATOM     36  C   UNL     1      -3.821   3.709 130.530  0.00  0.00    +0.000 C 
ATOM     37  O   UNL     1      -5.256   3.679 130.452  0.00  0.00    +0.000 OA
ENDBRANCH  30  37
ENDBRANCH  27  33
ENDBRANCH  21  27
ENDBRANCH  20  21
ENDBRANCH   1  20
TORSDOF 11
ENDMDL
MODEL 6
REMARK VINA RESULT:      -8.3      3.912      9.289
REMARK  Name = CHEMBL1643587
REMARK  15 active torsions:
REMARK  status: ('A' for Active; 'I' for Inactive)
REMARK    1  A    between atoms: C_1  and  O_2
REMARK    2  A    between atoms: O_2  and  C_3
REMARK    3  A    between atoms: C_6  and  S_7
REMARK    4  A    between atoms: S_7  and  N_10
REMARK    5  A    between atoms: N_10  and  C_11
REMARK    6  A    between atoms: N_10  and  C_30
REMARK    7  A    between atoms: C_11  and  C_12
REMARK    8  A    between atoms: C_15  and  C_16
REMARK    9  A    between atoms: C_19  and  C_20
REMARK   10  A    between atoms: C_20  and  N_21
REMARK   11  A    between atoms: N_21  and  C_22
REMARK   12  A    between atoms: C_22  and  C_23
REMARK   13  A    between atoms: C_23  and  C_24
REMARK   14  A    between atoms: C_23  and  C_25
REMARK   15  A    between atoms: C_23  and  C_26
REMARK                            x       y       z     vdW  Elec       q    Type
REMARK                         _______ _______ _______ _____ _____    ______ ____
ROOT
ATOM      1  C   UNL     1      -5.131   3.981 130.041  0.00  0.00    +0.000 A 
ATOM      2  C   UNL     1      -3.753   4.033 129.896  0.00  0.00    +0.000 A 
ATOM      3  S   UNL     1      -3.299   3.619 128.289  0.00  0.00    +0.000 S 
ATOM      4  C   UNL     1      -4.959   3.369 127.871  0.00  0.00    +0.000 A 
ATOM      5  N   UNL     1      -5.797   3.742 128.833  0.00  0.00    +0.000 NA
ENDROOT
BRANCH   4   6
ATOM      6  C   UNL     1      -5.363   2.684 126.604  0.00  0.00    +0.000 A 
ATOM      7  C   UNL     1      -5.535   1.291 126.493  0.00  0.00    +0.000 A 
ATOM      8  C   UNL     1      -6.205   0.676 125.409  0.00  0.00    +0.000 A 
ATOM      9  C   UNL     1      -6.624   1.428 124.333  0.00  0.00    +0.000 A 
ATOM     10  C   UNL     1      -6.354   2.808 124.380  0.00  0.00    +0.000 A 
ATOM     11  C   UNL     1      -5.794   3.429 125.512  0.00  0.00    +0.000 A 
BRANCH   9  12
ATOM     12  C   UNL     1      -7.350   0.730 123.201  0.00  0.00    +0.000 C 
BRANCH  12  13
ATOM     13  N   UNL     1      -7.158  -0.686 123.367  0.00  0.00    +0.000 NA
ATOM     14  H   UNL     1      -6.985  -0.836 124.359  0.00  0.00    +0.000 HD
BRANCH  13  15
ATOM     15  C   UNL     1      -8.273  -1.497 122.947  0.00  0.00    +0.000 C 
BRANCH  15  16
ATOM     16  C   UNL     1      -8.522  -2.553 124.046  0.00  0.00    +0.000 C 
ATOM     17  C   UNL     1      -7.234  -3.357 124.317  0.00  0.00    +0.000 C 
ATOM     18  C   UNL     1      -8.991  -1.887 125.357  0.00  0.00    +0.000 C 
ATOM     19  C   UNL     1      -9.617  -3.496 123.543  0.00  0.00    +0.000 C 
ENDBRANCH  15  16
ENDBRANCH  13  15
ENDBRANCH  12  13
ENDBRANCH   9  12
ENDBRANCH   4   6
BRANCH   1  20
ATOM     20  C   UNL     1      -5.905   4.171 131.335  0.00  0.00    +0.000 C 
BRANCH  20  21
ATOM     21  N   UNL     1      -7.402   4.484 131.254  0.00  0.00    +0.000 NA
BRANCH  21  22
ATOM     22  C   UNL     1      -8.206   3.385 131.971  0.00  0.00    +0.000 C 
ATOM     23  C   UNL     1      -9.446   2.904 131.207  0.00  0.00    +0.000 C 
ATOM     24  C   UNL     1      -9.811   1.580 131.881  0.00  0.00    +0.000 C 
ATOM     25  C   UNL     1      -8.496   0.994 132.373  0.00  0.00    +0.000 C 
ATOM     26  C   UNL     1      -7.442   2.065 132.122  0.00  0.00    +0.000 C 
ENDBRANCH  21  22
BRANCH  21  27
ATOM     27  S   UNL     1      -7.839   6.041 131.942  0.00  0.00    +0.000 S 
ATOM     28  O   UNL     1      -6.820   6.987 131.494  0.00  0.00    +0.000 OA
ATOM     29  O   UNL     1      -8.080   5.857 133.347  0.00  0.00    +0.000 OA
BRANCH  27  33
ATOM     30  C   UNL     1     -11.937   7.355 130.399  0.00  0.00    +0.000 A 
ATOM     31  C   UNL     1     -10.770   7.579 129.634  0.00  0.00    +0.000 A 
ATOM     32  C   UNL     1      -9.521   7.085 130.049  0.00  0.00    +0.000 A 
ATOM     33  C   UNL     1      -9.422   6.485 131.302  0.00  0.00    +0.000 A 
ATOM     34  C   UNL     1     -10.571   6.259 132.056  0.00  0.00    +0.000 A 
ATOM     35  C   UNL     1     -11.822   6.596 131.551  0.00  0.00    +0.000 A 
BRANCH  30  37
ATOM     36  C   UNL     1     -13.299   7.902 128.450  0.00  0.00    +0.000 C 
ATOM     37  O   UNL     1     -13.138   7.762 129.872  0.00  0.00    +0.000 OA
ENDBRANCH  30  37
ENDBRANCH  27  33
ENDBRANCH  21  27
ENDBRANCH  20  21
ENDBRANCH   1  20
TORSDOF 11
ENDMDL
MODEL 7
REMARK VINA RESULT:      -8.3      3.984      8.373
REMARK  Name = CHEMBL1643587
REMARK  15 active torsions:
REMARK  status: ('A' for Active; 'I' for Inactive)
REMARK    1  A    between atoms: C_1  and  O_2
REMARK    2  A    between atoms: O_2  and  C_3
REMARK    3  A    between atoms: C_6  and  S_7
REMARK    4  A    between atoms: S_7  and  N_10
REMARK    5  A    between atoms: N_10  and  C_11
REMARK    6  A    between atoms: N_10  and  C_30
REMARK    7  A    between atoms: C_11  and  C_12
REMARK    8  A    between atoms: C_15  and  C_16
REMARK    9  A    between atoms: C_19  and  C_20
REMARK   10  A    between atoms: C_20  and  N_21
REMARK   11  A    between atoms: N_21  and  C_22
REMARK   12  A    between atoms: C_22  and  C_23
REMARK   13  A    between atoms: C_23  and  C_24
REMARK   14  A    between atoms: C_23  and  C_25
REMARK   15  A    between atoms: C_23  and  C_26
REMARK                            x       y       z     vdW  Elec       q    Type
REMARK                         _______ _______ _______ _____ _____    ______ ____
ROOT
ATOM      1  C   UNL     1      -8.255   0.744 123.897  0.00  0.00    +0.000 A 
ATOM      2  C   UNL     1      -8.063  -0.399 123.136  0.00  0.00    +0.000 A 
ATOM      3  S   UNL     1      -8.179  -1.806 124.120  0.00  0.00    +0.000 S 
ATOM      4  C   UNL     1      -8.456  -0.823 125.516  0.00  0.00    +0.000 A 
ATOM      5  N   UNL     1      -8.620   0.463 125.219  0.00  0.00    +0.000 NA
ENDROOT
BRANCH   4   6
ATOM      6  C   UNL     1      -8.383  -1.377 126.903  0.00  0.00    +0.000 A 
ATOM      7  C   UNL     1      -8.583  -2.736 127.210  0.00  0.00    +0.000 A 
ATOM      8  C   UNL     1      -8.216  -3.315 128.448  0.00  0.00    +0.000 A 
ATOM      9  C   UNL     1      -7.745  -2.523 129.473  0.00  0.00    +0.000 A 
ATOM     10  C   UNL     1      -7.650  -1.143 129.216  0.00  0.00    +0.000 A 
ATOM     11  C   UNL     1      -7.904  -0.593 127.946  0.00  0.00    +0.000 A 
BRANCH   9  12
ATOM     12  C   UNL     1      -7.350  -3.185 130.777  0.00  0.00    +0.000 C 
BRANCH  12  13
ATOM     13  N   UNL     1      -5.933  -3.008 130.945  0.00  0.00    +0.000 NA
ATOM     14  H   UNL     1      -5.741  -3.162 131.932  0.00  0.00    +0.000 HD
BRANCH  13  15
ATOM     15  C   UNL     1      -5.118  -3.896 130.154  0.00  0.00    +0.000 C 
BRANCH  15  16
ATOM     16  C   UNL     1      -4.097  -3.030 129.384  0.00  0.00    +0.000 C 
ATOM     17  C   UNL     1      -4.697  -2.558 128.044  0.00  0.00    +0.000 C 
ATOM     18  C   UNL     1      -3.676  -1.799 130.215  0.00  0.00    +0.000 C 
ATOM     19  C   UNL     1      -2.864  -3.897 129.114  0.00  0.00    +0.000 C 
ENDBRANCH  15  16
ENDBRANCH  13  15
ENDBRANCH  12  13
ENDBRANCH   9  12
ENDBRANCH   4   6
BRANCH   1  20
ATOM     20  C   UNL     1      -8.118   2.178 123.414  0.00  0.00    +0.000 C 
BRANCH  20  21
ATOM     21  N   UNL     1      -7.007   3.049 124.008  0.00  0.00    +0.000 NA
BRANCH  21  22
ATOM     22  C   UNL     1      -6.448   3.992 122.928  0.00  0.00    +0.000 C 
ATOM     23  C   UNL     1      -4.940   4.255 123.031  0.00  0.00    +0.000 C 
ATOM     24  C   UNL     1      -4.567   4.838 121.668  0.00  0.00    +0.000 C 
ATOM     25  C   UNL     1      -5.533   4.208 120.674  0.00  0.00    +0.000 C 
ATOM     26  C   UNL     1      -6.534   3.419 121.508  0.00  0.00    +0.000 C 
ENDBRANCH  21  22
BRANCH  21  27
ATOM     27  S   UNL     1      -7.520   4.011 125.385  0.00  0.00    +0.000 S 
ATOM     28  O   UNL     1      -8.975   3.896 125.446  0.00  0.00    +0.000 OA
ATOM     29  O   UNL     1      -6.906   5.306 125.281  0.00  0.00    +0.000 OA
BRANCH  27  33
ATOM     30  C   UNL     1      -5.747   2.063 129.122  0.00  0.00    +0.000 A 
ATOM     31  C   UNL     1      -5.150   1.874 127.856  0.00  0.00    +0.000 A 
ATOM     32  C   UNL     1      -5.623   2.552 126.719  0.00  0.00    +0.000 A 
ATOM     33  C   UNL     1      -6.783   3.316 126.830  0.00  0.00    +0.000 A 
ATOM     34  C   UNL     1      -7.370   3.507 128.078  0.00  0.00    +0.000 A 
ATOM     35  C   UNL     1      -6.787   2.972 129.221  0.00  0.00    +0.000 A 
BRANCH  30  37
ATOM     36  C   UNL     1      -5.103   2.136 131.474  0.00  0.00    +0.000 C 
ATOM     37  O   UNL     1      -5.156   1.461 130.206  0.00  0.00    +0.000 OA
ENDBRANCH  30  37
ENDBRANCH  27  33
ENDBRANCH  21  27
ENDBRANCH  20  21
ENDBRANCH   1  20
TORSDOF 11
ENDMDL
MODEL 8
REMARK VINA RESULT:      -8.2      4.389      8.491
REMARK  Name = CHEMBL1643587
REMARK  15 active torsions:
REMARK  status: ('A' for Active; 'I' for Inactive)
REMARK    1  A    between atoms: C_1  and  O_2
REMARK    2  A    between atoms: O_2  and  C_3
REMARK    3  A    between atoms: C_6  and  S_7
REMARK    4  A    between atoms: S_7  and  N_10
REMARK    5  A    between atoms: N_10  and  C_11
REMARK    6  A    between atoms: N_10  and  C_30
REMARK    7  A    between atoms: C_11  and  C_12
REMARK    8  A    between atoms: C_15  and  C_16
REMARK    9  A    between atoms: C_19  and  C_20
REMARK   10  A    between atoms: C_20  and  N_21
REMARK   11  A    between atoms: N_21  and  C_22
REMARK   12  A    between atoms: C_22  and  C_23
REMARK   13  A    between atoms: C_23  and  C_24
REMARK   14  A    between atoms: C_23  and  C_25
REMARK   15  A    between atoms: C_23  and  C_26
REMARK                            x       y       z     vdW  Elec       q    Type
REMARK                         _______ _______ _______ _____ _____    ______ ____
ROOT
ATOM      1  C   UNL     1      -8.967   0.224 123.506  0.00  0.00    +0.000 A 
ATOM      2  C   UNL     1      -9.150  -0.826 122.619  0.00  0.00    +0.000 A 
ATOM      3  S   UNL     1      -9.002  -2.335 123.430  0.00  0.00    +0.000 S 
ATOM      4  C   UNL     1      -8.677  -1.518 124.920  0.00  0.00    +0.000 A 
ATOM      5  N   UNL     1      -8.843  -0.201 124.834  0.00  0.00    +0.000 NA
ENDROOT
BRANCH   4   6
ATOM      6  C   UNL     1      -8.143  -2.236 126.119  0.00  0.00    +0.000 A 
ATOM      7  C   UNL     1      -6.833  -2.069 126.606  0.00  0.00    +0.000 A 
ATOM      8  C   UNL     1      -6.424  -2.494 127.893  0.00  0.00    +0.000 A 
ATOM      9  C   UNL     1      -7.285  -3.212 128.694  0.00  0.00    +0.000 A 
ATOM     10  C   UNL     1      -8.562  -3.486 128.170  0.00  0.00    +0.000 A 
ATOM     11  C   UNL     1      -9.000  -2.959 126.940  0.00  0.00    +0.000 A 
BRANCH   9  12
ATOM     12  C   UNL     1      -6.810  -3.635 130.069  0.00  0.00    +0.000 C 
BRANCH  12  13
ATOM     13  N   UNL     1      -5.938  -2.603 130.565  0.00  0.00    +0.000 NA
ATOM     14  H   UNL     1      -6.256  -1.734 130.143  0.00  0.00    +0.000 HD
BRANCH  13  15
ATOM     15  C   UNL     1      -5.928  -2.464 132.000  0.00  0.00    +0.000 C 
BRANCH  15  16
ATOM     16  C   UNL     1      -4.517  -2.853 132.495  0.00  0.00    +0.000 C 
ATOM     17  C   UNL     1      -4.129  -2.006 133.724  0.00  0.00    +0.000 C 
ATOM     18  C   UNL     1      -4.455  -4.349 132.869  0.00  0.00    +0.000 C 
ATOM     19  C   UNL     1      -3.534  -2.580 131.355  0.00  0.00    +0.000 C 
ENDBRANCH  15  16
ENDBRANCH  13  15
ENDBRANCH  12  13
ENDBRANCH   9  12
ENDBRANCH   4   6
BRANCH   1  20
ATOM     20  C   UNL     1      -8.910   1.700 123.151  0.00  0.00    +0.000 C 
BRANCH  20  21
ATOM     21  N   UNL     1      -7.629   2.481 123.462  0.00  0.00    +0.000 NA
BRANCH  21  22
ATOM     22  C   UNL     1      -7.325   3.462 122.316  0.00  0.00    +0.000 C 
ATOM     23  C   UNL     1      -6.082   3.107 121.490  0.00  0.00    +0.000 C 
ATOM     24  C   UNL     1      -6.230   3.938 120.215  0.00  0.00    +0.000 C 
ATOM     25  C   UNL     1      -7.728   4.079 119.988  0.00  0.00    +0.000 C 
ATOM     26  C   UNL     1      -8.394   3.476 121.218  0.00  0.00    +0.000 C 
ENDBRANCH  21  22
BRANCH  21  27
ATOM     27  S   UNL     1      -7.695   3.379 124.970  0.00  0.00    +0.000 S 
ATOM     28  O   UNL     1      -9.112   3.578 125.268  0.00  0.00    +0.000 OA
ATOM     29  O   UNL     1      -6.819   4.512 124.855  0.00  0.00    +0.000 OA
BRANCH  27  33
ATOM     30  C   UNL     1      -5.632   0.979 128.270  0.00  0.00    +0.000 A 
ATOM     31  C   UNL     1      -6.980   1.381 128.403  0.00  0.00    +0.000 A 
ATOM     32  C   UNL     1      -7.655   2.026 127.352  0.00  0.00    +0.000 A 
ATOM     33  C   UNL     1      -6.934   2.389 126.217  0.00  0.00    +0.000 A 
ATOM     34  C   UNL     1      -5.607   1.989 126.081  0.00  0.00    +0.000 A 
ATOM     35  C   UNL     1      -5.006   1.199 127.054  0.00  0.00    +0.000 A 
BRANCH  30  37
ATOM     36  C   UNL     1      -4.433   0.909 130.393  0.00  0.00    +0.000 C 
ATOM     37  O   UNL     1      -5.076   0.248 129.291  0.00  0.00    +0.000 OA
ENDBRANCH  30  37
ENDBRANCH  27  33
ENDBRANCH  21  27
ENDBRANCH  20  21
ENDBRANCH   1  20
TORSDOF 11
ENDMDL
MODEL 9
REMARK VINA RESULT:      -8.2      7.019     10.462
REMARK  Name = CHEMBL1643587
REMARK  15 active torsions:
REMARK  status: ('A' for Active; 'I' for Inactive)
REMARK    1  A    between atoms: C_1  and  O_2
REMARK    2  A    between atoms: O_2  and  C_3
REMARK    3  A    between atoms: C_6  and  S_7
REMARK    4  A    between atoms: S_7  and  N_10
REMARK    5  A    between atoms: N_10  and  C_11
REMARK    6  A    between atoms: N_10  and  C_30
REMARK    7  A    between atoms: C_11  and  C_12
REMARK    8  A    between atoms: C_15  and  C_16
REMARK    9  A    between atoms: C_19  and  C_20
REMARK   10  A    between atoms: C_20  and  N_21
REMARK   11  A    between atoms: N_21  and  C_22
REMARK   12  A    between atoms: C_22  and  C_23
REMARK   13  A    between atoms: C_23  and  C_24
REMARK   14  A    between atoms: C_23  and  C_25
REMARK   15  A    between atoms: C_23  and  C_26
REMARK                            x       y       z     vdW  Elec       q    Type
REMARK                         _______ _______ _______ _____ _____    ______ ____
ROOT
ATOM      1  C   UNL     1      -5.515   5.987 130.488  0.00  0.00    +0.000 A 
ATOM      2  C   UNL     1      -4.803   5.368 129.473  0.00  0.00    +0.000 A 
ATOM      3  S   UNL     1      -3.111   5.570 129.713  0.00  0.00    +0.000 S 
ATOM      4  C   UNL     1      -3.411   6.493 131.145  0.00  0.00    +0.000 A 
ATOM      5  N   UNL     1      -4.692   6.495 131.500  0.00  0.00    +0.000 NA
ENDROOT
BRANCH   4   6
ATOM      6  C   UNL     1      -2.339   7.297 131.810  0.00  0.00    +0.000 A 
ATOM      7  C   UNL     1      -2.569   8.540 132.429  0.00  0.00    +0.000 A 
ATOM      8  C   UNL     1      -1.647   9.149 133.314  0.00  0.00    +0.000 A 
ATOM      9  C   UNL     1      -0.405   8.589 133.517  0.00  0.00    +0.000 A 
ATOM     10  C   UNL     1      -0.119   7.405 132.812  0.00  0.00    +0.000 A 
ATOM     11  C   UNL     1      -1.083   6.744 132.027  0.00  0.00    +0.000 A 
BRANCH   9  12
ATOM     12  C   UNL     1       0.545   9.266 134.483  0.00  0.00    +0.000 C 
BRANCH  12  13
ATOM     13  N   UNL     1       0.497  10.680 134.223  0.00  0.00    +0.000 NA
ATOM     14  H   UNL     1       0.886  11.135 135.045  0.00  0.00    +0.000 HD
BRANCH  13  15
ATOM     15  C   UNL     1       1.226  11.100 133.052  0.00  0.00    +0.000 C 
BRANCH  15  16
ATOM     16  C   UNL     1       0.817  12.557 132.746  0.00  0.00    +0.000 C 
ATOM     17  C   UNL     1       0.818  12.805 131.223  0.00  0.00    +0.000 C 
ATOM     18  C   UNL     1      -0.585  12.869 133.311  0.00  0.00    +0.000 C 
ATOM     19  C   UNL     1       1.842  13.477 133.414  0.00  0.00    +0.000 C 
ENDBRANCH  15  16
ENDBRANCH  13  15
ENDBRANCH  12  13
ENDBRANCH   9  12
ENDBRANCH   4   6
BRANCH   1  20
ATOM     20  C   UNL     1      -7.027   6.126 130.568  0.00  0.00    +0.000 C 
BRANCH  20  21
ATOM     21  N   UNL     1      -7.872   4.857 130.721  0.00  0.00    +0.000 NA
BRANCH  21  22
ATOM     22  C   UNL     1      -8.503   4.816 132.123  0.00  0.00    +0.000 C 
ATOM     23  C   UNL     1      -8.247   3.516 132.898  0.00  0.00    +0.000 C 
ATOM     24  C   UNL     1      -8.586   3.870 134.346  0.00  0.00    +0.000 C 
ATOM     25  C   UNL     1      -8.261   5.350 134.494  0.00  0.00    +0.000 C 
ATOM     26  C   UNL     1      -7.909   5.841 133.095  0.00  0.00    +0.000 C 
ENDBRANCH  21  22
BRANCH  21  27
ATOM     27  S   UNL     1      -9.149   4.708 129.523  0.00  0.00    +0.000 S 
ATOM     28  O   UNL     1      -9.780   3.411 129.757  0.00  0.00    +0.000 OA
ATOM     29  O   UNL     1      -8.592   5.015 128.235  0.00  0.00    +0.000 OA
BRANCH  27  33
ATOM     30  C   UNL     1     -12.237   8.033 130.087  0.00  0.00    +0.000 A 
ATOM     31  C   UNL     1     -12.271   6.870 130.889  0.00  0.00    +0.000 A 
ATOM     32  C   UNL     1     -11.266   5.892 130.798  0.00  0.00    +0.000 A 
ATOM     33  C   UNL     1     -10.300   6.016 129.802  0.00  0.00    +0.000 A 
ATOM     34  C   UNL     1     -10.261   7.163 129.013  0.00  0.00    +0.000 A 
ATOM     35  C   UNL     1     -11.158   8.202 129.236  0.00  0.00    +0.000 A 
BRANCH  30  37
ATOM     36  C   UNL     1     -13.155  10.237 129.586  0.00  0.00    +0.000 C 
ATOM     37  O   UNL     1     -13.185   8.999 130.317  0.00  0.00    +0.000 OA
ENDBRANCH  30  37
ENDBRANCH  27  33
ENDBRANCH  21  27
ENDBRANCH  20  21
ENDBRANCH   1  20
TORSDOF 11
ENDMDL
