MODEL 1
REMARK VINA RESULT:      -7.4      0.000      0.000
REMARK  Name = CHEMBL1094002
REMARK  9 active torsions:
REMARK  status: ('A' for Active; 'I' for Inactive)
REMARK    1  A    between atoms: C_1  and  C_2
REMARK    2  A    between atoms: C_2  and  N_3
REMARK    3  A    between atoms: N_3  and  C_21
REMARK    4  A    between atoms: C_4  and  C_6
REMARK    5  A    between atoms: C_9  and  C_10
REMARK    6  A    between atoms: C_13  and  C_14
REMARK    7  A    between atoms: C_17  and  C_18
REMARK    8  A    between atoms: C_24  and  O_25
REMARK    9  A    between atoms: O_25  and  C_26
REMARK                            x       y       z     vdW  Elec       q    Type
REMARK                         _______ _______ _______ _____ _____    ______ ____
ROOT
ATOM      1  C   UNL     1      -9.390   2.835 131.211  0.00  0.00    +0.000 A 
ATOM      2  C   UNL     1      -8.056   2.593 130.923  0.00  0.00    +0.000 A 
ATOM      3  N   UNL     1      -7.462   1.367 131.072  0.00  0.00    +0.000 NA
ATOM      4  C   UNL     1      -8.202   0.414 131.693  0.00  0.00    +0.000 A 
ATOM      5  C   UNL     1      -9.476   0.737 132.154  0.00  0.00    +0.000 A 
ATOM      6  N   UNL     1     -10.120   1.908 131.883  0.00  0.00    +0.000 NA
ENDROOT
BRANCH   4   7
ATOM      7  C   UNL     1      -7.566  -0.905 131.910  0.00  0.00    +0.000 A 
ATOM      8  C   UNL     1      -6.999  -1.192 133.166  0.00  0.00    +0.000 A 
ATOM      9  C   UNL     1      -6.275  -2.366 133.400  0.00  0.00    +0.000 A 
ATOM     10  C   UNL     1      -6.212  -3.352 132.419  0.00  0.00    +0.000 A 
ATOM     11  C   UNL     1      -6.892  -3.157 131.214  0.00  0.00    +0.000 A 
ATOM     12  C   UNL     1      -7.493  -1.914 130.915  0.00  0.00    +0.000 A 
ATOM     13  C   UNL     1      -7.974  -1.664 129.509  0.00  0.00    +0.000 C 
BRANCH  10  14
ATOM     14  C   UNL     1      -5.416  -4.534 132.635  0.00  0.00    +0.000 C 
ATOM     15  N   UNL     1      -4.809  -5.501 132.803  0.00  0.00    +0.000 NA
ENDBRANCH  10  14
ENDBRANCH   4   7
BRANCH   1  17
ATOM     16  N   UNL     1      -9.926   5.352 131.369  0.00  0.00    +0.000 N 
ATOM     17  C   UNL     1     -10.096   4.077 130.741  0.00  0.00    +0.000 C 
ATOM     18  O   UNL     1     -10.798   3.927 129.736  0.00  0.00    +0.000 OA
BRANCH  16  19
ATOM     19  C   UNL     1     -10.757   6.468 130.906  0.00  0.00    +0.000 A 
ATOM     20  C   UNL     1     -12.001   6.743 131.481  0.00  0.00    +0.000 A 
ATOM     21  C   UNL     1     -12.793   7.806 131.026  0.00  0.00    +0.000 A 
ATOM     22  C   UNL     1     -12.420   8.492 129.885  0.00  0.00    +0.000 A 
ATOM     23  N   UNL     1     -11.218   8.277 129.310  0.00  0.00    +0.000 NA
ATOM     24  C   UNL     1     -10.395   7.334 129.871  0.00  0.00    +0.000 A 
BRANCH  22  25
ATOM     25  O   UNL     1     -13.211   9.412 129.243  0.00  0.00    +0.000 OA
ATOM     26  C   UNL     1     -13.401  10.666 129.897  0.00  0.00    +0.000 C 
ENDBRANCH  22  25
ENDBRANCH  16  19
BRANCH  16  28
ATOM     27  C   UNL     1      -7.580   6.089 132.167  0.00  0.00    +0.000 C 
ATOM     28  C   UNL     1      -9.004   5.715 132.498  0.00  0.00    +0.000 C 
ENDBRANCH  16  28
ENDBRANCH   1  17
TORSDOF 6
ENDMDL
MODEL 2
REMARK VINA RESULT:      -7.3      0.769      1.467
REMARK  Name = CHEMBL1094002
REMARK  9 active torsions:
REMARK  status: ('A' for Active; 'I' for Inactive)
REMARK    1  A    between atoms: C_1  and  C_2
REMARK    2  A    between atoms: C_2  and  N_3
REMARK    3  A    between atoms: N_3  and  C_21
REMARK    4  A    between atoms: C_4  and  C_6
REMARK    5  A    between atoms: C_9  and  C_10
REMARK    6  A    between atoms: C_13  and  C_14
REMARK    7  A    between atoms: C_17  and  C_18
REMARK    8  A    between atoms: C_24  and  O_25
REMARK    9  A    between atoms: O_25  and  C_26
REMARK                            x       y       z     vdW  Elec       q    Type
REMARK                         _______ _______ _______ _____ _____    ______ ____
ROOT
ATOM      1  C   UNL     1      -9.412   3.345 130.987  0.00  0.00    +0.000 A 
ATOM      2  C   UNL     1      -8.156   3.048 130.480  0.00  0.00    +0.000 A 
ATOM      3  N   UNL     1      -7.538   1.837 130.654  0.00  0.00    +0.000 NA
ATOM      4  C   UNL     1      -8.140   0.974 131.511  0.00  0.00    +0.000 A 
ATOM      5  C   UNL     1      -9.305   1.370 132.166  0.00  0.00    +0.000 A 
ATOM      6  N   UNL     1      -9.995   2.513 131.889  0.00  0.00    +0.000 NA
ENDROOT
BRANCH   4   7
ATOM      7  C   UNL     1      -7.468  -0.321 131.754  0.00  0.00    +0.000 A 
ATOM      8  C   UNL     1      -7.798  -1.424 130.942  0.00  0.00    +0.000 A 
ATOM      9  C   UNL     1      -7.296  -2.705 131.196  0.00  0.00    +0.000 A 
ATOM     10  C   UNL     1      -6.340  -2.894 132.190  0.00  0.00    +0.000 A 
ATOM     11  C   UNL     1      -5.883  -1.789 132.914  0.00  0.00    +0.000 A 
ATOM     12  C   UNL     1      -6.498  -0.525 132.768  0.00  0.00    +0.000 A 
ATOM     13  C   UNL     1      -6.156   0.562 133.755  0.00  0.00    +0.000 C 
BRANCH  10  14
ATOM     14  C   UNL     1      -5.868  -4.221 132.494  0.00  0.00    +0.000 C 
ATOM     15  N   UNL     1      -5.493  -5.276 132.773  0.00  0.00    +0.000 NA
ENDBRANCH  10  14
ENDBRANCH   4   7
BRANCH   1  17
ATOM     16  N   UNL     1      -9.889   5.877 130.911  0.00  0.00    +0.000 N 
ATOM     17  C   UNL     1     -10.201   4.536 130.519  0.00  0.00    +0.000 C 
ATOM     18  O   UNL     1     -11.113   4.277 129.727  0.00  0.00    +0.000 OA
BRANCH  16  19
ATOM     19  C   UNL     1     -10.798   6.949 130.495  0.00  0.00    +0.000 A 
ATOM     20  C   UNL     1     -11.976   7.223 131.196  0.00  0.00    +0.000 A 
ATOM     21  C   UNL     1     -12.845   8.244 130.786  0.00  0.00    +0.000 A 
ATOM     22  C   UNL     1     -12.624   8.881 129.580  0.00  0.00    +0.000 A 
ATOM     23  N   UNL     1     -11.489   8.666 128.881  0.00  0.00    +0.000 NA
ATOM     24  C   UNL     1     -10.581   7.771 129.386  0.00  0.00    +0.000 A 
BRANCH  22  25
ATOM     25  O   UNL     1     -13.509   9.750 128.990  0.00  0.00    +0.000 OA
ATOM     26  C   UNL     1     -13.695  11.011 129.630  0.00  0.00    +0.000 C 
ENDBRANCH  22  25
ENDBRANCH  16  19
BRANCH  16  28
ATOM     27  C   UNL     1      -7.449   6.724 131.043  0.00  0.00    +0.000 C 
ATOM     28  C   UNL     1      -8.734   6.356 131.744  0.00  0.00    +0.000 C 
ENDBRANCH  16  28
ENDBRANCH   1  17
TORSDOF 6
ENDMDL
MODEL 3
REMARK VINA RESULT:      -7.2      6.514      7.672
REMARK  Name = CHEMBL1094002
REMARK  9 active torsions:
REMARK  status: ('A' for Active; 'I' for Inactive)
REMARK    1  A    between atoms: C_1  and  C_2
REMARK    2  A    between atoms: C_2  and  N_3
REMARK    3  A    between atoms: N_3  and  C_21
REMARK    4  A    between atoms: C_4  and  C_6
REMARK    5  A    between atoms: C_9  and  C_10
REMARK    6  A    between atoms: C_13  and  C_14
REMARK    7  A    between atoms: C_17  and  C_18
REMARK    8  A    between atoms: C_24  and  O_25
REMARK    9  A    between atoms: O_25  and  C_26
REMARK                            x       y       z     vdW  Elec       q    Type
REMARK                         _______ _______ _______ _____ _____    ______ ____
ROOT
ATOM      1  C   UNL     1      -7.422   1.993 126.196  0.00  0.00    +0.000 A 
ATOM      2  C   UNL     1      -6.295   1.316 126.635  0.00  0.00    +0.000 A 
ATOM      3  N   UNL     1      -6.309   0.414 127.666  0.00  0.00    +0.000 NA
ATOM      4  C   UNL     1      -7.463   0.332 128.376  0.00  0.00    +0.000 A 
ATOM      5  C   UNL     1      -8.527   1.167 128.040  0.00  0.00    +0.000 A 
ATOM      6  N   UNL     1      -8.563   1.961 126.932  0.00  0.00    +0.000 NA
ENDROOT
BRANCH   4   7
ATOM      7  C   UNL     1      -7.490  -0.601 129.524  0.00  0.00    +0.000 A 
ATOM      8  C   UNL     1      -7.221  -0.103 130.814  0.00  0.00    +0.000 A 
ATOM      9  C   UNL     1      -7.106  -0.949 131.923  0.00  0.00    +0.000 A 
ATOM     10  C   UNL     1      -7.392  -2.305 131.797  0.00  0.00    +0.000 A 
ATOM     11  C   UNL     1      -7.807  -2.801 130.558  0.00  0.00    +0.000 A 
ATOM     12  C   UNL     1      -7.774  -1.985 129.405  0.00  0.00    +0.000 A 
ATOM     13  C   UNL     1      -7.969  -2.632 128.057  0.00  0.00    +0.000 C 
BRANCH  10  14
ATOM     14  C   UNL     1      -7.215  -3.187 132.924  0.00  0.00    +0.000 C 
ATOM     15  N   UNL     1      -7.081  -3.921 133.803  0.00  0.00    +0.000 NA
ENDBRANCH  10  14
ENDBRANCH   4   7
BRANCH   1  17
ATOM     16  N   UNL     1      -7.698   2.054 123.633  0.00  0.00    +0.000 N 
ATOM     17  C   UNL     1      -7.457   2.717 124.879  0.00  0.00    +0.000 C 
ATOM     18  O   UNL     1      -7.313   3.941 124.954  0.00  0.00    +0.000 OA
BRANCH  16  19
ATOM     19  C   UNL     1      -7.587   2.836 122.399  0.00  0.00    +0.000 A 
ATOM     20  C   UNL     1      -8.715   3.183 121.648  0.00  0.00    +0.000 A 
ATOM     21  C   UNL     1      -8.599   3.922 120.464  0.00  0.00    +0.000 A 
ATOM     22  C   UNL     1      -7.346   4.174 119.938  0.00  0.00    +0.000 A 
ATOM     23  N   UNL     1      -6.230   3.879 120.638  0.00  0.00    +0.000 NA
ATOM     24  C   UNL     1      -6.378   3.291 121.869  0.00  0.00    +0.000 A 
BRANCH  22  25
ATOM     25  O   UNL     1      -7.122   4.713 118.696  0.00  0.00    +0.000 OA
ATOM     26  C   UNL     1      -5.999   5.584 118.564  0.00  0.00    +0.000 C 
ENDBRANCH  22  25
ENDBRANCH  16  19
BRANCH  16  28
ATOM     27  C   UNL     1      -6.893  -0.375 123.257  0.00  0.00    +0.000 C 
ATOM     28  C   UNL     1      -8.030   0.607 123.402  0.00  0.00    +0.000 C 
ENDBRANCH  16  28
ENDBRANCH   1  17
TORSDOF 6
ENDMDL
MODEL 4
REMARK VINA RESULT:      -7.1      6.895      9.399
REMARK  Name = CHEMBL1094002
REMARK  9 active torsions:
REMARK  status: ('A' for Active; 'I' for Inactive)
REMARK    1  A    between atoms: C_1  and  C_2
REMARK    2  A    between atoms: C_2  and  N_3
REMARK    3  A    between atoms: N_3  and  C_21
REMARK    4  A    between atoms: C_4  and  C_6
REMARK    5  A    between atoms: C_9  and  C_10
REMARK    6  A    between atoms: C_13  and  C_14
REMARK    7  A    between atoms: C_17  and  C_18
REMARK    8  A    between atoms: C_24  and  O_25
REMARK    9  A    between atoms: O_25  and  C_26
REMARK                            x       y       z     vdW  Elec       q    Type
REMARK                         _______ _______ _______ _____ _____    ______ ____
ROOT
ATOM      1  C   UNL     1      -4.948   4.779 127.218  0.00  0.00    +0.000 A 
ATOM      2  C   UNL     1      -5.517   4.697 128.479  0.00  0.00    +0.000 A 
ATOM      3  N   UNL     1      -4.888   5.121 129.620  0.00  0.00    +0.000 NA
ATOM      4  C   UNL     1      -3.584   5.475 129.490  0.00  0.00    +0.000 A 
ATOM      5  C   UNL     1      -2.972   5.364 128.244  0.00  0.00    +0.000 A 
ATOM      6  N   UNL     1      -3.630   5.077 127.084  0.00  0.00    +0.000 NA
ENDROOT
BRANCH   4   7
ATOM      7  C   UNL     1      -2.869   5.892 130.716  0.00  0.00    +0.000 A 
ATOM      8  C   UNL     1      -2.176   4.922 131.466  0.00  0.00    +0.000 A 
ATOM      9  C   UNL     1      -1.585   5.223 132.698  0.00  0.00    +0.000 A 
ATOM     10  C   UNL     1      -1.553   6.539 133.152  0.00  0.00    +0.000 A 
ATOM     11  C   UNL     1      -2.104   7.547 132.356  0.00  0.00    +0.000 A 
ATOM     12  C   UNL     1      -2.835   7.229 131.190  0.00  0.00    +0.000 A 
ATOM     13  C   UNL     1      -3.632   8.318 130.518  0.00  0.00    +0.000 C 
BRANCH  10  14
ATOM     14  C   UNL     1      -1.000   6.841 134.448  0.00  0.00    +0.000 C 
ATOM     15  N   UNL     1      -0.576   7.115 135.486  0.00  0.00    +0.000 NA
ENDBRANCH  10  14
ENDBRANCH   4   7
BRANCH   1  17
ATOM     16  N   UNL     1      -5.973   3.350 125.333  0.00  0.00    +0.000 N 
ATOM     17  C   UNL     1      -5.761   4.617 125.963  0.00  0.00    +0.000 C 
ATOM     18  O   UNL     1      -6.277   5.656 125.540  0.00  0.00    +0.000 OA
BRANCH  16  19
ATOM     19  C   UNL     1      -6.677   3.324 124.047  0.00  0.00    +0.000 A 
ATOM     20  C   UNL     1      -6.029   3.645 122.851  0.00  0.00    +0.000 A 
ATOM     21  C   UNL     1      -6.713   3.628 121.628  0.00  0.00    +0.000 A 
ATOM     22  C   UNL     1      -8.084   3.454 121.617  0.00  0.00    +0.000 A 
ATOM     23  N   UNL     1      -8.749   3.119 122.743  0.00  0.00    +0.000 NA
ATOM     24  C   UNL     1      -8.026   2.992 123.903  0.00  0.00    +0.000 A 
BRANCH  22  25
ATOM     25  O   UNL     1      -8.876   3.614 120.506  0.00  0.00    +0.000 OA
ATOM     26  C   UNL     1      -8.269   4.220 119.365  0.00  0.00    +0.000 C 
ENDBRANCH  22  25
ENDBRANCH  16  19
BRANCH  16  28
ATOM     27  C   UNL     1      -6.376   1.287 126.840  0.00  0.00    +0.000 C 
ATOM     28  C   UNL     1      -5.534   1.993 125.805  0.00  0.00    +0.000 C 
ENDBRANCH  16  28
ENDBRANCH   1  17
TORSDOF 6
ENDMDL
MODEL 5
REMARK VINA RESULT:      -7.1      6.675      7.834
REMARK  Name = CHEMBL1094002
REMARK  9 active torsions:
REMARK  status: ('A' for Active; 'I' for Inactive)
REMARK    1  A    between atoms: C_1  and  C_2
REMARK    2  A    between atoms: C_2  and  N_3
REMARK    3  A    between atoms: N_3  and  C_21
REMARK    4  A    between atoms: C_4  and  C_6
REMARK    5  A    between atoms: C_9  and  C_10
REMARK    6  A    between atoms: C_13  and  C_14
REMARK    7  A    between atoms: C_17  and  C_18
REMARK    8  A    between atoms: C_24  and  O_25
REMARK    9  A    between atoms: O_25  and  C_26
REMARK                            x       y       z     vdW  Elec       q    Type
REMARK                         _______ _______ _______ _____ _____    ______ ____
ROOT
ATOM      1  C   UNL     1      -7.193   0.109 125.087  0.00  0.00    +0.000 A 
ATOM      2  C   UNL     1      -8.177   0.309 126.043  0.00  0.00    +0.000 A 
ATOM      3  N   UNL     1      -8.102  -0.184 127.320  0.00  0.00    +0.000 NA
ATOM      4  C   UNL     1      -7.084  -1.045 127.571  0.00  0.00    +0.000 A 
ATOM      5  C   UNL     1      -6.215  -1.389 126.537  0.00  0.00    +0.000 A 
ATOM      6  N   UNL     1      -6.203  -0.794 125.310  0.00  0.00    +0.000 NA
ENDROOT
BRANCH   4   7
ATOM      7  C   UNL     1      -7.008  -1.629 128.928  0.00  0.00    +0.000 A 
ATOM      8  C   UNL     1      -6.188  -1.011 129.892  0.00  0.00    +0.000 A 
ATOM      9  C   UNL     1      -5.972  -1.579 131.153  0.00  0.00    +0.000 A 
ATOM     10  C   UNL     1      -6.680  -2.714 131.535  0.00  0.00    +0.000 A 
ATOM     11  C   UNL     1      -7.613  -3.264 130.652  0.00  0.00    +0.000 A 
ATOM     12  C   UNL     1      -7.721  -2.788 129.326  0.00  0.00    +0.000 A 
ATOM     13  C   UNL     1      -8.540  -3.581 128.339  0.00  0.00    +0.000 C 
BRANCH  10  14
ATOM     14  C   UNL     1      -6.414  -3.335 132.808  0.00  0.00    +0.000 C 
ATOM     15  N   UNL     1      -6.186  -3.800 133.840  0.00  0.00    +0.000 NA
ENDBRANCH  10  14
ENDBRANCH   4   7
BRANCH   1  17
ATOM     16  N   UNL     1      -7.016   2.341 123.810  0.00  0.00    +0.000 N 
ATOM     17  C   UNL     1      -7.135   0.914 123.820  0.00  0.00    +0.000 C 
ATOM     18  O   UNL     1      -7.146   0.249 122.779  0.00  0.00    +0.000 OA
BRANCH  16  19
ATOM     19  C   UNL     1      -7.092   3.034 122.521  0.00  0.00    +0.000 A 
ATOM     20  C   UNL     1      -8.310   3.214 121.857  0.00  0.00    +0.000 A 
ATOM     21  C   UNL     1      -8.372   3.869 120.620  0.00  0.00    +0.000 A 
ATOM     22  C   UNL     1      -7.200   4.198 119.964  0.00  0.00    +0.000 A 
ATOM     23  N   UNL     1      -6.004   4.064 120.575  0.00  0.00    +0.000 NA
ATOM     24  C   UNL     1      -5.985   3.560 121.851  0.00  0.00    +0.000 A 
BRANCH  22  25
ATOM     25  O   UNL     1      -7.140   4.659 118.673  0.00  0.00    +0.000 OA
ATOM     26  C   UNL     1      -6.078   5.560 118.360  0.00  0.00    +0.000 C 
ENDBRANCH  22  25
ENDBRANCH  16  19
BRANCH  16  28
ATOM     27  C   UNL     1      -5.468   3.431 125.572  0.00  0.00    +0.000 C 
ATOM     28  C   UNL     1      -6.848   3.266 124.982  0.00  0.00    +0.000 C 
ENDBRANCH  16  28
ENDBRANCH   1  17
TORSDOF 6
ENDMDL
MODEL 6
REMARK VINA RESULT:      -6.8      1.631      2.378
REMARK  Name = CHEMBL1094002
REMARK  9 active torsions:
REMARK  status: ('A' for Active; 'I' for Inactive)
REMARK    1  A    between atoms: C_1  and  C_2
REMARK    2  A    between atoms: C_2  and  N_3
REMARK    3  A    between atoms: N_3  and  C_21
REMARK    4  A    between atoms: C_4  and  C_6
REMARK    5  A    between atoms: C_9  and  C_10
REMARK    6  A    between atoms: C_13  and  C_14
REMARK    7  A    between atoms: C_17  and  C_18
REMARK    8  A    between atoms: C_24  and  O_25
REMARK    9  A    between atoms: O_25  and  C_26
REMARK                            x       y       z     vdW  Elec       q    Type
REMARK                         _______ _______ _______ _____ _____    ______ ____
ROOT
ATOM      1  C   UNL     1      -8.256   1.280 130.411  0.00  0.00    +0.000 A 
ATOM      2  C   UNL     1      -8.879   0.341 131.219  0.00  0.00    +0.000 A 
ATOM      3  N   UNL     1      -8.228  -0.728 131.776  0.00  0.00    +0.000 NA
ATOM      4  C   UNL     1      -6.955  -0.940 131.356  0.00  0.00    +0.000 A 
ATOM      5  C   UNL     1      -6.409  -0.096 130.391  0.00  0.00    +0.000 A 
ATOM      6  N   UNL     1      -7.003   1.047 129.942  0.00  0.00    +0.000 NA
ENDROOT
BRANCH   4   7
ATOM      7  C   UNL     1      -6.245  -2.117 131.905  0.00  0.00    +0.000 A 
ATOM      8  C   UNL     1      -5.497  -1.971 133.089  0.00  0.00    +0.000 A 
ATOM      9  C   UNL     1      -4.702  -3.007 133.594  0.00  0.00    +0.000 A 
ATOM     10  C   UNL     1      -4.741  -4.265 133.001  0.00  0.00    +0.000 A 
ATOM     11  C   UNL     1      -5.590  -4.479 131.912  0.00  0.00    +0.000 A 
ATOM     12  C   UNL     1      -6.274  -3.402 131.306  0.00  0.00    +0.000 A 
ATOM     13  C   UNL     1      -6.958  -3.633 129.982  0.00  0.00    +0.000 C 
BRANCH  10  14
ATOM     14  C   UNL     1      -3.877  -5.315 133.481  0.00  0.00    +0.000 C 
ATOM     15  N   UNL     1      -3.163  -6.129 133.879  0.00  0.00    +0.000 NA
ENDBRANCH  10  14
ENDBRANCH   4   7
BRANCH   1  17
ATOM     16  N   UNL     1      -8.937   3.693 131.008  0.00  0.00    +0.000 N 
ATOM     17  C   UNL     1      -8.893   2.601 130.084  0.00  0.00    +0.000 C 
ATOM     18  O   UNL     1      -9.334   2.695 128.934  0.00  0.00    +0.000 OA
BRANCH  16  19
ATOM     19  C   UNL     1      -9.690   4.892 130.629  0.00  0.00    +0.000 A 
ATOM     20  C   UNL     1      -9.046   6.089 130.303  0.00  0.00    +0.000 A 
ATOM     21  C   UNL     1      -9.775   7.234 129.952  0.00  0.00    +0.000 A 
ATOM     22  C   UNL     1     -11.151   7.232 130.088  0.00  0.00    +0.000 A 
ATOM     23  N   UNL     1     -11.817   6.095 130.377  0.00  0.00    +0.000 NA
ATOM     24  C   UNL     1     -11.085   4.950 130.566  0.00  0.00    +0.000 A 
BRANCH  22  25
ATOM     25  O   UNL     1     -11.941   8.348 129.962  0.00  0.00    +0.000 OA
ATOM     26  C   UNL     1     -12.249   8.772 128.635  0.00  0.00    +0.000 C 
ENDBRANCH  22  25
ENDBRANCH  16  19
BRANCH  16  28
ATOM     27  C   UNL     1      -9.196   3.488 133.573  0.00  0.00    +0.000 C 
ATOM     28  C   UNL     1      -8.322   3.776 132.377  0.00  0.00    +0.000 C 
ENDBRANCH  16  28
ENDBRANCH   1  17
TORSDOF 6
ENDMDL
MODEL 7
REMARK VINA RESULT:      -6.7      7.163      9.014
REMARK  Name = CHEMBL1094002
REMARK  9 active torsions:
REMARK  status: ('A' for Active; 'I' for Inactive)
REMARK    1  A    between atoms: C_1  and  C_2
REMARK    2  A    between atoms: C_2  and  N_3
REMARK    3  A    between atoms: N_3  and  C_21
REMARK    4  A    between atoms: C_4  and  C_6
REMARK    5  A    between atoms: C_9  and  C_10
REMARK    6  A    between atoms: C_13  and  C_14
REMARK    7  A    between atoms: C_17  and  C_18
REMARK    8  A    between atoms: C_24  and  O_25
REMARK    9  A    between atoms: O_25  and  C_26
REMARK                            x       y       z     vdW  Elec       q    Type
REMARK                         _______ _______ _______ _____ _____    ______ ____
ROOT
ATOM      1  C   UNL     1      -3.329   5.001 128.135  0.00  0.00    +0.000 A 
ATOM      2  C   UNL     1      -4.704   5.051 127.971  0.00  0.00    +0.000 A 
ATOM      3  N   UNL     1      -5.417   4.110 127.274  0.00  0.00    +0.000 NA
ATOM      4  C   UNL     1      -4.689   3.197 126.583  0.00  0.00    +0.000 A 
ATOM      5  C   UNL     1      -3.298   3.283 126.602  0.00  0.00    +0.000 A 
ATOM      6  N   UNL     1      -2.589   4.127 127.404  0.00  0.00    +0.000 NA
ENDROOT
BRANCH   4   7
ATOM      7  C   UNL     1      -5.433   2.199 125.783  0.00  0.00    +0.000 A 
ATOM      8  C   UNL     1      -5.438   0.855 126.201  0.00  0.00    +0.000 A 
ATOM      9  C   UNL     1      -6.014  -0.158 125.427  0.00  0.00    +0.000 A 
ATOM     10  C   UNL     1      -6.724   0.165 124.274  0.00  0.00    +0.000 A 
ATOM     11  C   UNL     1      -6.863   1.509 123.915  0.00  0.00    +0.000 A 
ATOM     12  C   UNL     1      -6.155   2.518 124.604  0.00  0.00    +0.000 A 
ATOM     13  C   UNL     1      -6.122   3.906 124.017  0.00  0.00    +0.000 C 
BRANCH  10  14
ATOM     14  C   UNL     1      -7.266  -0.881 123.444  0.00  0.00    +0.000 C 
ATOM     15  N   UNL     1      -7.710  -1.693 122.755  0.00  0.00    +0.000 NA
ENDBRANCH  10  14
ENDBRANCH   4   7
BRANCH   1  17
ATOM     16  N   UNL     1      -2.687   5.580 130.563  0.00  0.00    +0.000 N 
ATOM     17  C   UNL     1      -2.615   5.840 129.157  0.00  0.00    +0.000 C 
ATOM     18  O   UNL     1      -1.917   6.746 128.691  0.00  0.00    +0.000 OA
BRANCH  16  19
ATOM     19  C   UNL     1      -2.053   6.535 131.478  0.00  0.00    +0.000 A 
ATOM     20  C   UNL     1      -2.706   7.701 131.888  0.00  0.00    +0.000 A 
ATOM     21  C   UNL     1      -2.088   8.613 132.754  0.00  0.00    +0.000 A 
ATOM     22  C   UNL     1      -0.755   8.446 133.079  0.00  0.00    +0.000 A 
ATOM     23  N   UNL     1      -0.091   7.326 132.726  0.00  0.00    +0.000 NA
ATOM     24  C   UNL     1      -0.769   6.376 132.005  0.00  0.00    +0.000 A 
BRANCH  22  25
ATOM     25  O   UNL     1      -0.002   9.375 133.754  0.00  0.00    +0.000 OA
ATOM     26  C   UNL     1      -0.387  10.742 133.613  0.00  0.00    +0.000 C 
ENDBRANCH  22  25
ENDBRANCH  16  19
BRANCH  16  28
ATOM     27  C   UNL     1      -4.808   4.622 131.690  0.00  0.00    +0.000 C 
ATOM     28  C   UNL     1      -3.372   4.441 131.262  0.00  0.00    +0.000 C 
ENDBRANCH  16  28
ENDBRANCH   1  17
TORSDOF 6
ENDMDL
MODEL 8
REMARK VINA RESULT:      -6.6      6.716      9.386
REMARK  Name = CHEMBL1094002
REMARK  9 active torsions:
REMARK  status: ('A' for Active; 'I' for Inactive)
REMARK    1  A    between atoms: C_1  and  C_2
REMARK    2  A    between atoms: C_2  and  N_3
REMARK    3  A    between atoms: N_3  and  C_21
REMARK    4  A    between atoms: C_4  and  C_6
REMARK    5  A    between atoms: C_9  and  C_10
REMARK    6  A    between atoms: C_13  and  C_14
REMARK    7  A    between atoms: C_17  and  C_18
REMARK    8  A    between atoms: C_24  and  O_25
REMARK    9  A    between atoms: O_25  and  C_26
REMARK                            x       y       z     vdW  Elec       q    Type
REMARK                         _______ _______ _______ _____ _____    ______ ____
ROOT
ATOM      1  C   UNL     1      -5.148   2.510 128.023  0.00  0.00    +0.000 A 
ATOM      2  C   UNL     1      -3.818   2.836 127.811  0.00  0.00    +0.000 A 
ATOM      3  N   UNL     1      -3.048   3.502 128.728  0.00  0.00    +0.000 NA
ATOM      4  C   UNL     1      -3.700   3.998 129.810  0.00  0.00    +0.000 A 
ATOM      5  C   UNL     1      -5.079   3.828 129.909  0.00  0.00    +0.000 A 
ATOM      6  N   UNL     1      -5.821   3.048 129.072  0.00  0.00    +0.000 NA
ENDROOT
BRANCH   4   7
ATOM      7  C   UNL     1      -2.900   4.763 130.792  0.00  0.00    +0.000 A 
ATOM      8  C   UNL     1      -2.397   6.027 130.428  0.00  0.00    +0.000 A 
ATOM      9  C   UNL     1      -1.532   6.747 131.259  0.00  0.00    +0.000 A 
ATOM     10  C   UNL     1      -1.252   6.283 132.541  0.00  0.00    +0.000 A 
ATOM     11  C   UNL     1      -1.857   5.103 132.985  0.00  0.00    +0.000 A 
ATOM     12  C   UNL     1      -2.605   4.297 132.099  0.00  0.00    +0.000 A 
ATOM     13  C   UNL     1      -3.006   2.913 132.545  0.00  0.00    +0.000 C 
BRANCH  10  14
ATOM     14  C   UNL     1      -0.314   6.990 133.375  0.00  0.00    +0.000 C 
ATOM     15  N   UNL     1       0.466   7.542 134.023  0.00  0.00    +0.000 NA
ENDBRANCH  10  14
ENDBRANCH   4   7
BRANCH   1  17
ATOM     16  N   UNL     1      -6.622   1.884 126.002  0.00  0.00    +0.000 N 
ATOM     17  C   UNL     1      -5.872   1.511 127.163  0.00  0.00    +0.000 C 
ATOM     18  O   UNL     1      -5.731   0.332 127.504  0.00  0.00    +0.000 OA
BRANCH  16  19
ATOM     19  C   UNL     1      -7.390   0.845 125.309  0.00  0.00    +0.000 A 
ATOM     20  C   UNL     1      -6.886   0.192 124.180  0.00  0.00    +0.000 A 
ATOM     21  C   UNL     1      -7.630  -0.793 123.518  0.00  0.00    +0.000 A 
ATOM     22  C   UNL     1      -8.946  -1.010 123.881  0.00  0.00    +0.000 A 
ATOM     23  N   UNL     1      -9.468  -0.421 124.978  0.00  0.00    +0.000 NA
ATOM     24  C   UNL     1      -8.664   0.425 125.698  0.00  0.00    +0.000 A 
BRANCH  22  25
ATOM     25  O   UNL     1      -9.821  -1.803 123.181  0.00  0.00    +0.000 OA
ATOM     26  C   UNL     1      -9.602  -3.212 123.240  0.00  0.00    +0.000 C 
ENDBRANCH  22  25
ENDBRANCH  16  19
BRANCH  16  28
ATOM     27  C   UNL     1      -5.650   3.754 124.503  0.00  0.00    +0.000 C 
ATOM     28  C   UNL     1      -6.764   3.248 125.387  0.00  0.00    +0.000 C 
ENDBRANCH  16  28
ENDBRANCH   1  17
TORSDOF 6
ENDMDL
MODEL 9
REMARK VINA RESULT:      -6.6      2.517      2.959
REMARK  Name = CHEMBL1094002
REMARK  9 active torsions:
REMARK  status: ('A' for Active; 'I' for Inactive)
REMARK    1  A    between atoms: C_1  and  C_2
REMARK    2  A    between atoms: C_2  and  N_3
REMARK    3  A    between atoms: N_3  and  C_21
REMARK    4  A    between atoms: C_4  and  C_6
REMARK    5  A    between atoms: C_9  and  C_10
REMARK    6  A    between atoms: C_13  and  C_14
REMARK    7  A    between atoms: C_17  and  C_18
REMARK    8  A    between atoms: C_24  and  O_25
REMARK    9  A    between atoms: O_25  and  C_26
REMARK                            x       y       z     vdW  Elec       q    Type
REMARK                         _______ _______ _______ _____ _____    ______ ____
ROOT
ATOM      1  C   UNL     1      -7.955   3.149 130.801  0.00  0.00    +0.000 A 
ATOM      2  C   UNL     1      -8.134   2.298 131.880  0.00  0.00    +0.000 A 
ATOM      3  N   UNL     1      -7.120   1.566 132.441  0.00  0.00    +0.000 NA
ATOM      4  C   UNL     1      -5.938   1.571 131.776  0.00  0.00    +0.000 A 
ATOM      5  C   UNL     1      -5.834   2.279 130.580  0.00  0.00    +0.000 A 
ATOM      6  N   UNL     1      -6.794   3.118 130.096  0.00  0.00    +0.000 NA
ENDROOT
BRANCH   4   7
ATOM      7  C   UNL     1      -4.841   0.750 132.335  0.00  0.00    +0.000 A 
ATOM      8  C   UNL     1      -3.910   1.354 133.202  0.00  0.00    +0.000 A 
ATOM      9  C   UNL     1      -2.780   0.671 133.666  0.00  0.00    +0.000 A 
ATOM     10  C   UNL     1      -2.620  -0.682 133.383  0.00  0.00    +0.000 A 
ATOM     11  C   UNL     1      -3.606  -1.345 132.646  0.00  0.00    +0.000 A 
ATOM     12  C   UNL     1      -4.666  -0.628 132.048  0.00  0.00    +0.000 A 
ATOM     13  C   UNL     1      -5.545  -1.337 131.049  0.00  0.00    +0.000 C 
BRANCH  10  14
ATOM     14  C   UNL     1      -1.427  -1.371 133.807  0.00  0.00    +0.000 C 
ATOM     15  N   UNL     1      -0.465  -1.931 134.111  0.00  0.00    +0.000 NA
ENDBRANCH  10  14
ENDBRANCH   4   7
BRANCH   1  17
ATOM     16  N   UNL     1      -8.984   5.509 130.928  0.00  0.00    +0.000 N 
ATOM     17  C   UNL     1      -8.984   4.174 130.412  0.00  0.00    +0.000 C 
ATOM     18  O   UNL     1      -9.805   3.794 129.572  0.00  0.00    +0.000 OA
BRANCH  16  19
ATOM     19  C   UNL     1     -10.104   6.388 130.578  0.00  0.00    +0.000 A 
ATOM     20  C   UNL     1     -10.026   7.281 129.505  0.00  0.00    +0.000 A 
ATOM     21  C   UNL     1     -11.098   8.124 129.183  0.00  0.00    +0.000 A 
ATOM     22  C   UNL     1     -12.186   8.197 130.033  0.00  0.00    +0.000 A 
ATOM     23  N   UNL     1     -12.315   7.339 131.067  0.00  0.00    +0.000 NA
ATOM     24  C   UNL     1     -11.318   6.418 131.268  0.00  0.00    +0.000 A 
BRANCH  22  25
ATOM     25  O   UNL     1     -13.193   9.122 129.923  0.00  0.00    +0.000 OA
ATOM     26  C   UNL     1     -13.478   9.611 128.612  0.00  0.00    +0.000 C 
ENDBRANCH  22  25
ENDBRANCH  16  19
BRANCH  16  28
ATOM     27  C   UNL     1      -6.786   6.842 131.214  0.00  0.00    +0.000 C 
ATOM     28  C   UNL     1      -7.975   6.153 131.837  0.00  0.00    +0.000 C 
ENDBRANCH  16  28
ENDBRANCH   1  17
TORSDOF 6
ENDMDL
