MODEL 1
REMARK VINA RESULT:      -9.2      0.000      0.000
REMARK  Name = CHEMBL341490
REMARK  3 active torsions:
REMARK  status: ('A' for Active; 'I' for Inactive)
REMARK    1  A    between atoms: C_1  and  C_2
REMARK    2  A    between atoms: C_5  and  S_6
REMARK    3  A    between atoms: S_6  and  N_9
REMARK                            x       y       z     vdW  Elec       q    Type
REMARK                         _______ _______ _______ _____ _____    ______ ____
ROOT
ATOM      1  N   UNL     1      -7.631   0.748 125.175  0.00  0.00    +0.000 NA
ATOM      2  C   UNL     1      -8.181  -0.579 125.466  0.00  0.00    +0.000 C 
ATOM      3  C   UNL     1      -7.017  -1.317 126.160  0.00  0.00    +0.000 C 
ATOM      4  C   UNL     1      -7.456  -1.592 127.560  0.00  0.00    +0.000 C 
ATOM      5  C   UNL     1      -8.505  -2.708 127.772  0.00  0.00    +0.000 C 
ATOM      6  C   UNL     1      -8.285  -3.445 128.888  0.00  0.00    +0.000 C 
ATOM      7  C   UNL     1      -6.881  -3.237 129.244  0.00  0.00    +0.000 A 
ATOM      8  C   UNL     1      -6.023  -4.024 130.022  0.00  0.00    +0.000 A 
ATOM      9  C   UNL     1      -4.639  -3.832 129.884  0.00  0.00    +0.000 A 
ATOM     10  C   UNL     1      -4.140  -2.912 128.956  0.00  0.00    +0.000 A 
ATOM     11  C   UNL     1      -5.004  -2.124 128.212  0.00  0.00    +0.000 A 
ATOM     12  C   UNL     1      -6.369  -2.240 128.397  0.00  0.00    +0.000 A 
ATOM     13  C   UNL     1      -7.832  -0.014 127.926  0.00  0.00    +0.000 C 
ATOM     14  C   UNL     1      -7.292   1.214 126.681  0.00  0.00    +0.000 C 
ENDROOT
BRANCH   1  15
ATOM     15  S   UNL     1      -8.726   1.647 124.128  0.00  0.00    +0.000 S 
ATOM     16  O   UNL     1      -9.372   2.630 124.940  0.00  0.00    +0.000 OA
ATOM     17  O   UNL     1      -9.517   0.631 123.412  0.00  0.00    +0.000 OA
BRANCH  15  22
ATOM     18  C   UNL     1      -6.137   4.792 119.508  0.00  0.00    +0.000 C 
ATOM     19  C   UNL     1      -6.766   3.977 120.608  0.00  0.00    +0.000 A 
ATOM     20  C   UNL     1      -8.150   3.810 120.687  0.00  0.00    +0.000 A 
ATOM     21  C   UNL     1      -8.715   3.081 121.753  0.00  0.00    +0.000 A 
ATOM     22  C   UNL     1      -7.905   2.521 122.774  0.00  0.00    +0.000 A 
ATOM     23  C   UNL     1      -6.525   2.635 122.664  0.00  0.00    +0.000 A 
ATOM     24  C   UNL     1      -5.966   3.370 121.594  0.00  0.00    +0.000 A 
ENDBRANCH  15  22
ENDBRANCH   1  15
TORSDOF 2
ENDMDL
MODEL 2
REMARK VINA RESULT:      -8.9      6.175      7.386
REMARK  Name = CHEMBL341490
REMARK  3 active torsions:
REMARK  status: ('A' for Active; 'I' for Inactive)
REMARK    1  A    between atoms: C_1  and  C_2
REMARK    2  A    between atoms: C_5  and  S_6
REMARK    3  A    between atoms: S_6  and  N_9
REMARK                            x       y       z     vdW  Elec       q    Type
REMARK                         _______ _______ _______ _____ _____    ______ ____
ROOT
ATOM      1  N   UNL     1      -8.506   4.976 129.978  0.00  0.00    +0.000 NA
ATOM      2  C   UNL     1      -9.289   3.935 130.651  0.00  0.00    +0.000 C 
ATOM      3  C   UNL     1      -9.067   2.683 129.776  0.00  0.00    +0.000 C 
ATOM      4  C   UNL     1      -8.327   1.696 130.617  0.00  0.00    +0.000 C 
ATOM      5  C   UNL     1      -9.118   0.976 131.733  0.00  0.00    +0.000 C 
ATOM      6  C   UNL     1      -8.769  -0.325 131.883  0.00  0.00    +0.000 C 
ATOM      7  C   UNL     1      -8.112  -0.718 130.636  0.00  0.00    +0.000 A 
ATOM      8  C   UNL     1      -7.920  -1.988 130.080  0.00  0.00    +0.000 A 
ATOM      9  C   UNL     1      -7.632  -2.076 128.708  0.00  0.00    +0.000 A 
ATOM     10  C   UNL     1      -7.590  -0.923 127.918  0.00  0.00    +0.000 A 
ATOM     11  C   UNL     1      -7.758   0.328 128.490  0.00  0.00    +0.000 A 
ATOM     12  C   UNL     1      -7.957   0.439 129.853  0.00  0.00    +0.000 A 
ATOM     13  C   UNL     1      -7.078   2.720 131.009  0.00  0.00    +0.000 C 
ATOM     14  C   UNL     1      -7.048   4.292 130.072  0.00  0.00    +0.000 C 
ENDROOT
BRANCH   1  15
ATOM     15  S   UNL     1      -8.860   6.554 130.678  0.00  0.00    +0.000 S 
ATOM     16  O   UNL     1      -7.710   7.375 130.467  0.00  0.00    +0.000 OA
ATOM     17  O   UNL     1      -9.348   6.285 132.041  0.00  0.00    +0.000 OA
BRANCH  15  22
ATOM     18  C   UNL     1     -13.748   9.495 128.353  0.00  0.00    +0.000 C 
ATOM     19  C   UNL     1     -12.568   8.730 128.895  0.00  0.00    +0.000 A 
ATOM     20  C   UNL     1     -12.641   8.050 130.112  0.00  0.00    +0.000 A 
ATOM     21  C   UNL     1     -11.507   7.381 130.618  0.00  0.00    +0.000 A 
ATOM     22  C   UNL     1     -10.271   7.397 129.923  0.00  0.00    +0.000 A 
ATOM     23  C   UNL     1     -10.214   8.022 128.684  0.00  0.00    +0.000 A 
ATOM     24  C   UNL     1     -11.354   8.693 128.184  0.00  0.00    +0.000 A 
ENDBRANCH  15  22
ENDBRANCH   1  15
TORSDOF 2
ENDMDL
MODEL 3
REMARK VINA RESULT:      -8.8      8.336     11.011
REMARK  Name = CHEMBL341490
REMARK  3 active torsions:
REMARK  status: ('A' for Active; 'I' for Inactive)
REMARK    1  A    between atoms: C_1  and  C_2
REMARK    2  A    between atoms: C_5  and  S_6
REMARK    3  A    between atoms: S_6  and  N_9
REMARK                            x       y       z     vdW  Elec       q    Type
REMARK                         _______ _______ _______ _____ _____    ______ ____
ROOT
ATOM      1  N   UNL     1      -6.265   5.381 130.818  0.00  0.00    +0.000 NA
ATOM      2  C   UNL     1      -7.267   5.861 131.775  0.00  0.00    +0.000 C 
ATOM      3  C   UNL     1      -8.131   6.836 130.948  0.00  0.00    +0.000 C 
ATOM      4  C   UNL     1      -9.499   6.242 130.873  0.00  0.00    +0.000 C 
ATOM      5  C   UNL     1     -10.369   6.296 132.150  0.00  0.00    +0.000 C 
ATOM      6  C   UNL     1     -11.679   6.534 131.895  0.00  0.00    +0.000 C 
ATOM      7  C   UNL     1     -11.734   7.123 130.556  0.00  0.00    +0.000 A 
ATOM      8  C   UNL     1     -12.724   7.913 129.960  0.00  0.00    +0.000 A 
ATOM      9  C   UNL     1     -12.372   8.682 128.838  0.00  0.00    +0.000 A 
ATOM     10  C   UNL     1     -11.055   8.689 128.369  0.00  0.00    +0.000 A 
ATOM     11  C   UNL     1     -10.094   7.882 128.957  0.00  0.00    +0.000 A 
ATOM     12  C   UNL     1     -10.442   7.054 130.007  0.00  0.00    +0.000 A 
ATOM     13  C   UNL     1      -9.007   4.776 130.262  0.00  0.00    +0.000 C 
ATOM     14  C   UNL     1      -7.255   4.711 129.736  0.00  0.00    +0.000 C 
ENDROOT
BRANCH   1  15
ATOM     15  S   UNL     1      -5.013   4.465 131.652  0.00  0.00    +0.000 S 
ATOM     16  O   UNL     1      -4.632   3.391 130.790  0.00  0.00    +0.000 OA
ATOM     17  O   UNL     1      -5.549   4.191 132.997  0.00  0.00    +0.000 OA
BRANCH  15  22
ATOM     18  C   UNL     1      -0.072   7.860 133.070  0.00  0.00    +0.000 C 
ATOM     19  C   UNL     1      -1.273   7.041 132.670  0.00  0.00    +0.000 A 
ATOM     20  C   UNL     1      -2.549   7.604 132.615  0.00  0.00    +0.000 A 
ATOM     21  C   UNL     1      -3.662   6.804 132.283  0.00  0.00    +0.000 A 
ATOM     22  C   UNL     1      -3.520   5.418 132.019  0.00  0.00    +0.000 A 
ATOM     23  C   UNL     1      -2.244   4.871 132.013  0.00  0.00    +0.000 A 
ATOM     24  C   UNL     1      -1.133   5.679 132.350  0.00  0.00    +0.000 A 
ENDBRANCH  15  22
ENDBRANCH   1  15
TORSDOF 2
ENDMDL
MODEL 4
REMARK VINA RESULT:      -8.7      2.441      3.190
REMARK  Name = CHEMBL341490
REMARK  3 active torsions:
REMARK  status: ('A' for Active; 'I' for Inactive)
REMARK    1  A    between atoms: C_1  and  C_2
REMARK    2  A    between atoms: C_5  and  S_6
REMARK    3  A    between atoms: S_6  and  N_9
REMARK                            x       y       z     vdW  Elec       q    Type
REMARK                         _______ _______ _______ _____ _____    ______ ____
ROOT
ATOM      1  N   UNL     1      -6.108   2.582 126.332  0.00  0.00    +0.000 NA
ATOM      2  C   UNL     1      -6.068   1.399 125.467  0.00  0.00    +0.000 C 
ATOM      3  C   UNL     1      -6.336   0.226 126.434  0.00  0.00    +0.000 C 
ATOM      4  C   UNL     1      -7.640  -0.377 126.027  0.00  0.00    +0.000 C 
ATOM      5  C   UNL     1      -7.659  -1.225 124.733  0.00  0.00    +0.000 C 
ATOM      6  C   UNL     1      -8.462  -2.313 124.819  0.00  0.00    +0.000 C 
ATOM      7  C   UNL     1      -8.657  -2.566 126.247  0.00  0.00    +0.000 A 
ATOM      8  C   UNL     1      -9.034  -3.740 126.911  0.00  0.00    +0.000 A 
ATOM      9  C   UNL     1      -8.760  -3.841 128.285  0.00  0.00    +0.000 A 
ATOM     10  C   UNL     1      -8.086  -2.813 128.951  0.00  0.00    +0.000 A 
ATOM     11  C   UNL     1      -7.743  -1.648 128.284  0.00  0.00    +0.000 A 
ATOM     12  C   UNL     1      -8.079  -1.496 126.952  0.00  0.00    +0.000 A 
ATOM     13  C   UNL     1      -8.508   1.038 126.109  0.00  0.00    +0.000 C 
ATOM     14  C   UNL     1      -7.620   2.442 126.877  0.00  0.00    +0.000 C 
ENDROOT
BRANCH   1  15
ATOM     15  S   UNL     1      -5.546   4.001 125.452  0.00  0.00    +0.000 S 
ATOM     16  O   UNL     1      -4.124   4.044 125.587  0.00  0.00    +0.000 OA
ATOM     17  O   UNL     1      -6.378   5.120 125.929  0.00  0.00    +0.000 OA
BRANCH  15  22
ATOM     18  C   UNL     1      -7.075   3.950 119.485  0.00  0.00    +0.000 C 
ATOM     19  C   UNL     1      -6.680   3.912 120.939  0.00  0.00    +0.000 A 
ATOM     20  C   UNL     1      -7.565   3.459 121.919  0.00  0.00    +0.000 A 
ATOM     21  C   UNL     1      -7.187   3.477 123.277  0.00  0.00    +0.000 A 
ATOM     22  C   UNL     1      -5.920   3.970 123.683  0.00  0.00    +0.000 A 
ATOM     23  C   UNL     1      -5.017   4.364 122.704  0.00  0.00    +0.000 A 
ATOM     24  C   UNL     1      -5.405   4.345 121.344  0.00  0.00    +0.000 A 
ENDBRANCH  15  22
ENDBRANCH   1  15
TORSDOF 2
ENDMDL
MODEL 5
REMARK VINA RESULT:      -8.5      8.211      9.807
REMARK  Name = CHEMBL341490
REMARK  3 active torsions:
REMARK  status: ('A' for Active; 'I' for Inactive)
REMARK    1  A    between atoms: C_1  and  C_2
REMARK    2  A    between atoms: C_5  and  S_6
REMARK    3  A    between atoms: S_6  and  N_9
REMARK                            x       y       z     vdW  Elec       q    Type
REMARK                         _______ _______ _______ _____ _____    ______ ____
ROOT
ATOM      1  N   UNL     1      -8.494   5.297 130.877  0.00  0.00    +0.000 NA
ATOM      2  C   UNL     1      -7.701   6.510 130.654  0.00  0.00    +0.000 C 
ATOM      3  C   UNL     1      -6.818   6.610 131.915  0.00  0.00    +0.000 C 
ATOM      4  C   UNL     1      -5.404   6.440 131.466  0.00  0.00    +0.000 C 
ATOM      5  C   UNL     1      -4.749   7.621 130.713  0.00  0.00    +0.000 C 
ATOM      6  C   UNL     1      -3.444   7.802 131.033  0.00  0.00    +0.000 C 
ATOM      7  C   UNL     1      -3.241   7.126 132.316  0.00  0.00    +0.000 A 
ATOM      8  C   UNL     1      -2.251   7.317 133.288  0.00  0.00    +0.000 A 
ATOM      9  C   UNL     1      -2.499   6.846 134.588  0.00  0.00    +0.000 A 
ATOM     10  C   UNL     1      -3.723   6.249 134.904  0.00  0.00    +0.000 A 
ATOM     11  C   UNL     1      -4.681   6.046 133.924  0.00  0.00    +0.000 A 
ATOM     12  C   UNL     1      -4.422   6.426 132.621  0.00  0.00    +0.000 A 
ATOM     13  C   UNL     1      -5.654   4.992 130.688  0.00  0.00    +0.000 C 
ATOM     14  C   UNL     1      -7.290   4.229 130.989  0.00  0.00    +0.000 C 
ENDROOT
BRANCH   1  15
ATOM     15  S   UNL     1      -9.766   5.167 129.666  0.00  0.00    +0.000 S 
ATOM     16  O   UNL     1     -10.582   4.052 130.029  0.00  0.00    +0.000 OA
ATOM     17  O   UNL     1      -9.080   5.199 128.362  0.00  0.00    +0.000 OA
BRANCH  15  22
ATOM     18  C   UNL     1     -13.428  10.084 129.067  0.00  0.00    +0.000 C 
ATOM     19  C   UNL     1     -12.498   8.912 129.245  0.00  0.00    +0.000 A 
ATOM     20  C   UNL     1     -11.466   8.660 128.339  0.00  0.00    +0.000 A 
ATOM     21  C   UNL     1     -10.640   7.529 128.503  0.00  0.00    +0.000 A 
ATOM     22  C   UNL     1     -10.845   6.616 129.568  0.00  0.00    +0.000 A 
ATOM     23  C   UNL     1     -11.832   6.898 130.504  0.00  0.00    +0.000 A 
ATOM     24  C   UNL     1     -12.658   8.032 130.331  0.00  0.00    +0.000 A 
ENDBRANCH  15  22
ENDBRANCH   1  15
TORSDOF 2
ENDMDL
MODEL 6
REMARK VINA RESULT:      -8.5      1.177      1.581
REMARK  Name = CHEMBL341490
REMARK  3 active torsions:
REMARK  status: ('A' for Active; 'I' for Inactive)
REMARK    1  A    between atoms: C_1  and  C_2
REMARK    2  A    between atoms: C_5  and  S_6
REMARK    3  A    between atoms: S_6  and  N_9
REMARK                            x       y       z     vdW  Elec       q    Type
REMARK                         _______ _______ _______ _____ _____    ______ ____
ROOT
ATOM      1  N   UNL     1      -7.172   1.463 126.561  0.00  0.00    +0.000 NA
ATOM      2  C   UNL     1      -7.736   0.115 126.447  0.00  0.00    +0.000 C 
ATOM      3  C   UNL     1      -6.648  -0.793 127.057  0.00  0.00    +0.000 C 
ATOM      4  C   UNL     1      -7.236  -1.402 128.287  0.00  0.00    +0.000 C 
ATOM      5  C   UNL     1      -8.289  -2.518 128.095  0.00  0.00    +0.000 C 
ATOM      6  C   UNL     1      -8.186  -3.514 129.008  0.00  0.00    +0.000 C 
ATOM      7  C   UNL     1      -6.832  -3.427 129.556  0.00  0.00    +0.000 A 
ATOM      8  C   UNL     1      -6.057  -4.399 130.201  0.00  0.00    +0.000 A 
ATOM      9  C   UNL     1      -4.668  -4.202 130.268  0.00  0.00    +0.000 A 
ATOM     10  C   UNL     1      -4.080  -3.087 129.661  0.00  0.00    +0.000 A 
ATOM     11  C   UNL     1      -4.865  -2.123 129.049  0.00  0.00    +0.000 A 
ATOM     12  C   UNL     1      -6.241  -2.258 129.047  0.00  0.00    +0.000 A 
ATOM     13  C   UNL     1      -7.667   0.039 128.993  0.00  0.00    +0.000 C 
ATOM     14  C   UNL     1      -7.006   1.531 128.164  0.00  0.00    +0.000 C 
ENDROOT
BRANCH   1  15
ATOM     15  S   UNL     1      -8.155   2.615 125.660  0.00  0.00    +0.000 S 
ATOM     16  O   UNL     1      -8.284   3.784 126.472  0.00  0.00    +0.000 OA
ATOM     17  O   UNL     1      -9.349   1.867 125.229  0.00  0.00    +0.000 OA
BRANCH  15  22
ATOM     18  C   UNL     1      -5.453   4.311 120.391  0.00  0.00    +0.000 C 
ATOM     19  C   UNL     1      -6.138   3.946 121.682  0.00  0.00    +0.000 A 
ATOM     20  C   UNL     1      -5.522   4.161 122.916  0.00  0.00    +0.000 A 
ATOM     21  C   UNL     1      -6.165   3.767 124.107  0.00  0.00    +0.000 A 
ATOM     22  C   UNL     1      -7.433   3.130 124.084  0.00  0.00    +0.000 A 
ATOM     23  C   UNL     1      -8.073   2.970 122.862  0.00  0.00    +0.000 A 
ATOM     24  C   UNL     1      -7.420   3.366 121.671  0.00  0.00    +0.000 A 
ENDBRANCH  15  22
ENDBRANCH   1  15
TORSDOF 2
ENDMDL
MODEL 7
REMARK VINA RESULT:      -8.4      8.009      9.381
REMARK  Name = CHEMBL341490
REMARK  3 active torsions:
REMARK  status: ('A' for Active; 'I' for Inactive)
REMARK    1  A    between atoms: C_1  and  C_2
REMARK    2  A    between atoms: C_5  and  S_6
REMARK    3  A    between atoms: S_6  and  N_9
REMARK                            x       y       z     vdW  Elec       q    Type
REMARK                         _______ _______ _______ _____ _____    ______ ____
ROOT
ATOM      1  N   UNL     1      -7.640   6.149 130.260  0.00  0.00    +0.000 NA
ATOM      2  C   UNL     1      -6.546   5.197 130.046  0.00  0.00    +0.000 C 
ATOM      3  C   UNL     1      -5.281   5.999 130.418  0.00  0.00    +0.000 C 
ATOM      4  C   UNL     1      -4.693   5.341 131.622  0.00  0.00    +0.000 C 
ATOM      5  C   UNL     1      -3.972   3.989 131.413  0.00  0.00    +0.000 C 
ATOM      6  C   UNL     1      -2.864   3.848 132.182  0.00  0.00    +0.000 C 
ATOM      7  C   UNL     1      -2.472   5.200 132.584  0.00  0.00    +0.000 A 
ATOM      8  C   UNL     1      -1.233   5.688 133.016  0.00  0.00    +0.000 A 
ATOM      9  C   UNL     1      -1.007   7.072 132.953  0.00  0.00    +0.000 A 
ATOM     10  C   UNL     1      -1.980   7.927 132.425  0.00  0.00    +0.000 A 
ATOM     11  C   UNL     1      -3.210   7.429 132.024  0.00  0.00    +0.000 A 
ATOM     12  C   UNL     1      -3.482   6.081 132.158  0.00  0.00    +0.000 A 
ATOM     13  C   UNL     1      -6.075   5.415 132.541  0.00  0.00    +0.000 C 
ATOM     14  C   UNL     1      -7.418   6.437 131.831  0.00  0.00    +0.000 C 
ENDROOT
BRANCH   1  15
ATOM     15  S   UNL     1      -9.148   5.500 129.620  0.00  0.00    +0.000 S 
ATOM     16  O   UNL     1      -9.669   4.600 130.599  0.00  0.00    +0.000 OA
ATOM     17  O   UNL     1      -8.833   5.027 128.260  0.00  0.00    +0.000 OA
BRANCH  15  22
ATOM     18  C   UNL     1     -13.466   9.820 128.817  0.00  0.00    +0.000 C 
ATOM     19  C   UNL     1     -12.443   8.726 128.990  0.00  0.00    +0.000 A 
ATOM     20  C   UNL     1     -12.385   7.966 130.159  0.00  0.00    +0.000 A 
ATOM     21  C   UNL     1     -11.389   6.981 130.315  0.00  0.00    +0.000 A 
ATOM     22  C   UNL     1     -10.417   6.750 129.307  0.00  0.00    +0.000 A 
ATOM     23  C   UNL     1     -10.511   7.464 128.119  0.00  0.00    +0.000 A 
ATOM     24  C   UNL     1     -11.511   8.453 127.972  0.00  0.00    +0.000 A 
ENDBRANCH  15  22
ENDBRANCH   1  15
TORSDOF 2
ENDMDL
MODEL 8
REMARK VINA RESULT:      -8.4      7.116      9.639
REMARK  Name = CHEMBL341490
REMARK  3 active torsions:
REMARK  status: ('A' for Active; 'I' for Inactive)
REMARK    1  A    between atoms: C_1  and  C_2
REMARK    2  A    between atoms: C_5  and  S_6
REMARK    3  A    between atoms: S_6  and  N_9
REMARK                            x       y       z     vdW  Elec       q    Type
REMARK                         _______ _______ _______ _____ _____    ______ ____
ROOT
ATOM      1  N   UNL     1      -6.747   5.306 129.955  0.00  0.00    +0.000 NA
ATOM      2  C   UNL     1      -7.535   5.776 131.099  0.00  0.00    +0.000 C 
ATOM      3  C   UNL     1      -8.497   6.813 130.483  0.00  0.00    +0.000 C 
ATOM      4  C   UNL     1      -9.878   6.267 130.643  0.00  0.00    +0.000 C 
ATOM      5  C   UNL     1     -10.495   6.294 132.061  0.00  0.00    +0.000 C 
ATOM      6  C   UNL     1     -11.819   6.585 132.063  0.00  0.00    +0.000 C 
ATOM      7  C   UNL     1     -12.097   7.232 130.780  0.00  0.00    +0.000 A 
ATOM      8  C   UNL     1     -13.148   8.079 130.407  0.00  0.00    +0.000 A 
ATOM      9  C   UNL     1     -12.979   8.883 129.268  0.00  0.00    +0.000 A 
ATOM     10  C   UNL     1     -11.772   8.869 128.562  0.00  0.00    +0.000 A 
ATOM     11  C   UNL     1     -10.752   8.006 128.931  0.00  0.00    +0.000 A 
ATOM     12  C   UNL     1     -10.932   7.146 129.998  0.00  0.00    +0.000 A 
ATOM     13  C   UNL     1      -9.566   4.814 129.898  0.00  0.00    +0.000 C 
ATOM     14  C   UNL     1      -7.946   4.715 129.052  0.00  0.00    +0.000 C 
ENDROOT
BRANCH   1  15
ATOM     15  S   UNL     1      -5.399   4.315 130.508  0.00  0.00    +0.000 S 
ATOM     16  O   UNL     1      -5.952   3.105 131.029  0.00  0.00    +0.000 OA
ATOM     17  O   UNL     1      -4.583   5.194 131.363  0.00  0.00    +0.000 OA
BRANCH  15  22
ATOM     18  C   UNL     1      -1.244   2.895 126.188  0.00  0.00    +0.000 C 
ATOM     19  C   UNL     1      -2.293   3.262 127.205  0.00  0.00    +0.000 A 
ATOM     20  C   UNL     1      -2.280   4.503 127.846  0.00  0.00    +0.000 A 
ATOM     21  C   UNL     1      -3.246   4.803 128.828  0.00  0.00    +0.000 A 
ATOM     22  C   UNL     1      -4.235   3.857 129.202  0.00  0.00    +0.000 A 
ATOM     23  C   UNL     1      -4.286   2.646 128.523  0.00  0.00    +0.000 A 
ATOM     24  C   UNL     1      -3.311   2.352 127.541  0.00  0.00    +0.000 A 
ENDBRANCH  15  22
ENDBRANCH   1  15
TORSDOF 2
ENDMDL
MODEL 9
REMARK VINA RESULT:      -8.4      4.878      6.390
REMARK  Name = CHEMBL341490
REMARK  3 active torsions:
REMARK  status: ('A' for Active; 'I' for Inactive)
REMARK    1  A    between atoms: C_1  and  C_2
REMARK    2  A    between atoms: C_5  and  S_6
REMARK    3  A    between atoms: S_6  and  N_9
REMARK                            x       y       z     vdW  Elec       q    Type
REMARK                         _______ _______ _______ _____ _____    ______ ____
ROOT
ATOM      1  N   UNL     1      -6.237   2.846 126.960  0.00  0.00    +0.000 NA
ATOM      2  C   UNL     1      -5.970   4.282 127.086  0.00  0.00    +0.000 C 
ATOM      3  C   UNL     1      -5.309   4.414 128.474  0.00  0.00    +0.000 C 
ATOM      4  C   UNL     1      -3.910   4.881 128.241  0.00  0.00    +0.000 C 
ATOM      5  C   UNL     1      -3.712   6.357 127.826  0.00  0.00    +0.000 C 
ATOM      6  C   UNL     1      -2.617   6.928 128.384  0.00  0.00    +0.000 C 
ATOM      7  C   UNL     1      -2.274   6.105 129.544  0.00  0.00    +0.000 A 
ATOM      8  C   UNL     1      -1.525   6.422 130.684  0.00  0.00    +0.000 A 
ATOM      9  C   UNL     1      -1.677   5.614 131.823  0.00  0.00    +0.000 A 
ATOM     10  C   UNL     1      -2.589   4.554 131.823  0.00  0.00    +0.000 A 
ATOM     11  C   UNL     1      -3.302   4.239 130.678  0.00  0.00    +0.000 A 
ATOM     12  C   UNL     1      -3.104   4.971 129.523  0.00  0.00    +0.000 A 
ATOM     13  C   UNL     1      -3.502   3.658 127.192  0.00  0.00    +0.000 C 
ATOM     14  C   UNL     1      -4.724   2.300 127.081  0.00  0.00    +0.000 C 
ENDROOT
BRANCH   1  15
ATOM     15  S   UNL     1      -7.247   2.533 125.551  0.00  0.00    +0.000 S 
ATOM     16  O   UNL     1      -8.504   3.171 125.784  0.00  0.00    +0.000 OA
ATOM     17  O   UNL     1      -7.175   1.079 125.324  0.00  0.00    +0.000 OA
BRANCH  15  22
ATOM     18  C   UNL     1      -5.240   4.798 120.185  0.00  0.00    +0.000 C 
ATOM     19  C   UNL     1      -5.695   4.202 121.492  0.00  0.00    +0.000 A 
ATOM     20  C   UNL     1      -6.762   3.303 121.548  0.00  0.00    +0.000 A 
ATOM     21  C   UNL     1      -7.197   2.797 122.789  0.00  0.00    +0.000 A 
ATOM     22  C   UNL     1      -6.585   3.198 124.004  0.00  0.00    +0.000 A 
ATOM     23  C   UNL     1      -5.486   4.045 123.945  0.00  0.00    +0.000 A 
ATOM     24  C   UNL     1      -5.056   4.550 122.696  0.00  0.00    +0.000 A 
ENDBRANCH  15  22
ENDBRANCH   1  15
TORSDOF 2
ENDMDL
