MODEL 1
REMARK VINA RESULT:      -8.2      0.000      0.000
REMARK  Name = CHEMBL511215
REMARK  10 active torsions:
REMARK  status: ('A' for Active; 'I' for Inactive)
REMARK    1  A    between atoms: C_1  and  O_2
REMARK    2  A    between atoms: O_2  and  C_3
REMARK    3  A    between atoms: C_3  and  C_4
REMARK    4  A    between atoms: C_7  and  C_8
REMARK    5  A    between atoms: C_11  and  C_12
REMARK    6  A    between atoms: C_15  and  C_16
REMARK    7  A    between atoms: C_17  and  C_18
REMARK    8  A    between atoms: N_22  and  C_23
REMARK    9  A    between atoms: C_26  and  O_27
REMARK   10  A    between atoms: O_27  and  C_28
REMARK                            x       y       z     vdW  Elec       q    Type
REMARK                         _______ _______ _______ _____ _____    ______ ____
ROOT
ATOM      1  C   UNL     1      -5.870   3.632 122.104  0.00  0.00    +0.000 A 
ATOM      2  N   UNL     1      -5.200   4.716 122.460  0.00  0.00    +0.000 NA
ATOM      3  N   UNL     1      -5.514   5.017 123.775  0.00  0.00    +0.000 NA
ATOM      4  C   UNL     1      -6.377   4.117 124.218  0.00  0.00    +0.000 A 
ATOM      5  N   UNL     1      -6.656   3.255 123.173  0.00  0.00    +0.000 N 
ENDROOT
BRANCH   4   6
ATOM      6  C   UNL     1      -6.882   3.923 125.583  0.00  0.00    +0.000 A 
ATOM      7  C   UNL     1      -7.945   4.681 126.084  0.00  0.00    +0.000 A 
ATOM      8  N   UNL     1      -8.348   4.651 127.382  0.00  0.00    +0.000 NA
ATOM      9  C   UNL     1      -7.642   3.835 128.203  0.00  0.00    +0.000 A 
ATOM     10  C   UNL     1      -6.582   3.079 127.699  0.00  0.00    +0.000 A 
ATOM     11  N   UNL     1      -6.173   3.108 126.395  0.00  0.00    +0.000 NA
BRANCH   9  12
ATOM     12  C   UNL     1      -8.055   3.787 129.614  0.00  0.00    +0.000 A 
ATOM     13  C   UNL     1      -7.820   4.872 130.468  0.00  0.00    +0.000 A 
ATOM     14  C   UNL     1      -8.222   4.838 131.809  0.00  0.00    +0.000 A 
ATOM     15  C   UNL     1      -8.864   3.710 132.343  0.00  0.00    +0.000 A 
ATOM     16  C   UNL     1      -9.247   3.703 133.797  0.00  0.00    +0.000 C 
ATOM     17  C   UNL     1      -9.120   2.613 131.502  0.00  0.00    +0.000 A 
ATOM     18  C   UNL     1      -9.827   1.372 131.979  0.00  0.00    +0.000 C 
ATOM     19  C   UNL     1      -8.710   2.665 130.153  0.00  0.00    +0.000 A 
ENDBRANCH   9  12
ENDBRANCH   4   6
BRANCH   5  20
ATOM     20  C   UNL     1      -7.544   2.173 123.226  0.00  0.00    +0.000 A 
ATOM     21  C   UNL     1      -8.885   2.375 122.938  0.00  0.00    +0.000 A 
ATOM     22  C   UNL     1      -9.718   1.266 122.906  0.00  0.00    +0.000 A 
ATOM     23  C   UNL     1      -9.183   0.008 123.170  0.00  0.00    +0.000 A 
ATOM     24  N   UNL     1      -7.875  -0.184 123.457  0.00  0.00    +0.000 NA
ATOM     25  C   UNL     1      -7.070   0.895 123.467  0.00  0.00    +0.000 A 
BRANCH  23  26
ATOM     26  O   UNL     1      -9.902  -1.153 123.169  0.00  0.00    +0.000 OA
ATOM     27  C   UNL     1      -9.156  -2.348 123.346  0.00  0.00    +0.000 C 
ENDBRANCH  23  26
ENDBRANCH   5  20
BRANCH   1  28
ATOM     28  C   UNL     1      -5.972   3.019 120.739  0.00  0.00    +0.000 C 
BRANCH  28  30
ATOM     29  C   UNL     1      -7.826   4.159 119.837  0.00  0.00    +0.000 C 
ATOM     30  O   UNL     1      -6.406   4.008 119.803  0.00  0.00    +0.000 OA
ENDBRANCH  28  30
ENDBRANCH   1  28
TORSDOF 6
ENDMDL
MODEL 2
REMARK VINA RESULT:      -7.7      4.433      8.621
REMARK  Name = CHEMBL511215
REMARK  10 active torsions:
REMARK  status: ('A' for Active; 'I' for Inactive)
REMARK    1  A    between atoms: C_1  and  O_2
REMARK    2  A    between atoms: O_2  and  C_3
REMARK    3  A    between atoms: C_3  and  C_4
REMARK    4  A    between atoms: C_7  and  C_8
REMARK    5  A    between atoms: C_11  and  C_12
REMARK    6  A    between atoms: C_15  and  C_16
REMARK    7  A    between atoms: C_17  and  C_18
REMARK    8  A    between atoms: N_22  and  C_23
REMARK    9  A    between atoms: C_26  and  O_27
REMARK   10  A    between atoms: O_27  and  C_28
REMARK                            x       y       z     vdW  Elec       q    Type
REMARK                         _______ _______ _______ _____ _____    ______ ____
ROOT
ATOM      1  C   UNL     1      -9.257   5.707 130.076  0.00  0.00    +0.000 A 
ATOM      2  N   UNL     1      -9.324   6.256 128.874  0.00  0.00    +0.000 NA
ATOM      3  N   UNL     1      -8.783   5.373 127.954  0.00  0.00    +0.000 NA
ATOM      4  C   UNL     1      -8.386   4.287 128.598  0.00  0.00    +0.000 A 
ATOM      5  N   UNL     1      -8.629   4.486 129.944  0.00  0.00    +0.000 N 
ENDROOT
BRANCH   4   6
ATOM      6  C   UNL     1      -7.895   3.019 128.043  0.00  0.00    +0.000 A 
ATOM      7  C   UNL     1      -6.539   2.813 127.777  0.00  0.00    +0.000 A 
ATOM      8  N   UNL     1      -6.054   1.724 127.123  0.00  0.00    +0.000 NA
ATOM      9  C   UNL     1      -6.976   0.819 126.714  0.00  0.00    +0.000 A 
ATOM     10  C   UNL     1      -8.331   1.028 126.983  0.00  0.00    +0.000 A 
ATOM     11  N   UNL     1      -8.822   2.122 127.638  0.00  0.00    +0.000 NA
BRANCH   9  12
ATOM     12  C   UNL     1      -6.480  -0.367 126.000  0.00  0.00    +0.000 A 
ATOM     13  C   UNL     1      -5.837  -1.404 126.690  0.00  0.00    +0.000 A 
ATOM     14  C   UNL     1      -5.374  -2.541 126.018  0.00  0.00    +0.000 A 
ATOM     15  C   UNL     1      -5.529  -2.675 124.629  0.00  0.00    +0.000 A 
ATOM     16  C   UNL     1      -4.985  -3.897 123.944  0.00  0.00    +0.000 C 
ATOM     17  C   UNL     1      -6.180  -1.652 123.917  0.00  0.00    +0.000 A 
ATOM     18  C   UNL     1      -6.416  -1.720 122.432  0.00  0.00    +0.000 C 
ATOM     19  C   UNL     1      -6.642  -0.513 124.611  0.00  0.00    +0.000 A 
ENDBRANCH   9  12
ENDBRANCH   4   6
BRANCH   5  20
ATOM     20  C   UNL     1      -8.329   3.578 130.968  0.00  0.00    +0.000 A 
ATOM     21  C   UNL     1      -9.273   2.633 131.341  0.00  0.00    +0.000 A 
ATOM     22  C   UNL     1      -8.907   1.688 132.290  0.00  0.00    +0.000 A 
ATOM     23  C   UNL     1      -7.626   1.732 132.832  0.00  0.00    +0.000 A 
ATOM     24  N   UNL     1      -6.710   2.660 132.470  0.00  0.00    +0.000 NA
ATOM     25  C   UNL     1      -7.066   3.561 131.535  0.00  0.00    +0.000 A 
BRANCH  23  26
ATOM     26  O   UNL     1      -7.154   0.860 133.772  0.00  0.00    +0.000 OA
ATOM     27  C   UNL     1      -5.913   1.202 134.372  0.00  0.00    +0.000 C 
ENDBRANCH  23  26
ENDBRANCH   5  20
BRANCH   1  28
ATOM     28  C   UNL     1      -9.575   6.340 131.398  0.00  0.00    +0.000 C 
BRANCH  28  30
ATOM     29  C   UNL     1     -11.915   6.622 131.383  0.00  0.00    +0.000 C 
ATOM     30  O   UNL     1     -10.826   5.841 131.877  0.00  0.00    +0.000 OA
ENDBRANCH  28  30
ENDBRANCH   1  28
TORSDOF 6
ENDMDL
MODEL 3
REMARK VINA RESULT:      -7.4      2.747      3.537
REMARK  Name = CHEMBL511215
REMARK  10 active torsions:
REMARK  status: ('A' for Active; 'I' for Inactive)
REMARK    1  A    between atoms: C_1  and  O_2
REMARK    2  A    between atoms: O_2  and  C_3
REMARK    3  A    between atoms: C_3  and  C_4
REMARK    4  A    between atoms: C_7  and  C_8
REMARK    5  A    between atoms: C_11  and  C_12
REMARK    6  A    between atoms: C_15  and  C_16
REMARK    7  A    between atoms: C_17  and  C_18
REMARK    8  A    between atoms: N_22  and  C_23
REMARK    9  A    between atoms: C_26  and  O_27
REMARK   10  A    between atoms: O_27  and  C_28
REMARK                            x       y       z     vdW  Elec       q    Type
REMARK                         _______ _______ _______ _____ _____    ______ ____
ROOT
ATOM      1  C   UNL     1      -6.470   3.451 122.842  0.00  0.00    +0.000 A 
ATOM      2  N   UNL     1      -5.867   4.437 123.484  0.00  0.00    +0.000 NA
ATOM      3  N   UNL     1      -5.870   4.150 124.839  0.00  0.00    +0.000 NA
ATOM      4  C   UNL     1      -6.478   2.989 125.021  0.00  0.00    +0.000 A 
ATOM      5  N   UNL     1      -6.908   2.544 123.785  0.00  0.00    +0.000 N 
ENDROOT
BRANCH   4   6
ATOM      6  C   UNL     1      -6.594   2.197 126.252  0.00  0.00    +0.000 A 
ATOM      7  C   UNL     1      -5.627   1.252 126.608  0.00  0.00    +0.000 A 
ATOM      8  N   UNL     1      -5.762   0.388 127.649  0.00  0.00    +0.000 NA
ATOM      9  C   UNL     1      -6.923   0.475 128.344  0.00  0.00    +0.000 A 
ATOM     10  C   UNL     1      -7.886   1.421 127.986  0.00  0.00    +0.000 A 
ATOM     11  N   UNL     1      -7.754   2.290 126.940  0.00  0.00    +0.000 NA
BRANCH   9  12
ATOM     12  C   UNL     1      -7.097  -0.452 129.472  0.00  0.00    +0.000 A 
ATOM     13  C   UNL     1      -7.779  -0.054 130.630  0.00  0.00    +0.000 A 
ATOM     14  C   UNL     1      -7.961  -0.936 131.702  0.00  0.00    +0.000 A 
ATOM     15  C   UNL     1      -7.455  -2.245 131.656  0.00  0.00    +0.000 A 
ATOM     16  C   UNL     1      -7.642  -3.147 132.844  0.00  0.00    +0.000 C 
ATOM     17  C   UNL     1      -6.776  -2.670 130.500  0.00  0.00    +0.000 A 
ATOM     18  C   UNL     1      -6.223  -4.062 130.350  0.00  0.00    +0.000 C 
ATOM     19  C   UNL     1      -6.604  -1.768 129.428  0.00  0.00    +0.000 A 
ENDBRANCH   9  12
ENDBRANCH   4   6
BRANCH   5  20
ATOM     20  C   UNL     1      -7.618   1.359 123.549  0.00  0.00    +0.000 A 
ATOM     21  C   UNL     1      -6.923   0.185 123.301  0.00  0.00    +0.000 A 
ATOM     22  C   UNL     1      -7.655  -0.987 123.168  0.00  0.00    +0.000 A 
ATOM     23  C   UNL     1      -9.041  -0.938 123.276  0.00  0.00    +0.000 A 
ATOM     24  N   UNL     1      -9.716   0.211 123.511  0.00  0.00    +0.000 NA
ATOM     25  C   UNL     1      -8.998   1.341 123.659  0.00  0.00    +0.000 A 
BRANCH  23  26
ATOM     26  O   UNL     1      -9.864  -2.022 123.161  0.00  0.00    +0.000 OA
ATOM     27  C   UNL     1      -9.399  -3.224 123.757  0.00  0.00    +0.000 C 
ENDBRANCH  23  26
ENDBRANCH   5  20
BRANCH   1  28
ATOM     28  C   UNL     1      -6.842   3.386 121.391  0.00  0.00    +0.000 C 
BRANCH  28  30
ATOM     29  C   UNL     1      -6.651   4.609 119.386  0.00  0.00    +0.000 C 
ATOM     30  O   UNL     1      -6.059   4.329 120.655  0.00  0.00    +0.000 OA
ENDBRANCH  28  30
ENDBRANCH   1  28
TORSDOF 6
ENDMDL
MODEL 4
REMARK VINA RESULT:      -7.3      4.590      6.427
REMARK  Name = CHEMBL511215
REMARK  10 active torsions:
REMARK  status: ('A' for Active; 'I' for Inactive)
REMARK    1  A    between atoms: C_1  and  O_2
REMARK    2  A    between atoms: O_2  and  C_3
REMARK    3  A    between atoms: C_3  and  C_4
REMARK    4  A    between atoms: C_7  and  C_8
REMARK    5  A    between atoms: C_11  and  C_12
REMARK    6  A    between atoms: C_15  and  C_16
REMARK    7  A    between atoms: C_17  and  C_18
REMARK    8  A    between atoms: N_22  and  C_23
REMARK    9  A    between atoms: C_26  and  O_27
REMARK   10  A    between atoms: O_27  and  C_28
REMARK                            x       y       z     vdW  Elec       q    Type
REMARK                         _______ _______ _______ _____ _____    ______ ____
ROOT
ATOM      1  C   UNL     1      -7.548   0.356 123.783  0.00  0.00    +0.000 A 
ATOM      2  N   UNL     1      -7.251  -0.731 123.092  0.00  0.00    +0.000 NA
ATOM      3  N   UNL     1      -6.853  -1.721 123.975  0.00  0.00    +0.000 NA
ATOM      4  C   UNL     1      -6.906  -1.234 125.204  0.00  0.00    +0.000 A 
ATOM      5  N   UNL     1      -7.297   0.089 125.113  0.00  0.00    +0.000 N 
ENDROOT
BRANCH   4   6
ATOM      6  C   UNL     1      -6.728  -1.939 126.479  0.00  0.00    +0.000 A 
ATOM      7  C   UNL     1      -7.815  -2.468 127.181  0.00  0.00    +0.000 A 
ATOM      8  N   UNL     1      -7.724  -2.990 128.433  0.00  0.00    +0.000 NA
ATOM      9  C   UNL     1      -6.492  -2.964 128.999  0.00  0.00    +0.000 A 
ATOM     10  C   UNL     1      -5.408  -2.436 128.294  0.00  0.00    +0.000 A 
ATOM     11  N   UNL     1      -5.496  -1.909 127.036  0.00  0.00    +0.000 NA
BRANCH   9  12
ATOM     12  C   UNL     1      -6.367  -3.518 130.354  0.00  0.00    +0.000 A 
ATOM     13  C   UNL     1      -5.487  -4.576 130.620  0.00  0.00    +0.000 A 
ATOM     14  C   UNL     1      -5.353  -5.098 131.912  0.00  0.00    +0.000 A 
ATOM     15  C   UNL     1      -6.104  -4.587 132.981  0.00  0.00    +0.000 A 
ATOM     16  C   UNL     1      -5.954  -5.203 134.345  0.00  0.00    +0.000 C 
ATOM     17  C   UNL     1      -6.987  -3.519 132.742  0.00  0.00    +0.000 A 
ATOM     18  C   UNL     1      -7.813  -2.889 133.831  0.00  0.00    +0.000 C 
ATOM     19  C   UNL     1      -7.108  -3.003 131.433  0.00  0.00    +0.000 A 
ENDBRANCH   9  12
ENDBRANCH   4   6
BRANCH   5  20
ATOM     20  C   UNL     1      -7.451   0.968 126.193  0.00  0.00    +0.000 A 
ATOM     21  C   UNL     1      -6.379   1.752 126.594  0.00  0.00    +0.000 A 
ATOM     22  C   UNL     1      -6.594   2.680 127.603  0.00  0.00    +0.000 A 
ATOM     23  C   UNL     1      -7.859   2.779 128.175  0.00  0.00    +0.000 A 
ATOM     24  N   UNL     1      -8.900   2.008 127.786  0.00  0.00    +0.000 NA
ATOM     25  C   UNL     1      -8.689   1.124 126.793  0.00  0.00    +0.000 A 
BRANCH  23  26
ATOM     26  O   UNL     1      -8.190   3.651 129.174  0.00  0.00    +0.000 OA
ATOM     27  C   UNL     1      -9.267   3.259 130.012  0.00  0.00    +0.000 C 
ENDBRANCH  23  26
ENDBRANCH   5  20
BRANCH   1  28
ATOM     28  C   UNL     1      -7.876   1.722 123.257  0.00  0.00    +0.000 C 
BRANCH  28  30
ATOM     29  C   UNL     1      -6.339   3.508 123.268  0.00  0.00    +0.000 C 
ATOM     30  O   UNL     1      -6.719   2.285 122.635  0.00  0.00    +0.000 OA
ENDBRANCH  28  30
ENDBRANCH   1  28
TORSDOF 6
ENDMDL
MODEL 5
REMARK VINA RESULT:      -7.2      4.510      6.668
REMARK  Name = CHEMBL511215
REMARK  10 active torsions:
REMARK  status: ('A' for Active; 'I' for Inactive)
REMARK    1  A    between atoms: C_1  and  O_2
REMARK    2  A    between atoms: O_2  and  C_3
REMARK    3  A    between atoms: C_3  and  C_4
REMARK    4  A    between atoms: C_7  and  C_8
REMARK    5  A    between atoms: C_11  and  C_12
REMARK    6  A    between atoms: C_15  and  C_16
REMARK    7  A    between atoms: C_17  and  C_18
REMARK    8  A    between atoms: N_22  and  C_23
REMARK    9  A    between atoms: C_26  and  O_27
REMARK   10  A    between atoms: O_27  and  C_28
REMARK                            x       y       z     vdW  Elec       q    Type
REMARK                         _______ _______ _______ _____ _____    ______ ____
ROOT
ATOM      1  C   UNL     1      -8.651  -1.974 123.697  0.00  0.00    +0.000 A 
ATOM      2  N   UNL     1      -8.590  -3.293 123.633  0.00  0.00    +0.000 NA
ATOM      3  N   UNL     1      -8.155  -3.776 124.856  0.00  0.00    +0.000 NA
ATOM      4  C   UNL     1      -7.949  -2.748 125.664  0.00  0.00    +0.000 A 
ATOM      5  N   UNL     1      -8.209  -1.594 124.948  0.00  0.00    +0.000 N 
ENDROOT
BRANCH   4   6
ATOM      6  C   UNL     1      -7.634  -2.757 127.098  0.00  0.00    +0.000 A 
ATOM      7  C   UNL     1      -6.339  -2.514 127.564  0.00  0.00    +0.000 A 
ATOM      8  N   UNL     1      -5.963  -2.663 128.862  0.00  0.00    +0.000 NA
ATOM      9  C   UNL     1      -6.930  -3.083 129.715  0.00  0.00    +0.000 A 
ATOM     10  C   UNL     1      -8.223  -3.323 129.245  0.00  0.00    +0.000 A 
ATOM     11  N   UNL     1      -8.604  -3.177 127.941  0.00  0.00    +0.000 NA
BRANCH   9  12
ATOM     12  C   UNL     1      -6.549  -3.256 131.125  0.00  0.00    +0.000 A 
ATOM     13  C   UNL     1      -5.222  -3.528 131.483  0.00  0.00    +0.000 A 
ATOM     14  C   UNL     1      -4.852  -3.680 132.824  0.00  0.00    +0.000 A 
ATOM     15  C   UNL     1      -5.800  -3.576 133.853  0.00  0.00    +0.000 A 
ATOM     16  C   UNL     1      -5.364  -3.782 135.278  0.00  0.00    +0.000 C 
ATOM     17  C   UNL     1      -7.137  -3.294 133.520  0.00  0.00    +0.000 A 
ATOM     18  C   UNL     1      -8.217  -3.138 134.556  0.00  0.00    +0.000 C 
ATOM     19  C   UNL     1      -7.492  -3.142 132.162  0.00  0.00    +0.000 A 
ENDBRANCH   9  12
ENDBRANCH   4   6
BRANCH   5  20
ATOM     20  C   UNL     1      -8.086  -0.288 125.438  0.00  0.00    +0.000 A 
ATOM     21  C   UNL     1      -6.905   0.410 125.235  0.00  0.00    +0.000 A 
ATOM     22  C   UNL     1      -6.853   1.734 125.648  0.00  0.00    +0.000 A 
ATOM     23  C   UNL     1      -7.971   2.300 126.253  0.00  0.00    +0.000 A 
ATOM     24  N   UNL     1      -9.119   1.615 126.455  0.00  0.00    +0.000 NA
ATOM     25  C   UNL     1      -9.169   0.337 126.034  0.00  0.00    +0.000 A 
BRANCH  23  26
ATOM     26  O   UNL     1      -8.038   3.589 126.701  0.00  0.00    +0.000 OA
ATOM     27  C   UNL     1      -8.055   4.597 125.701  0.00  0.00    +0.000 C 
ENDBRANCH  23  26
ENDBRANCH   5  20
BRANCH   1  28
ATOM     28  C   UNL     1      -8.919  -1.007 122.582  0.00  0.00    +0.000 C 
BRANCH  28  30
ATOM     29  C   UNL     1     -10.323   0.884 122.637  0.00  0.00    +0.000 C 
ATOM     30  O   UNL     1     -10.268  -0.543 122.666  0.00  0.00    +0.000 OA
ENDBRANCH  28  30
ENDBRANCH   1  28
TORSDOF 6
ENDMDL
MODEL 6
REMARK VINA RESULT:      -7.1      4.372      7.594
REMARK  Name = CHEMBL511215
REMARK  10 active torsions:
REMARK  status: ('A' for Active; 'I' for Inactive)
REMARK    1  A    between atoms: C_1  and  O_2
REMARK    2  A    between atoms: O_2  and  C_3
REMARK    3  A    between atoms: C_3  and  C_4
REMARK    4  A    between atoms: C_7  and  C_8
REMARK    5  A    between atoms: C_11  and  C_12
REMARK    6  A    between atoms: C_15  and  C_16
REMARK    7  A    between atoms: C_17  and  C_18
REMARK    8  A    between atoms: N_22  and  C_23
REMARK    9  A    between atoms: C_26  and  O_27
REMARK   10  A    between atoms: O_27  and  C_28
REMARK                            x       y       z     vdW  Elec       q    Type
REMARK                         _______ _______ _______ _____ _____    ______ ____
ROOT
ATOM      1  C   UNL     1      -6.595  -0.216 131.938  0.00  0.00    +0.000 A 
ATOM      2  N   UNL     1      -6.886  -0.093 133.222  0.00  0.00    +0.000 NA
ATOM      3  N   UNL     1      -7.625   1.065 133.399  0.00  0.00    +0.000 NA
ATOM      4  C   UNL     1      -7.783   1.647 132.220  0.00  0.00    +0.000 A 
ATOM      5  N   UNL     1      -7.106   0.887 131.285  0.00  0.00    +0.000 N 
ENDROOT
BRANCH   4   6
ATOM      6  C   UNL     1      -8.616   2.805 131.873  0.00  0.00    +0.000 A 
ATOM      7  C   UNL     1      -9.890   2.650 131.319  0.00  0.00    +0.000 A 
ATOM      8  N   UNL     1     -10.635   3.681 130.838  0.00  0.00    +0.000 NA
ATOM      9  C   UNL     1     -10.064   4.909 130.909  0.00  0.00    +0.000 A 
ATOM     10  C   UNL     1      -8.791   5.059 131.465  0.00  0.00    +0.000 A 
ATOM     11  N   UNL     1      -8.039   4.026 131.947  0.00  0.00    +0.000 NA
BRANCH   9  12
ATOM     12  C   UNL     1     -10.846   6.041 130.392  0.00  0.00    +0.000 A 
ATOM     13  C   UNL     1     -11.882   6.604 131.148  0.00  0.00    +0.000 A 
ATOM     14  C   UNL     1     -12.621   7.691 130.667  0.00  0.00    +0.000 A 
ATOM     15  C   UNL     1     -12.355   8.245 129.406  0.00  0.00    +0.000 A 
ATOM     16  C   UNL     1     -13.198   9.390 128.913  0.00  0.00    +0.000 C 
ATOM     17  C   UNL     1     -11.313   7.704 128.632  0.00  0.00    +0.000 A 
ATOM     18  C   UNL     1     -10.938   8.250 127.280  0.00  0.00    +0.000 C 
ATOM     19  C   UNL     1     -10.577   6.609 129.134  0.00  0.00    +0.000 A 
ENDBRANCH   9  12
ENDBRANCH   4   6
BRANCH   5  20
ATOM     20  C   UNL     1      -7.008   1.177 129.918  0.00  0.00    +0.000 A 
ATOM     21  C   UNL     1      -7.931   0.633 129.036  0.00  0.00    +0.000 A 
ATOM     22  C   UNL     1      -7.864   1.018 127.705  0.00  0.00    +0.000 A 
ATOM     23  C   UNL     1      -6.878   1.916 127.308  0.00  0.00    +0.000 A 
ATOM     24  N   UNL     1      -5.976   2.440 128.169  0.00  0.00    +0.000 NA
ATOM     25  C   UNL     1      -6.060   2.077 129.463  0.00  0.00    +0.000 A 
BRANCH  23  26
ATOM     26  O   UNL     1      -6.712   2.366 126.028  0.00  0.00    +0.000 OA
ATOM     27  C   UNL     1      -7.747   3.195 125.520  0.00  0.00    +0.000 C 
ENDBRANCH  23  26
ENDBRANCH   5  20
BRANCH   1  28
ATOM     28  C   UNL     1      -5.689  -1.220 131.289  0.00  0.00    +0.000 C 
BRANCH  28  30
ATOM     29  C   UNL     1      -7.278  -2.959 131.367  0.00  0.00    +0.000 C 
ATOM     30  O   UNL     1      -6.468  -2.141 130.522  0.00  0.00    +0.000 OA
ENDBRANCH  28  30
ENDBRANCH   1  28
TORSDOF 6
ENDMDL
MODEL 7
REMARK VINA RESULT:      -7.1      5.648      8.119
REMARK  Name = CHEMBL511215
REMARK  10 active torsions:
REMARK  status: ('A' for Active; 'I' for Inactive)
REMARK    1  A    between atoms: C_1  and  O_2
REMARK    2  A    between atoms: O_2  and  C_3
REMARK    3  A    between atoms: C_3  and  C_4
REMARK    4  A    between atoms: C_7  and  C_8
REMARK    5  A    between atoms: C_11  and  C_12
REMARK    6  A    between atoms: C_15  and  C_16
REMARK    7  A    between atoms: C_17  and  C_18
REMARK    8  A    between atoms: N_22  and  C_23
REMARK    9  A    between atoms: C_26  and  O_27
REMARK   10  A    between atoms: O_27  and  C_28
REMARK                            x       y       z     vdW  Elec       q    Type
REMARK                         _______ _______ _______ _____ _____    ______ ____
ROOT
ATOM      1  C   UNL     1      -5.915   0.099 131.711  0.00  0.00    +0.000 A 
ATOM      2  N   UNL     1      -6.813  -0.478 132.491  0.00  0.00    +0.000 NA
ATOM      3  N   UNL     1      -7.903   0.368 132.613  0.00  0.00    +0.000 NA
ATOM      4  C   UNL     1      -7.665   1.462 131.907  0.00  0.00    +0.000 A 
ATOM      5  N   UNL     1      -6.400   1.343 131.363  0.00  0.00    +0.000 N 
ENDROOT
BRANCH   4   6
ATOM      6  C   UNL     1      -8.575   2.574 131.602  0.00  0.00    +0.000 A 
ATOM      7  C   UNL     1      -9.303   2.618 130.410  0.00  0.00    +0.000 A 
ATOM      8  N   UNL     1     -10.036   3.692 130.012  0.00  0.00    +0.000 NA
ATOM      9  C   UNL     1     -10.020   4.762 130.844  0.00  0.00    +0.000 A 
ATOM     10  C   UNL     1      -9.293   4.714 132.035  0.00  0.00    +0.000 A 
ATOM     11  N   UNL     1      -8.554   3.637 132.438  0.00  0.00    +0.000 NA
BRANCH   9  12
ATOM     12  C   UNL     1     -10.801   5.939 130.435  0.00  0.00    +0.000 A 
ATOM     13  C   UNL     1     -11.806   6.458 131.262  0.00  0.00    +0.000 A 
ATOM     14  C   UNL     1     -12.543   7.586 130.884  0.00  0.00    +0.000 A 
ATOM     15  C   UNL     1     -12.307   8.228 129.659  0.00  0.00    +0.000 A 
ATOM     16  C   UNL     1     -13.147   9.416 129.278  0.00  0.00    +0.000 C 
ATOM     17  C   UNL     1     -11.296   7.732 128.816  0.00  0.00    +0.000 A 
ATOM     18  C   UNL     1     -10.954   8.370 127.497  0.00  0.00    +0.000 C 
ATOM     19  C   UNL     1     -10.561   6.594 129.214  0.00  0.00    +0.000 A 
ENDBRANCH   9  12
ENDBRANCH   4   6
BRANCH   5  20
ATOM     20  C   UNL     1      -5.763   2.303 130.566  0.00  0.00    +0.000 A 
ATOM     21  C   UNL     1      -5.864   2.221 129.185  0.00  0.00    +0.000 A 
ATOM     22  C   UNL     1      -5.303   3.241 128.430  0.00  0.00    +0.000 A 
ATOM     23  C   UNL     1      -4.660   4.290 129.080  0.00  0.00    +0.000 A 
ATOM     24  N   UNL     1      -4.558   4.365 130.426  0.00  0.00    +0.000 NA
ATOM     25  C   UNL     1      -5.121   3.381 131.153  0.00  0.00    +0.000 A 
BRANCH  23  26
ATOM     26  O   UNL     1      -4.071   5.347 128.445  0.00  0.00    +0.000 OA
ATOM     27  C   UNL     1      -2.651   5.332 128.396  0.00  0.00    +0.000 C 
ENDBRANCH  23  26
ENDBRANCH   5  20
BRANCH   1  28
ATOM     28  C   UNL     1      -4.519  -0.361 131.415  0.00  0.00    +0.000 C 
BRANCH  28  30
ATOM     29  C   UNL     1      -3.532  -2.114 130.188  0.00  0.00    +0.000 C 
ATOM     30  O   UNL     1      -4.503  -1.067 130.172  0.00  0.00    +0.000 OA
ENDBRANCH  28  30
ENDBRANCH   1  28
TORSDOF 6
ENDMDL
MODEL 8
REMARK VINA RESULT:      -7.0      3.598      5.105
REMARK  Name = CHEMBL511215
REMARK  10 active torsions:
REMARK  status: ('A' for Active; 'I' for Inactive)
REMARK    1  A    between atoms: C_1  and  O_2
REMARK    2  A    between atoms: O_2  and  C_3
REMARK    3  A    between atoms: C_3  and  C_4
REMARK    4  A    between atoms: C_7  and  C_8
REMARK    5  A    between atoms: C_11  and  C_12
REMARK    6  A    between atoms: C_15  and  C_16
REMARK    7  A    between atoms: C_17  and  C_18
REMARK    8  A    between atoms: N_22  and  C_23
REMARK    9  A    between atoms: C_26  and  O_27
REMARK   10  A    between atoms: O_27  and  C_28
REMARK                            x       y       z     vdW  Elec       q    Type
REMARK                         _______ _______ _______ _____ _____    ______ ____
ROOT
ATOM      1  C   UNL     1      -8.708   1.043 123.510  0.00  0.00    +0.000 A 
ATOM      2  N   UNL     1      -8.985   2.174 122.883  0.00  0.00    +0.000 NA
ATOM      3  N   UNL     1      -8.372   3.216 123.559  0.00  0.00    +0.000 NA
ATOM      4  C   UNL     1      -7.724   2.718 124.600  0.00  0.00    +0.000 A 
ATOM      5  N   UNL     1      -7.955   1.354 124.623  0.00  0.00    +0.000 N 
ENDROOT
BRANCH   4   6
ATOM      6  C   UNL     1      -6.806   3.398 125.521  0.00  0.00    +0.000 A 
ATOM      7  C   UNL     1      -5.443   3.525 125.236  0.00  0.00    +0.000 A 
ATOM      8  N   UNL     1      -4.528   4.005 126.120  0.00  0.00    +0.000 NA
ATOM      9  C   UNL     1      -5.008   4.358 127.338  0.00  0.00    +0.000 A 
ATOM     10  C   UNL     1      -6.371   4.231 127.618  0.00  0.00    +0.000 A 
ATOM     11  N   UNL     1      -7.293   3.748 126.734  0.00  0.00    +0.000 NA
BRANCH   9  12
ATOM     12  C   UNL     1      -4.039   4.876 128.314  0.00  0.00    +0.000 A 
ATOM     13  C   UNL     1      -3.195   5.946 127.990  0.00  0.00    +0.000 A 
ATOM     14  C   UNL     1      -2.279   6.453 128.920  0.00  0.00    +0.000 A 
ATOM     15  C   UNL     1      -2.171   5.898 130.205  0.00  0.00    +0.000 A 
ATOM     16  C   UNL     1      -1.149   6.452 131.160  0.00  0.00    +0.000 C 
ATOM     17  C   UNL     1      -3.015   4.831 130.557  0.00  0.00    +0.000 A 
ATOM     18  C   UNL     1      -2.988   4.190 131.919  0.00  0.00    +0.000 C 
ATOM     19  C   UNL     1      -3.933   4.333 129.608  0.00  0.00    +0.000 A 
ENDBRANCH   9  12
ENDBRANCH   4   6
BRANCH   5  20
ATOM     20  C   UNL     1      -7.462   0.462 125.584  0.00  0.00    +0.000 A 
ATOM     21  C   UNL     1      -6.215  -0.117 125.403  0.00  0.00    +0.000 A 
ATOM     22  C   UNL     1      -5.717  -0.919 126.420  0.00  0.00    +0.000 A 
ATOM     23  C   UNL     1      -6.484  -1.119 127.564  0.00  0.00    +0.000 A 
ATOM     24  N   UNL     1      -7.703  -0.558 127.734  0.00  0.00    +0.000 NA
ATOM     25  C   UNL     1      -8.171   0.235 126.751  0.00  0.00    +0.000 A 
BRANCH  23  26
ATOM     26  O   UNL     1      -6.101  -1.887 128.626  0.00  0.00    +0.000 OA
ATOM     27  C   UNL     1      -4.844  -2.536 128.506  0.00  0.00    +0.000 C 
ENDBRANCH  23  26
ENDBRANCH   5  20
BRANCH   1  28
ATOM     28  C   UNL     1      -9.270  -0.321 123.242  0.00  0.00    +0.000 C 
BRANCH  28  30
ATOM     29  C   UNL     1      -8.335  -2.483 123.297  0.00  0.00    +0.000 C 
ATOM     30  O   UNL     1      -8.239  -1.172 122.737  0.00  0.00    +0.000 OA
ENDBRANCH  28  30
ENDBRANCH   1  28
TORSDOF 6
ENDMDL
MODEL 9
REMARK VINA RESULT:      -7.0      4.214      5.854
REMARK  Name = CHEMBL511215
REMARK  10 active torsions:
REMARK  status: ('A' for Active; 'I' for Inactive)
REMARK    1  A    between atoms: C_1  and  O_2
REMARK    2  A    between atoms: O_2  and  C_3
REMARK    3  A    between atoms: C_3  and  C_4
REMARK    4  A    between atoms: C_7  and  C_8
REMARK    5  A    between atoms: C_11  and  C_12
REMARK    6  A    between atoms: C_15  and  C_16
REMARK    7  A    between atoms: C_17  and  C_18
REMARK    8  A    between atoms: N_22  and  C_23
REMARK    9  A    between atoms: C_26  and  O_27
REMARK   10  A    between atoms: O_27  and  C_28
REMARK                            x       y       z     vdW  Elec       q    Type
REMARK                         _______ _______ _______ _____ _____    ______ ____
ROOT
ATOM      1  C   UNL     1      -7.464  -0.258 124.397  0.00  0.00    +0.000 A 
ATOM      2  N   UNL     1      -7.505   0.835 123.655  0.00  0.00    +0.000 NA
ATOM      3  N   UNL     1      -6.910   1.870 124.358  0.00  0.00    +0.000 NA
ATOM      4  C   UNL     1      -6.509   1.405 125.530  0.00  0.00    +0.000 A 
ATOM      5  N   UNL     1      -6.884   0.076 125.603  0.00  0.00    +0.000 N 
ENDROOT
BRANCH   4   6
ATOM      6  C   UNL     1      -5.696   2.073 126.553  0.00  0.00    +0.000 A 
ATOM      7  C   UNL     1      -6.277   2.869 127.545  0.00  0.00    +0.000 A 
ATOM      8  N   UNL     1      -5.563   3.631 128.416  0.00  0.00    +0.000 NA
ATOM      9  C   UNL     1      -4.216   3.595 128.270  0.00  0.00    +0.000 A 
ATOM     10  C   UNL     1      -3.639   2.798 127.279  0.00  0.00    +0.000 A 
ATOM     11  N   UNL     1      -4.353   2.032 126.401  0.00  0.00    +0.000 NA
BRANCH   9  12
ATOM     12  C   UNL     1      -3.420   4.413 129.197  0.00  0.00    +0.000 A 
ATOM     13  C   UNL     1      -2.817   5.603 128.768  0.00  0.00    +0.000 A 
ATOM     14  C   UNL     1      -2.070   6.394 129.650  0.00  0.00    +0.000 A 
ATOM     15  C   UNL     1      -1.892   6.014 130.989  0.00  0.00    +0.000 A 
ATOM     16  C   UNL     1      -1.052   6.875 131.891  0.00  0.00    +0.000 C 
ATOM     17  C   UNL     1      -2.496   4.829 131.445  0.00  0.00    +0.000 A 
ATOM     18  C   UNL     1      -2.383   4.356 132.870  0.00  0.00    +0.000 C 
ATOM     19  C   UNL     1      -3.248   4.045 130.543  0.00  0.00    +0.000 A 
ENDBRANCH   9  12
ENDBRANCH   4   6
BRANCH   5  20
ATOM     20  C   UNL     1      -6.663  -0.772 126.696  0.00  0.00    +0.000 A 
ATOM     21  C   UNL     1      -7.593  -0.819 127.724  0.00  0.00    +0.000 A 
ATOM     22  C   UNL     1      -7.391  -1.740 128.742  0.00  0.00    +0.000 A 
ATOM     23  C   UNL     1      -6.270  -2.564 128.699  0.00  0.00    +0.000 A 
ATOM     24  N   UNL     1      -5.362  -2.511 127.698  0.00  0.00    +0.000 NA
ATOM     25  C   UNL     1      -5.575  -1.629 126.704  0.00  0.00    +0.000 A 
BRANCH  23  26
ATOM     26  O   UNL     1      -5.966  -3.504 129.642  0.00  0.00    +0.000 OA
ATOM     27  C   UNL     1      -5.996  -3.066 130.992  0.00  0.00    +0.000 C 
ENDBRANCH  23  26
ENDBRANCH   5  20
BRANCH   1  28
ATOM     28  C   UNL     1      -8.114  -1.582 124.126  0.00  0.00    +0.000 C 
BRANCH  28  30
ATOM     29  C   UNL     1      -9.493  -2.908 125.502  0.00  0.00    +0.000 C 
ATOM     30  O   UNL     1      -9.357  -1.656 124.828  0.00  0.00    +0.000 OA
ENDBRANCH  28  30
ENDBRANCH   1  28
TORSDOF 6
ENDMDL
