MODEL 1
REMARK VINA RESULT:      -8.5      0.000      0.000
REMARK  Name = CHEMBL482321
REMARK  8 active torsions:
REMARK  status: ('A' for Active; 'I' for Inactive)
REMARK    1  A    between atoms: C_1  and  O_2
REMARK    2  A    between atoms: O_2  and  C_3
REMARK    3  A    between atoms: C_8  and  C_9
REMARK    4  A    between atoms: C_12  and  C_13
REMARK    5  A    between atoms: N_15  and  C_16
REMARK    6  A    between atoms: N_15  and  C_23
REMARK    7  A    between atoms: C_16  and  C_17
REMARK    8  A    between atoms: C_23  and  C_24
REMARK                            x       y       z     vdW  Elec       q    Type
REMARK                         _______ _______ _______ _____ _____    ______ ____
ROOT
ATOM      1  C   UNL     1      -8.558   1.013 125.190  0.00  0.00    +0.000 C 
ATOM      2  O   UNL     1      -8.901   2.033 125.728  0.00  0.00    +0.000 OA
ATOM      3  N   UNL     1      -8.881   0.708 123.796  0.00  0.00    +0.000 N 
ENDROOT
BRANCH   1   7
ATOM      4  C   UNL     1      -6.614  -1.678 128.076  0.00  0.00    +0.000 A 
ATOM      5  C   UNL     1      -5.796  -1.044 127.168  0.00  0.00    +0.000 A 
ATOM      6  C   UNL     1      -6.335  -0.090 126.198  0.00  0.00    +0.000 A 
ATOM      7  C   UNL     1      -7.716   0.069 126.006  0.00  0.00    +0.000 A 
ATOM      8  C   UNL     1      -8.424  -0.880 126.604  0.00  0.00    +0.000 A 
ATOM      9  C   UNL     1      -7.899  -1.473 127.721  0.00  0.00    +0.000 A 
BRANCH   4  15
ATOM     10  C   UNL     1      -5.120  -3.237 129.568  0.00  0.00    +0.000 A 
ATOM     11  C   UNL     1      -4.952  -3.891 130.814  0.00  0.00    +0.000 A 
ATOM     12  C   UNL     1      -5.959  -3.899 131.774  0.00  0.00    +0.000 A 
ATOM     13  C   UNL     1      -7.160  -3.272 131.487  0.00  0.00    +0.000 A 
ATOM     14  C   UNL     1      -7.336  -2.612 130.261  0.00  0.00    +0.000 A 
ATOM     15  C   UNL     1      -6.304  -2.478 129.302  0.00  0.00    +0.000 A 
BRANCH  10  17
ATOM     16  C   UNL     1      -2.759  -3.615 129.118  0.00  0.00    +0.000 C 
ATOM     17  O   UNL     1      -4.109  -3.612 128.712  0.00  0.00    +0.000 OA
ENDBRANCH  10  17
ENDBRANCH   4  15
ENDBRANCH   1   7
BRANCH   3  18
ATOM     18  C   UNL     1      -8.562  -0.480 122.953  0.00  0.00    +0.000 C 
BRANCH  18  19
ATOM     19  C   UNL     1      -7.731  -1.744 123.107  0.00  0.00    +0.000 A 
ATOM     20  C   UNL     1      -8.308  -2.834 123.748  0.00  0.00    +0.000 A 
ATOM     21  C   UNL     1      -7.461  -3.762 124.356  0.00  0.00    +0.000 A 
ATOM     22  C   UNL     1      -6.058  -3.739 124.141  0.00  0.00    +0.000 A 
ATOM     23  C   UNL     1      -5.476  -2.692 123.388  0.00  0.00    +0.000 A 
ATOM     24  C   UNL     1      -6.316  -1.701 122.854  0.00  0.00    +0.000 A 
ENDBRANCH  18  19
ENDBRANCH   3  18
BRANCH   3  25
ATOM     25  C   UNL     1      -9.378   1.917 123.008  0.00  0.00    +0.000 C 
BRANCH  25  26
ATOM     26  C   UNL     1      -8.417   3.105 122.508  0.00  0.00    +0.000 C 
ATOM     27  C   UNL     1      -8.481   3.573 121.072  0.00  0.00    +0.000 C 
ATOM     28  C   UNL     1      -7.130   3.890 120.562  0.00  0.00    +0.000 C 
ATOM     29  C   UNL     1      -6.286   3.034 121.472  0.00  0.00    +0.000 C 
ATOM     30  O   UNL     1      -7.017   2.773 122.688  0.00  0.00    +0.000 OA
ENDBRANCH  25  26
ENDBRANCH   3  25
TORSDOF 7
ENDMDL
MODEL 2
REMARK VINA RESULT:      -8.4      1.411      2.325
REMARK  Name = CHEMBL482321
REMARK  8 active torsions:
REMARK  status: ('A' for Active; 'I' for Inactive)
REMARK    1  A    between atoms: C_1  and  O_2
REMARK    2  A    between atoms: O_2  and  C_3
REMARK    3  A    between atoms: C_8  and  C_9
REMARK    4  A    between atoms: C_12  and  C_13
REMARK    5  A    between atoms: N_15  and  C_16
REMARK    6  A    between atoms: N_15  and  C_23
REMARK    7  A    between atoms: C_16  and  C_17
REMARK    8  A    between atoms: C_23  and  C_24
REMARK                            x       y       z     vdW  Elec       q    Type
REMARK                         _______ _______ _______ _____ _____    ______ ____
ROOT
ATOM      1  C   UNL     1      -8.079   1.831 125.089  0.00  0.00    +0.000 C 
ATOM      2  O   UNL     1      -8.559   2.866 125.474  0.00  0.00    +0.000 OA
ATOM      3  N   UNL     1      -7.595   1.646 123.722  0.00  0.00    +0.000 N 
ENDROOT
BRANCH   1   7
ATOM      4  C   UNL     1      -6.973  -1.320 127.953  0.00  0.00    +0.000 A 
ATOM      5  C   UNL     1      -8.228  -1.401 127.392  0.00  0.00    +0.000 A 
ATOM      6  C   UNL     1      -8.676  -0.432 126.390  0.00  0.00    +0.000 A 
ATOM      7  C   UNL     1      -7.943   0.731 126.107  0.00  0.00    +0.000 A 
ATOM      8  C   UNL     1      -6.980   0.951 126.991  0.00  0.00    +0.000 A 
ATOM      9  C   UNL     1      -6.430  -0.126 127.632  0.00  0.00    +0.000 A 
BRANCH   4  15
ATOM     10  C   UNL     1      -6.605  -2.928 129.994  0.00  0.00    +0.000 A 
ATOM     11  C   UNL     1      -5.766  -3.878 130.627  0.00  0.00    +0.000 A 
ATOM     12  C   UNL     1      -4.486  -4.149 130.154  0.00  0.00    +0.000 A 
ATOM     13  C   UNL     1      -4.020  -3.451 129.053  0.00  0.00    +0.000 A 
ATOM     14  C   UNL     1      -4.845  -2.515 128.409  0.00  0.00    +0.000 A 
ATOM     15  C   UNL     1      -6.191  -2.289 128.782  0.00  0.00    +0.000 A 
BRANCH  10  17
ATOM     16  C   UNL     1      -7.686  -1.541 131.676  0.00  0.00    +0.000 C 
ATOM     17  O   UNL     1      -7.682  -2.650 130.807  0.00  0.00    +0.000 OA
ENDBRANCH  10  17
ENDBRANCH   4  15
ENDBRANCH   1   7
BRANCH   3  18
ATOM     18  C   UNL     1      -6.982   0.463 123.050  0.00  0.00    +0.000 C 
BRANCH  18  19
ATOM     19  C   UNL     1      -6.960  -1.040 123.279  0.00  0.00    +0.000 A 
ATOM     20  C   UNL     1      -8.094  -1.770 122.945  0.00  0.00    +0.000 A 
ATOM     21  C   UNL     1      -8.308  -2.985 123.598  0.00  0.00    +0.000 A 
ATOM     22  C   UNL     1      -7.303  -3.582 124.404  0.00  0.00    +0.000 A 
ATOM     23  C   UNL     1      -6.094  -2.890 124.652  0.00  0.00    +0.000 A 
ATOM     24  C   UNL     1      -5.914  -1.623 124.074  0.00  0.00    +0.000 A 
ENDBRANCH  18  19
ENDBRANCH   3  18
BRANCH   3  25
ATOM     25  C   UNL     1      -7.437   2.953 122.949  0.00  0.00    +0.000 C 
BRANCH  25  26
ATOM     26  C   UNL     1      -6.412   3.139 121.723  0.00  0.00    +0.000 C 
ATOM     27  C   UNL     1      -5.360   4.224 121.779  0.00  0.00    +0.000 C 
ATOM     28  C   UNL     1      -5.179   4.847 120.451  0.00  0.00    +0.000 C 
ATOM     29  C   UNL     1      -6.518   4.554 119.824  0.00  0.00    +0.000 C 
ATOM     30  O   UNL     1      -7.107   3.412 120.481  0.00  0.00    +0.000 OA
ENDBRANCH  25  26
ENDBRANCH   3  25
TORSDOF 7
ENDMDL
MODEL 3
REMARK VINA RESULT:      -8.3      7.935      9.393
REMARK  Name = CHEMBL482321
REMARK  8 active torsions:
REMARK  status: ('A' for Active; 'I' for Inactive)
REMARK    1  A    between atoms: C_1  and  O_2
REMARK    2  A    between atoms: O_2  and  C_3
REMARK    3  A    between atoms: C_8  and  C_9
REMARK    4  A    between atoms: C_12  and  C_13
REMARK    5  A    between atoms: N_15  and  C_16
REMARK    6  A    between atoms: N_15  and  C_23
REMARK    7  A    between atoms: C_16  and  C_17
REMARK    8  A    between atoms: C_23  and  C_24
REMARK                            x       y       z     vdW  Elec       q    Type
REMARK                         _______ _______ _______ _____ _____    ______ ____
ROOT
ATOM      1  C   UNL     1     -10.046   5.962 131.802  0.00  0.00    +0.000 C 
ATOM      2  O   UNL     1     -10.773   6.830 132.211  0.00  0.00    +0.000 OA
ATOM      3  N   UNL     1     -10.496   4.930 130.868  0.00  0.00    +0.000 N 
ENDROOT
BRANCH   1   7
ATOM      4  C   UNL     1      -5.692   6.038 132.426  0.00  0.00    +0.000 A 
ATOM      5  C   UNL     1      -6.467   5.626 133.488  0.00  0.00    +0.000 A 
ATOM      6  C   UNL     1      -7.921   5.517 133.369  0.00  0.00    +0.000 A 
ATOM      7  C   UNL     1      -8.612   6.016 132.254  0.00  0.00    +0.000 A 
ATOM      8  C   UNL     1      -7.848   6.778 131.484  0.00  0.00    +0.000 A 
ATOM      9  C   UNL     1      -6.500   6.537 131.468  0.00  0.00    +0.000 A 
BRANCH   4  15
ATOM     10  C   UNL     1      -3.409   6.977 131.537  0.00  0.00    +0.000 A 
ATOM     11  C   UNL     1      -2.003   6.820 131.464  0.00  0.00    +0.000 A 
ATOM     12  C   UNL     1      -1.371   5.678 131.944  0.00  0.00    +0.000 A 
ATOM     13  C   UNL     1      -2.145   4.663 132.482  0.00  0.00    +0.000 A 
ATOM     14  C   UNL     1      -3.539   4.809 132.570  0.00  0.00    +0.000 A 
ATOM     15  C   UNL     1      -4.214   5.998 132.201  0.00  0.00    +0.000 A 
BRANCH  10  17
ATOM     16  C   UNL     1      -3.761   7.980 129.347  0.00  0.00    +0.000 C 
ATOM     17  O   UNL     1      -3.794   8.044 130.755  0.00  0.00    +0.000 OA
ENDBRANCH  10  17
ENDBRANCH   4  15
ENDBRANCH   1   7
BRANCH   3  18
ATOM     18  C   UNL     1      -9.771   3.782 130.253  0.00  0.00    +0.000 C 
BRANCH  18  19
ATOM     19  C   UNL     1      -8.333   3.472 129.864  0.00  0.00    +0.000 A 
ATOM     20  C   UNL     1      -7.563   2.723 130.746  0.00  0.00    +0.000 A 
ATOM     21  C   UNL     1      -6.176   2.867 130.690  0.00  0.00    +0.000 A 
ATOM     22  C   UNL     1      -5.544   3.568 129.629  0.00  0.00    +0.000 A 
ATOM     23  C   UNL     1      -6.328   4.236 128.659  0.00  0.00    +0.000 A 
ATOM     24  C   UNL     1      -7.726   4.174 128.766  0.00  0.00    +0.000 A 
ENDBRANCH  18  19
ENDBRANCH   3  18
BRANCH   3  25
ATOM     25  C   UNL     1     -11.836   5.248 130.208  0.00  0.00    +0.000 C 
BRANCH  25  26
ATOM     26  C   UNL     1     -12.018   6.368 129.069  0.00  0.00    +0.000 C 
ATOM     27  C   UNL     1     -10.803   7.050 128.482  0.00  0.00    +0.000 C 
ATOM     28  C   UNL     1     -11.071   8.484 128.241  0.00  0.00    +0.000 C 
ATOM     29  C   UNL     1     -12.177   8.728 129.237  0.00  0.00    +0.000 C 
ATOM     30  O   UNL     1     -12.831   7.476 129.533  0.00  0.00    +0.000 OA
ENDBRANCH  25  26
ENDBRANCH   3  25
TORSDOF 7
ENDMDL
MODEL 4
REMARK VINA RESULT:      -8.2      7.937      9.254
REMARK  Name = CHEMBL482321
REMARK  8 active torsions:
REMARK  status: ('A' for Active; 'I' for Inactive)
REMARK    1  A    between atoms: C_1  and  O_2
REMARK    2  A    between atoms: O_2  and  C_3
REMARK    3  A    between atoms: C_8  and  C_9
REMARK    4  A    between atoms: C_12  and  C_13
REMARK    5  A    between atoms: N_15  and  C_16
REMARK    6  A    between atoms: N_15  and  C_23
REMARK    7  A    between atoms: C_16  and  C_17
REMARK    8  A    between atoms: C_23  and  C_24
REMARK                            x       y       z     vdW  Elec       q    Type
REMARK                         _______ _______ _______ _____ _____    ______ ____
ROOT
ATOM      1  C   UNL     1     -10.042   5.903 131.890  0.00  0.00    +0.000 C 
ATOM      2  O   UNL     1     -10.811   6.679 132.394  0.00  0.00    +0.000 OA
ATOM      3  N   UNL     1     -10.443   4.959 130.847  0.00  0.00    +0.000 N 
ENDROOT
BRANCH   1   7
ATOM      4  C   UNL     1      -5.691   6.029 132.524  0.00  0.00    +0.000 A 
ATOM      5  C   UNL     1      -6.466   5.651 133.598  0.00  0.00    +0.000 A 
ATOM      6  C   UNL     1      -7.919   5.528 133.479  0.00  0.00    +0.000 A 
ATOM      7  C   UNL     1      -8.609   5.982 132.344  0.00  0.00    +0.000 A 
ATOM      8  C   UNL     1      -7.848   6.721 131.550  0.00  0.00    +0.000 A 
ATOM      9  C   UNL     1      -6.499   6.489 131.546  0.00  0.00    +0.000 A 
BRANCH   4  15
ATOM     10  C   UNL     1      -3.303   4.953 132.685  0.00  0.00    +0.000 A 
ATOM     11  C   UNL     1      -1.930   5.040 132.343  0.00  0.00    +0.000 A 
ATOM     12  C   UNL     1      -1.405   6.166 131.719  0.00  0.00    +0.000 A 
ATOM     13  C   UNL     1      -2.245   7.234 131.452  0.00  0.00    +0.000 A 
ATOM     14  C   UNL     1      -3.609   7.158 131.775  0.00  0.00    +0.000 A 
ATOM     15  C   UNL     1      -4.211   5.991 132.305  0.00  0.00    +0.000 A 
BRANCH  10  17
ATOM     16  C   UNL     1      -2.870   2.639 133.302  0.00  0.00    +0.000 C 
ATOM     17  O   UNL     1      -3.501   3.880 133.526  0.00  0.00    +0.000 OA
ENDBRANCH  10  17
ENDBRANCH   4  15
ENDBRANCH   1   7
BRANCH   3  18
ATOM     18  C   UNL     1      -9.662   3.926 130.107  0.00  0.00    +0.000 C 
BRANCH  18  19
ATOM     19  C   UNL     1      -8.300   3.265 130.253  0.00  0.00    +0.000 A 
ATOM     20  C   UNL     1      -8.052   2.523 131.402  0.00  0.00    +0.000 A 
ATOM     21  C   UNL     1      -6.726   2.363 131.806  0.00  0.00    +0.000 A 
ATOM     22  C   UNL     1      -5.644   2.737 130.967  0.00  0.00    +0.000 A 
ATOM     23  C   UNL     1      -5.896   3.390 129.738  0.00  0.00    +0.000 A 
ATOM     24  C   UNL     1      -7.228   3.640 129.371  0.00  0.00    +0.000 A 
ENDBRANCH  18  19
ENDBRANCH   3  18
BRANCH   3  25
ATOM     25  C   UNL     1     -11.801   5.276 130.227  0.00  0.00    +0.000 C 
BRANCH  25  26
ATOM     26  C   UNL     1     -12.020   6.401 129.100  0.00  0.00    +0.000 C 
ATOM     27  C   UNL     1     -10.823   7.085 128.476  0.00  0.00    +0.000 C 
ATOM     28  C   UNL     1     -11.097   8.520 128.250  0.00  0.00    +0.000 C 
ATOM     29  C   UNL     1     -12.170   8.760 129.282  0.00  0.00    +0.000 C 
ATOM     30  O   UNL     1     -12.815   7.508 129.594  0.00  0.00    +0.000 OA
ENDBRANCH  25  26
ENDBRANCH   3  25
TORSDOF 7
ENDMDL
MODEL 5
REMARK VINA RESULT:      -8.2      6.272      8.164
REMARK  Name = CHEMBL482321
REMARK  8 active torsions:
REMARK  status: ('A' for Active; 'I' for Inactive)
REMARK    1  A    between atoms: C_1  and  O_2
REMARK    2  A    between atoms: O_2  and  C_3
REMARK    3  A    between atoms: C_8  and  C_9
REMARK    4  A    between atoms: C_12  and  C_13
REMARK    5  A    between atoms: N_15  and  C_16
REMARK    6  A    between atoms: N_15  and  C_23
REMARK    7  A    between atoms: C_16  and  C_17
REMARK    8  A    between atoms: C_23  and  C_24
REMARK                            x       y       z     vdW  Elec       q    Type
REMARK                         _______ _______ _______ _____ _____    ______ ____
ROOT
ATOM      1  C   UNL     1     -10.516   4.603 130.431  0.00  0.00    +0.000 C 
ATOM      2  O   UNL     1     -11.520   4.439 129.787  0.00  0.00    +0.000 OA
ATOM      3  N   UNL     1     -10.001   5.930 130.767  0.00  0.00    +0.000 N 
ENDROOT
BRANCH   1   7
ATOM      4  C   UNL     1      -8.613   0.719 131.236  0.00  0.00    +0.000 A 
ATOM      5  C   UNL     1      -9.142   1.389 132.317  0.00  0.00    +0.000 A 
ATOM      6  C   UNL     1      -9.841   2.664 132.151  0.00  0.00    +0.000 A 
ATOM      7  C   UNL     1      -9.828   3.362 130.934  0.00  0.00    +0.000 A 
ATOM      8  C   UNL     1      -8.943   2.870 130.077  0.00  0.00    +0.000 A 
ATOM      9  C   UNL     1      -8.623   1.542 130.167  0.00  0.00    +0.000 A 
BRANCH   4  15
ATOM     10  C   UNL     1      -7.672  -1.559 132.136  0.00  0.00    +0.000 A 
ATOM     11  C   UNL     1      -7.260  -2.882 131.835  0.00  0.00    +0.000 A 
ATOM     12  C   UNL     1      -7.157  -3.331 130.522  0.00  0.00    +0.000 A 
ATOM     13  C   UNL     1      -7.441  -2.452 129.491  0.00  0.00    +0.000 A 
ATOM     14  C   UNL     1      -7.860  -1.143 129.775  0.00  0.00    +0.000 A 
ATOM     15  C   UNL     1      -8.090  -0.675 131.091  0.00  0.00    +0.000 A 
BRANCH  10  17
ATOM     16  C   UNL     1      -6.209  -0.710 133.886  0.00  0.00    +0.000 C 
ATOM     17  O   UNL     1      -7.422  -1.291 133.464  0.00  0.00    +0.000 OA
ENDBRANCH  10  17
ENDBRANCH   4  15
ENDBRANCH   1   7
BRANCH   3  18
ATOM     18  C   UNL     1      -8.793   6.346 131.537  0.00  0.00    +0.000 C 
BRANCH  18  19
ATOM     19  C   UNL     1      -7.912   5.733 132.614  0.00  0.00    +0.000 A 
ATOM     20  C   UNL     1      -6.780   5.032 132.215  0.00  0.00    +0.000 A 
ATOM     21  C   UNL     1      -6.275   4.057 133.076  0.00  0.00    +0.000 A 
ATOM     22  C   UNL     1      -6.742   3.931 134.411  0.00  0.00    +0.000 A 
ATOM     23  C   UNL     1      -7.821   4.728 134.859  0.00  0.00    +0.000 A 
ATOM     24  C   UNL     1      -8.397   5.645 133.965  0.00  0.00    +0.000 A 
ENDBRANCH  18  19
ENDBRANCH   3  18
BRANCH   3  25
ATOM     25  C   UNL     1     -11.009   7.052 130.535  0.00  0.00    +0.000 C 
BRANCH  25  26
ATOM     26  C   UNL     1     -11.214   7.779 129.115  0.00  0.00    +0.000 C 
ATOM     27  C   UNL     1     -12.394   7.412 128.244  0.00  0.00    +0.000 C 
ATOM     28  C   UNL     1     -12.007   7.389 126.817  0.00  0.00    +0.000 C 
ATOM     29  C   UNL     1     -10.525   7.138 126.939  0.00  0.00    +0.000 C 
ATOM     30  O   UNL     1     -10.077   7.574 128.239  0.00  0.00    +0.000 OA
ENDBRANCH  25  26
ENDBRANCH   3  25
TORSDOF 7
ENDMDL
MODEL 6
REMARK VINA RESULT:      -8.1      8.871     11.681
REMARK  Name = CHEMBL482321
REMARK  8 active torsions:
REMARK  status: ('A' for Active; 'I' for Inactive)
REMARK    1  A    between atoms: C_1  and  O_2
REMARK    2  A    between atoms: O_2  and  C_3
REMARK    3  A    between atoms: C_8  and  C_9
REMARK    4  A    between atoms: C_12  and  C_13
REMARK    5  A    between atoms: N_15  and  C_16
REMARK    6  A    between atoms: N_15  and  C_23
REMARK    7  A    between atoms: C_16  and  C_17
REMARK    8  A    between atoms: C_23  and  C_24
REMARK                            x       y       z     vdW  Elec       q    Type
REMARK                         _______ _______ _______ _____ _____    ______ ____
ROOT
ATOM      1  C   UNL     1      -4.018   5.440 131.480  0.00  0.00    +0.000 C 
ATOM      2  O   UNL     1      -3.196   6.060 130.857  0.00  0.00    +0.000 OA
ATOM      3  N   UNL     1      -3.686   4.677 132.683  0.00  0.00    +0.000 N 
ENDROOT
BRANCH   1   7
ATOM      4  C   UNL     1      -8.284   6.113 130.644  0.00  0.00    +0.000 A 
ATOM      5  C   UNL     1      -7.723   4.964 130.132  0.00  0.00    +0.000 A 
ATOM      6  C   UNL     1      -6.325   4.620 130.395  0.00  0.00    +0.000 A 
ATOM      7  C   UNL     1      -5.440   5.529 130.996  0.00  0.00    +0.000 A 
ATOM      8  C   UNL     1      -5.940   6.755 131.061  0.00  0.00    +0.000 A 
ATOM      9  C   UNL     1      -7.300   6.898 131.130  0.00  0.00    +0.000 A 
BRANCH   4  15
ATOM     10  C   UNL     1     -10.430   7.364 129.799  0.00  0.00    +0.000 A 
ATOM     11  C   UNL     1     -11.802   7.652 130.007  0.00  0.00    +0.000 A 
ATOM     12  C   UNL     1     -12.461   7.257 131.166  0.00  0.00    +0.000 A 
ATOM     13  C   UNL     1     -11.747   6.588 132.146  0.00  0.00    +0.000 A 
ATOM     14  C   UNL     1     -10.390   6.286 131.948  0.00  0.00    +0.000 A 
ATOM     15  C   UNL     1      -9.707   6.565 130.740  0.00  0.00    +0.000 A 
BRANCH  10  17
ATOM     16  C   UNL     1     -10.684   8.175 127.518  0.00  0.00    +0.000 C 
ATOM     17  O   UNL     1      -9.964   8.094 128.727  0.00  0.00    +0.000 OA
ENDBRANCH  10  17
ENDBRANCH   4  15
ENDBRANCH   1   7
BRANCH   3  18
ATOM     18  C   UNL     1      -4.538   3.850 133.585  0.00  0.00    +0.000 C 
BRANCH  18  19
ATOM     19  C   UNL     1      -5.999   3.835 134.007  0.00  0.00    +0.000 A 
ATOM     20  C   UNL     1      -6.782   2.754 133.619  0.00  0.00    +0.000 A 
ATOM     21  C   UNL     1      -8.161   2.945 133.521  0.00  0.00    +0.000 A 
ATOM     22  C   UNL     1      -8.786   4.120 134.016  0.00  0.00    +0.000 A 
ATOM     23  C   UNL     1      -7.996   5.179 134.522  0.00  0.00    +0.000 A 
ATOM     24  C   UNL     1      -6.600   5.031 134.534  0.00  0.00    +0.000 A 
ENDBRANCH  18  19
ENDBRANCH   3  18
BRANCH   3  25
ATOM     25  C   UNL     1      -2.312   5.012 133.257  0.00  0.00    +0.000 C 
BRANCH  25  26
ATOM     26  C   UNL     1      -1.990   6.374 134.050  0.00  0.00    +0.000 C 
ATOM     27  C   UNL     1      -3.082   7.400 134.258  0.00  0.00    +0.000 C 
ATOM     28  C   UNL     1      -2.547   8.771 134.119  0.00  0.00    +0.000 C 
ATOM     29  C   UNL     1      -1.344   8.509 133.249  0.00  0.00    +0.000 C 
ATOM     30  O   UNL     1      -0.938   7.134 133.404  0.00  0.00    +0.000 OA
ENDBRANCH  25  26
ENDBRANCH   3  25
TORSDOF 7
ENDMDL
MODEL 7
REMARK VINA RESULT:      -7.7      6.831      8.507
REMARK  Name = CHEMBL482321
REMARK  8 active torsions:
REMARK  status: ('A' for Active; 'I' for Inactive)
REMARK    1  A    between atoms: C_1  and  O_2
REMARK    2  A    between atoms: O_2  and  C_3
REMARK    3  A    between atoms: C_8  and  C_9
REMARK    4  A    between atoms: C_12  and  C_13
REMARK    5  A    between atoms: N_15  and  C_16
REMARK    6  A    between atoms: N_15  and  C_23
REMARK    7  A    between atoms: C_16  and  C_17
REMARK    8  A    between atoms: C_23  and  C_24
REMARK                            x       y       z     vdW  Elec       q    Type
REMARK                         _______ _______ _______ _____ _____    ______ ____
ROOT
ATOM      1  C   UNL     1     -10.760   4.313 130.591  0.00  0.00    +0.000 C 
ATOM      2  O   UNL     1     -11.667   3.864 129.939  0.00  0.00    +0.000 OA
ATOM      3  N   UNL     1     -10.750   5.688 131.088  0.00  0.00    +0.000 N 
ENDROOT
BRANCH   1   7
ATOM      4  C   UNL     1      -7.672   1.664 132.264  0.00  0.00    +0.000 A 
ATOM      5  C   UNL     1      -7.420   2.208 131.024  0.00  0.00    +0.000 A 
ATOM      6  C   UNL     1      -8.359   3.142 130.401  0.00  0.00    +0.000 A 
ATOM      7  C   UNL     1      -9.640   3.366 130.929  0.00  0.00    +0.000 A 
ATOM      8  C   UNL     1      -9.962   2.487 131.868  0.00  0.00    +0.000 A 
ATOM      9  C   UNL     1      -8.953   1.921 132.600  0.00  0.00    +0.000 A 
BRANCH   4  15
ATOM     10  C   UNL     1      -6.630  -0.510 133.301  0.00  0.00    +0.000 A 
ATOM     11  C   UNL     1      -5.706  -1.069 134.218  0.00  0.00    +0.000 A 
ATOM     12  C   UNL     1      -5.005  -0.276 135.121  0.00  0.00    +0.000 A 
ATOM     13  C   UNL     1      -5.242   1.088 135.134  0.00  0.00    +0.000 A 
ATOM     14  C   UNL     1      -6.147   1.657 134.225  0.00  0.00    +0.000 A 
ATOM     15  C   UNL     1      -6.796   0.909 133.213  0.00  0.00    +0.000 A 
BRANCH  10  17
ATOM     16  C   UNL     1      -7.143  -1.952 131.409  0.00  0.00    +0.000 C 
ATOM     17  O   UNL     1      -7.377  -1.517 132.729  0.00  0.00    +0.000 OA
ENDBRANCH  10  17
ENDBRANCH   4  15
ENDBRANCH   1   7
BRANCH   3  18
ATOM     18  C   UNL     1      -9.739   6.431 131.896  0.00  0.00    +0.000 C 
BRANCH  18  19
ATOM     19  C   UNL     1      -8.244   6.324 132.151  0.00  0.00    +0.000 A 
ATOM     20  C   UNL     1      -7.377   6.733 131.145  0.00  0.00    +0.000 A 
ATOM     21  C   UNL     1      -6.094   6.184 131.122  0.00  0.00    +0.000 A 
ATOM     22  C   UNL     1      -5.596   5.413 132.205  0.00  0.00    +0.000 A 
ATOM     23  C   UNL     1      -6.444   5.091 133.291  0.00  0.00    +0.000 A 
ATOM     24  C   UNL     1      -7.767   5.562 133.273  0.00  0.00    +0.000 A 
ENDBRANCH  18  19
ENDBRANCH   3  18
BRANCH   3  25
ATOM     25  C   UNL     1     -12.110   6.376 131.006  0.00  0.00    +0.000 C 
BRANCH  25  26
ATOM     26  C   UNL     1     -12.547   7.332 129.789  0.00  0.00    +0.000 C 
ATOM     27  C   UNL     1     -12.932   6.728 128.457  0.00  0.00    +0.000 C 
ATOM     28  C   UNL     1     -12.428   7.555 127.340  0.00  0.00    +0.000 C 
ATOM     29  C   UNL     1     -11.272   8.250 128.013  0.00  0.00    +0.000 C 
ATOM     30  O   UNL     1     -11.496   8.267 129.438  0.00  0.00    +0.000 OA
ENDBRANCH  25  26
ENDBRANCH   3  25
TORSDOF 7
ENDMDL
MODEL 8
REMARK VINA RESULT:      -7.5      2.897      8.000
REMARK  Name = CHEMBL482321
REMARK  8 active torsions:
REMARK  status: ('A' for Active; 'I' for Inactive)
REMARK    1  A    between atoms: C_1  and  O_2
REMARK    2  A    between atoms: O_2  and  C_3
REMARK    3  A    between atoms: C_8  and  C_9
REMARK    4  A    between atoms: C_12  and  C_13
REMARK    5  A    between atoms: N_15  and  C_16
REMARK    6  A    between atoms: N_15  and  C_23
REMARK    7  A    between atoms: C_16  and  C_17
REMARK    8  A    between atoms: C_23  and  C_24
REMARK                            x       y       z     vdW  Elec       q    Type
REMARK                         _______ _______ _______ _____ _____    ______ ____
ROOT
ATOM      1  C   UNL     1      -7.234  -2.315 130.965  0.00  0.00    +0.000 C 
ATOM      2  O   UNL     1      -7.056  -3.261 131.687  0.00  0.00    +0.000 OA
ATOM      3  N   UNL     1      -7.290  -0.941 131.463  0.00  0.00    +0.000 N 
ENDROOT
BRANCH   1   7
ATOM      4  C   UNL     1      -7.071  -2.623 126.579  0.00  0.00    +0.000 A 
ATOM      5  C   UNL     1      -8.226  -3.056 127.192  0.00  0.00    +0.000 A 
ATOM      6  C   UNL     1      -8.402  -2.950 128.641  0.00  0.00    +0.000 A 
ATOM      7  C   UNL     1      -7.342  -2.602 129.491  0.00  0.00    +0.000 A 
ATOM      8  C   UNL     1      -6.169  -2.625 128.874  0.00  0.00    +0.000 A 
ATOM      9  C   UNL     1      -6.140  -2.385 127.527  0.00  0.00    +0.000 A 
BRANCH   4  15
ATOM     10  C   UNL     1      -7.468  -1.593 124.199  0.00  0.00    +0.000 A 
ATOM     11  C   UNL     1      -6.980  -1.416 122.880  0.00  0.00    +0.000 A 
ATOM     12  C   UNL     1      -5.842  -2.075 122.429  0.00  0.00    +0.000 A 
ATOM     13  C   UNL     1      -5.189  -2.943 123.289  0.00  0.00    +0.000 A 
ATOM     14  C   UNL     1      -5.654  -3.120 124.601  0.00  0.00    +0.000 A 
ATOM     15  C   UNL     1      -6.739  -2.387 125.140  0.00  0.00    +0.000 A 
BRANCH  10  17
ATOM     16  C   UNL     1      -9.175  -0.037 123.435  0.00  0.00    +0.000 C 
ATOM     17  O   UNL     1      -8.735  -1.062 124.296  0.00  0.00    +0.000 OA
ENDBRANCH  10  17
ENDBRANCH   4  15
ENDBRANCH   1   7
BRANCH   3  18
ATOM     18  C   UNL     1      -7.503   0.352 130.750  0.00  0.00    +0.000 C 
BRANCH  18  19
ATOM     19  C   UNL     1      -7.199   0.906 129.368  0.00  0.00    +0.000 A 
ATOM     20  C   UNL     1      -8.230   0.947 128.437  0.00  0.00    +0.000 A 
ATOM     21  C   UNL     1      -7.892   0.939 127.083  0.00  0.00    +0.000 A 
ATOM     22  C   UNL     1      -6.551   1.117 126.651  0.00  0.00    +0.000 A 
ATOM     23  C   UNL     1      -5.507   1.194 127.603  0.00  0.00    +0.000 A 
ATOM     24  C   UNL     1      -5.833   1.106 128.966  0.00  0.00    +0.000 A 
ENDBRANCH  18  19
ENDBRANCH   3  18
BRANCH   3  25
ATOM     25  C   UNL     1      -6.770  -0.788 132.890  0.00  0.00    +0.000 C 
BRANCH  25  26
ATOM     26  C   UNL     1      -5.208  -0.809 133.271  0.00  0.00    +0.000 C 
ATOM     27  C   UNL     1      -4.166  -0.638 132.187  0.00  0.00    +0.000 C 
ATOM     28  C   UNL     1      -3.003  -1.516 132.435  0.00  0.00    +0.000 C 
ATOM     29  C   UNL     1      -3.644  -2.590 133.276  0.00  0.00    +0.000 C 
ATOM     30  O   UNL     1      -4.827  -2.055 133.905  0.00  0.00    +0.000 OA
ENDBRANCH  25  26
ENDBRANCH   3  25
TORSDOF 7
ENDMDL
MODEL 9
REMARK VINA RESULT:      -7.5      4.981      6.616
REMARK  Name = CHEMBL482321
REMARK  8 active torsions:
REMARK  status: ('A' for Active; 'I' for Inactive)
REMARK    1  A    between atoms: C_1  and  O_2
REMARK    2  A    between atoms: O_2  and  C_3
REMARK    3  A    between atoms: C_8  and  C_9
REMARK    4  A    between atoms: C_12  and  C_13
REMARK    5  A    between atoms: N_15  and  C_16
REMARK    6  A    between atoms: N_15  and  C_23
REMARK    7  A    between atoms: C_16  and  C_17
REMARK    8  A    between atoms: C_23  and  C_24
REMARK                            x       y       z     vdW  Elec       q    Type
REMARK                         _______ _______ _______ _____ _____    ______ ____
ROOT
ATOM      1  C   UNL     1      -8.593   3.631 131.940  0.00  0.00    +0.000 C 
ATOM      2  O   UNL     1      -8.761   4.171 133.003  0.00  0.00    +0.000 OA
ATOM      3  N   UNL     1      -8.435   4.377 130.692  0.00  0.00    +0.000 N 
ENDROOT
BRANCH   1   7
ATOM      4  C   UNL     1      -7.671  -0.660 131.645  0.00  0.00    +0.000 A 
ATOM      5  C   UNL     1      -9.001  -0.314 131.735  0.00  0.00    +0.000 A 
ATOM      6  C   UNL     1      -9.418   1.088 131.786  0.00  0.00    +0.000 A 
ATOM      7  C   UNL     1      -8.492   2.130 131.955  0.00  0.00    +0.000 A 
ATOM      8  C   UNL     1      -7.289   1.688 132.293  0.00  0.00    +0.000 A 
ATOM      9  C   UNL     1      -6.920   0.435 131.884  0.00  0.00    +0.000 A 
BRANCH   4  15
ATOM     10  C   UNL     1      -7.324  -2.872 130.276  0.00  0.00    +0.000 A 
ATOM     11  C   UNL     1      -6.547  -4.039 130.072  0.00  0.00    +0.000 A 
ATOM     12  C   UNL     1      -5.517  -4.388 130.939  0.00  0.00    +0.000 A 
ATOM     13  C   UNL     1      -5.268  -3.583 132.039  0.00  0.00    +0.000 A 
ATOM     14  C   UNL     1      -6.023  -2.418 132.246  0.00  0.00    +0.000 A 
ATOM     15  C   UNL     1      -7.003  -1.962 131.332  0.00  0.00    +0.000 A 
BRANCH  10  17
ATOM     16  C   UNL     1      -8.353  -3.362 128.125  0.00  0.00    +0.000 C 
ATOM     17  O   UNL     1      -8.432  -2.909 129.457  0.00  0.00    +0.000 OA
ENDBRANCH  10  17
ENDBRANCH   4  15
ENDBRANCH   1   7
BRANCH   3  18
ATOM     18  C   UNL     1      -8.226   3.911 129.291  0.00  0.00    +0.000 C 
BRANCH  18  19
ATOM     19  C   UNL     1      -7.628   2.684 128.620  0.00  0.00    +0.000 A 
ATOM     20  C   UNL     1      -8.494   1.691 128.177  0.00  0.00    +0.000 A 
ATOM     21  C   UNL     1      -7.997   0.393 128.057  0.00  0.00    +0.000 A 
ATOM     22  C   UNL     1      -6.608   0.118 128.154  0.00  0.00    +0.000 A 
ATOM     23  C   UNL     1      -5.705   1.153 128.491  0.00  0.00    +0.000 A 
ATOM     24  C   UNL     1      -6.213   2.444 128.707  0.00  0.00    +0.000 A 
ENDBRANCH  18  19
ENDBRANCH   3  18
BRANCH   3  25
ATOM     25  C   UNL     1      -8.162   5.864 130.901  0.00  0.00    +0.000 C 
BRANCH  25  26
ATOM     26  C   UNL     1      -9.306   6.993 130.837  0.00  0.00    +0.000 C 
ATOM     27  C   UNL     1     -10.763   6.588 130.815  0.00  0.00    +0.000 C 
ATOM     28  C   UNL     1     -11.537   7.462 129.907  0.00  0.00    +0.000 C 
ATOM     29  C   UNL     1     -10.444   7.933 128.982  0.00  0.00    +0.000 C 
ATOM     30  O   UNL     1      -9.174   7.824 129.657  0.00  0.00    +0.000 OA
ENDBRANCH  25  26
ENDBRANCH   3  25
TORSDOF 7
ENDMDL
