MODEL 1
REMARK VINA RESULT:      -7.7      0.000      0.000
REMARK  Name = CHEMBL270624
REMARK  11 active torsions:
REMARK  status: ('A' for Active; 'I' for Inactive)
REMARK    1  A    between atoms: CD1_1  and  CG_2
REMARK    2  A    between atoms: CG_2  and  CD2_3
REMARK    3  A    between atoms: CG_2  and  CB_4
REMARK    4  A    between atoms: CB_4  and  CA_5
REMARK    5  A    between atoms: C_9  and  C_10
REMARK    6  A    between atoms: N_21  and  C_22
REMARK    7  A    between atoms: C_22  and  C_23
REMARK    8  A    between atoms: C_22  and  C_29
REMARK    9  A    between atoms: N_25  and  C_26
REMARK   10  A    between atoms: C_26  and  C_27
REMARK   11  A    between atoms: C_26  and  C_28
REMARK                            x       y       z     vdW  Elec       q    Type
REMARK                         _______ _______ _______ _____ _____    ______ ____
ROOT
ATOM      1  CA  LEU A   2      -4.903   2.787 127.139  0.00  0.00    +0.000 C 
ATOM      2  C   LEU A   2      -5.598   2.611 125.799  0.00  0.00    +0.000 C 
ATOM      3  O   LEU A   2      -5.506   3.346 124.810  0.00  0.00    +0.000 OA
ATOM      4  N   UNK A   1      -6.276   1.460 125.719  0.00  0.00    +0.000 N 
ATOM      5  C   UNK A   1      -6.258   0.464 126.771  0.00  0.00    +0.000 C 
ATOM      6  C   UNK A   1      -6.441   1.144 128.122  0.00  0.00    +0.000 C 
ATOM      7  O   UNK A   1      -7.000   0.500 129.005  0.00  0.00    +0.000 OA
ATOM      8  N   LEU A   2      -5.853   2.413 128.245  0.00  0.00    +0.000 N 
ATOM      9  H   UNK A   1      -6.675   1.301 124.805  0.00  0.00    +0.000 HD
ENDROOT
BRANCH   5  10
ATOM     10  C   UNK A   1      -7.389  -0.579 126.613  0.00  0.00    +0.000 C 
ATOM     11  C   UNK A   1      -6.784  -1.986 126.677  0.00  0.00    +0.000 C 
ATOM     12  C   UNK A   1      -6.470  -2.220 125.229  0.00  0.00    +0.000 A 
ATOM     13  C   UNK A   1      -5.449  -2.995 124.709  0.00  0.00    +0.000 A 
ATOM     14  C   UNK A   1      -5.202  -2.925 123.337  0.00  0.00    +0.000 A 
ATOM     15  C   UNK A   1      -5.959  -2.078 122.509  0.00  0.00    +0.000 A 
ATOM     16  C   UNK A   1      -6.964  -1.271 123.042  0.00  0.00    +0.000 A 
ATOM     17  C   UNK A   1      -7.208  -1.352 124.402  0.00  0.00    +0.000 A 
ATOM     18  C   UNK A   1      -8.093  -0.469 125.229  0.00  0.00    +0.000 C 
ENDBRANCH   5  10
BRANCH   1  19
ATOM     19  CB  LEU A   2      -4.409   4.202 127.162  0.00  0.00    +0.000 C 
BRANCH  19  21
ATOM     20  CD1 LEU A   2      -2.687   5.142 128.662  0.00  0.00    +0.000 C 
ATOM     21  CG  LEU A   2      -2.946   4.533 127.279  0.00  0.00    +0.000 C 
ATOM     22  CD2 LEU A   2      -2.192   3.228 127.160  0.00  0.00    +0.000 C 
ENDBRANCH  19  21
ENDBRANCH   1  19
BRANCH   8  23
ATOM     23  C   UNK A   0      -6.105   3.314 129.443  0.00  0.00    +0.000 C 
BRANCH  23  24
ATOM     24  C   UNK A   0      -5.139   3.037 130.589  0.00  0.00    +0.000 A 
ATOM     25  C   UNK A   0      -4.116   2.113 130.770  0.00  0.00    +0.000 A 
ATOM     26  C   UNK A   0      -3.802   2.118 132.158  0.00  0.00    +0.000 A 
ATOM     27  C   UNK A   0      -4.528   3.148 132.703  0.00  0.00    +0.000 A 
ATOM     28 BR   UNK A   0      -4.466   3.709 134.479  0.00  0.00    +0.000 Br
ATOM     29  O   UNK A   0      -5.327   3.701 131.765  0.00  0.00    +0.000 OA
ENDBRANCH  23  24
BRANCH  23  30
ATOM     30  C   UNK A   0      -7.630   3.280 129.966  0.00  0.00    +0.000 C 
ATOM     31  O   UNK A   0      -8.585   3.796 129.388  0.00  0.00    +0.000 OA
ATOM     32  N   UNK A   0      -7.884   2.622 131.163  0.00  0.00    +0.000 N 
ATOM     33  H   UNK A   0      -7.362   1.789 131.366  0.00  0.00    +0.000 HD
BRANCH  32  34
ATOM     34  C   UNK A   0      -9.164   2.599 131.845  0.00  0.00    +0.000 C 
ATOM     35  C   UNK A   0      -9.593   1.149 131.845  0.00  0.00    +0.000 C 
ATOM     36  C   UNK A   0      -9.036   3.070 133.299  0.00  0.00    +0.000 C 
ENDBRANCH  32  34
ENDBRANCH  23  30
ENDBRANCH   8  23
TORSDOF 7
ENDMDL
MODEL 2
REMARK VINA RESULT:      -7.6      3.135      7.385
REMARK  Name = CHEMBL270624
REMARK  11 active torsions:
REMARK  status: ('A' for Active; 'I' for Inactive)
REMARK    1  A    between atoms: CD1_1  and  CG_2
REMARK    2  A    between atoms: CG_2  and  CD2_3
REMARK    3  A    between atoms: CG_2  and  CB_4
REMARK    4  A    between atoms: CB_4  and  CA_5
REMARK    5  A    between atoms: C_9  and  C_10
REMARK    6  A    between atoms: N_21  and  C_22
REMARK    7  A    between atoms: C_22  and  C_23
REMARK    8  A    between atoms: C_22  and  C_29
REMARK    9  A    between atoms: N_25  and  C_26
REMARK   10  A    between atoms: C_26  and  C_27
REMARK   11  A    between atoms: C_26  and  C_28
REMARK                            x       y       z     vdW  Elec       q    Type
REMARK                         _______ _______ _______ _____ _____    ______ ____
ROOT
ATOM      1  CA  LEU A   2      -5.380   2.701 128.156  0.00  0.00    +0.000 C 
ATOM      2  C   LEU A   2      -5.345   2.304 129.622  0.00  0.00    +0.000 C 
ATOM      3  O   LEU A   2      -4.344   2.135 130.325  0.00  0.00    +0.000 OA
ATOM      4  N   UNK A   1      -6.567   2.258 130.170  0.00  0.00    +0.000 N 
ATOM      5  C   UNK A   1      -7.765   2.639 129.451  0.00  0.00    +0.000 C 
ATOM      6  C   UNK A   1      -7.740   2.028 128.055  0.00  0.00    +0.000 C 
ATOM      7  O   UNK A   1      -8.820   1.755 127.542  0.00  0.00    +0.000 OA
ATOM      8  N   LEU A   2      -6.472   1.936 127.458  0.00  0.00    +0.000 N 
ATOM      9  H   UNK A   1      -6.545   2.071 131.162  0.00  0.00    +0.000 HD
ENDROOT
BRANCH   5  10
ATOM     10  C   UNK A   1      -9.052   2.151 130.154  0.00  0.00    +0.000 C 
ATOM     11  C   UNK A   1      -9.959   3.358 130.429  0.00  0.00    +0.000 C 
ATOM     12  C   UNK A   1      -9.467   3.772 131.785  0.00  0.00    +0.000 A 
ATOM     13  C   UNK A   1      -9.455   5.049 132.315  0.00  0.00    +0.000 A 
ATOM     14  C   UNK A   1      -8.773   5.257 133.516  0.00  0.00    +0.000 A 
ATOM     15  C   UNK A   1      -8.104   4.202 134.158  0.00  0.00    +0.000 A 
ATOM     16  C   UNK A   1      -8.088   2.923 133.602  0.00  0.00    +0.000 A 
ATOM     17  C   UNK A   1      -8.773   2.723 132.415  0.00  0.00    +0.000 A 
ATOM     18  C   UNK A   1      -8.752   1.507 131.539  0.00  0.00    +0.000 C 
ENDBRANCH   5  10
BRANCH   1  19
ATOM     19  CB  LEU A   2      -3.994   2.468 127.635  0.00  0.00    +0.000 C 
BRANCH  19  21
ATOM     20  CD1 LEU A   2      -3.117   4.752 127.967  0.00  0.00    +0.000 C 
ATOM     21  CG  LEU A   2      -3.187   3.566 126.998  0.00  0.00    +0.000 C 
ATOM     22  CD2 LEU A   2      -1.795   3.016 126.782  0.00  0.00    +0.000 C 
ENDBRANCH  19  21
ENDBRANCH   1  19
BRANCH   8  23
ATOM     23  C   UNK A   0      -6.236   1.175 126.163  0.00  0.00    +0.000 C 
BRANCH  23  24
ATOM     24  C   UNK A   0      -7.127   1.672 125.030  0.00  0.00    +0.000 A 
ATOM     25  C   UNK A   0      -7.414   2.937 124.529  0.00  0.00    +0.000 A 
ATOM     26  C   UNK A   0      -8.561   2.796 123.698  0.00  0.00    +0.000 A 
ATOM     27  C   UNK A   0      -8.801   1.447 123.615  0.00  0.00    +0.000 A 
ATOM     28 BR   UNK A   0     -10.127   0.634 122.589  0.00  0.00    +0.000 Br
ATOM     29  O   UNK A   0      -7.941   0.772 124.409  0.00  0.00    +0.000 OA
ENDBRANCH  23  24
BRANCH  23  30
ATOM     30  C   UNK A   0      -6.361  -0.424 126.323  0.00  0.00    +0.000 C 
ATOM     31  O   UNK A   0      -5.428  -1.218 126.213  0.00  0.00    +0.000 OA
ATOM     32  N   UNK A   0      -7.618  -0.945 126.602  0.00  0.00    +0.000 N 
ATOM     33  H   UNK A   0      -8.222  -0.425 127.210  0.00  0.00    +0.000 HD
BRANCH  32  34
ATOM     34  C   UNK A   0      -7.940  -2.359 126.654  0.00  0.00    +0.000 C 
ATOM     35  C   UNK A   0      -8.061  -2.690 128.125  0.00  0.00    +0.000 C 
ATOM     36  C   UNK A   0      -9.283  -2.656 125.975  0.00  0.00    +0.000 C 
ENDBRANCH  32  34
ENDBRANCH  23  30
ENDBRANCH   8  23
TORSDOF 7
ENDMDL
MODEL 3
REMARK VINA RESULT:      -7.6      3.439      8.321
REMARK  Name = CHEMBL270624
REMARK  11 active torsions:
REMARK  status: ('A' for Active; 'I' for Inactive)
REMARK    1  A    between atoms: CD1_1  and  CG_2
REMARK    2  A    between atoms: CG_2  and  CD2_3
REMARK    3  A    between atoms: CG_2  and  CB_4
REMARK    4  A    between atoms: CB_4  and  CA_5
REMARK    5  A    between atoms: C_9  and  C_10
REMARK    6  A    between atoms: N_21  and  C_22
REMARK    7  A    between atoms: C_22  and  C_23
REMARK    8  A    between atoms: C_22  and  C_29
REMARK    9  A    between atoms: N_25  and  C_26
REMARK   10  A    between atoms: C_26  and  C_27
REMARK   11  A    between atoms: C_26  and  C_28
REMARK                            x       y       z     vdW  Elec       q    Type
REMARK                         _______ _______ _______ _____ _____    ______ ____
ROOT
ATOM      1  CA  LEU A   2      -7.192   4.237 131.031  0.00  0.00    +0.000 C 
ATOM      2  C   LEU A   2      -6.973   5.665 131.504  0.00  0.00    +0.000 C 
ATOM      3  O   LEU A   2      -7.637   6.282 132.342  0.00  0.00    +0.000 OA
ATOM      4  N   UNK A   1      -5.860   6.209 130.994  0.00  0.00    +0.000 N 
ATOM      5  C   UNK A   1      -4.933   5.468 130.163  0.00  0.00    +0.000 C 
ATOM      6  C   UNK A   1      -5.707   4.667 129.122  0.00  0.00    +0.000 C 
ATOM      7  O   UNK A   1      -5.154   4.461 128.047  0.00  0.00    +0.000 OA
ATOM      8  N   LEU A   2      -6.945   4.159 129.549  0.00  0.00    +0.000 N 
ATOM      9  H   UNK A   1      -5.668   7.128 131.364  0.00  0.00    +0.000 HD
ENDROOT
BRANCH   5  10
ATOM     10  C   UNK A   1      -3.951   6.394 129.408  0.00  0.00    +0.000 C 
ATOM     11  C   UNK A   1      -2.530   5.833 129.546  0.00  0.00    +0.000 C 
ATOM     12  C   UNK A   1      -2.084   6.515 130.806  0.00  0.00    +0.000 A 
ATOM     13  C   UNK A   1      -1.184   6.036 131.741  0.00  0.00    +0.000 A 
ATOM     14  C   UNK A   1      -1.053   6.731 132.945  0.00  0.00    +0.000 A 
ATOM     15  C   UNK A   1      -1.825   7.876 133.205  0.00  0.00    +0.000 A 
ATOM     16  C   UNK A   1      -2.758   8.335 132.275  0.00  0.00    +0.000 A 
ATOM     17  C   UNK A   1      -2.876   7.645 131.081  0.00  0.00    +0.000 A 
ATOM     18  C   UNK A   1      -3.916   7.826 130.017  0.00  0.00    +0.000 C 
ENDBRANCH   5  10
BRANCH   1  19
ATOM     19  CB  LEU A   2      -8.573   3.865 131.476  0.00  0.00    +0.000 C 
BRANCH  19  21
ATOM     20  CD1 LEU A   2      -9.318   3.554 133.811  0.00  0.00    +0.000 C 
ATOM     21  CG  LEU A   2      -8.816   2.839 132.551  0.00  0.00    +0.000 C 
ATOM     22  CD2 LEU A   2      -9.898   1.916 132.037  0.00  0.00    +0.000 C 
ENDBRANCH  19  21
ENDBRANCH   1  19
BRANCH   8  23
ATOM     23  C   UNK A   0      -7.933   3.514 128.590  0.00  0.00    +0.000 C 
BRANCH  23  24
ATOM     24  C   UNK A   0      -7.721   2.010 128.465  0.00  0.00    +0.000 A 
ATOM     25  C   UNK A   0      -6.861   1.114 129.091  0.00  0.00    +0.000 A 
ATOM     26  C   UNK A   0      -6.893  -0.085 128.325  0.00  0.00    +0.000 A 
ATOM     27  C   UNK A   0      -7.880   0.094 127.388  0.00  0.00    +0.000 A 
ATOM     28 BR   UNK A   0      -8.453  -1.172 126.148  0.00  0.00    +0.000 Br
ATOM     29  O   UNK A   0      -8.379   1.347 127.472  0.00  0.00    +0.000 OA
ENDBRANCH  23  24
BRANCH  23  30
ATOM     30  C   UNK A   0      -7.963   4.206 127.134  0.00  0.00    +0.000 C 
ATOM     31  O   UNK A   0      -8.569   5.239 126.856  0.00  0.00    +0.000 OA
ATOM     32  N   UNK A   0      -7.253   3.585 126.114  0.00  0.00    +0.000 N 
ATOM     33  H   UNK A   0      -6.379   3.148 126.342  0.00  0.00    +0.000 HD
BRANCH  32  34
ATOM     34  C   UNK A   0      -7.269   3.991 124.721  0.00  0.00    +0.000 C 
ATOM     35  C   UNK A   0      -5.855   3.783 124.225  0.00  0.00    +0.000 C 
ATOM     36  C   UNK A   0      -8.212   3.114 123.889  0.00  0.00    +0.000 C 
ENDBRANCH  32  34
ENDBRANCH  23  30
ENDBRANCH   8  23
TORSDOF 7
ENDMDL
MODEL 4
REMARK VINA RESULT:      -7.6      2.759      5.412
REMARK  Name = CHEMBL270624
REMARK  11 active torsions:
REMARK  status: ('A' for Active; 'I' for Inactive)
REMARK    1  A    between atoms: CD1_1  and  CG_2
REMARK    2  A    between atoms: CG_2  and  CD2_3
REMARK    3  A    between atoms: CG_2  and  CB_4
REMARK    4  A    between atoms: CB_4  and  CA_5
REMARK    5  A    between atoms: C_9  and  C_10
REMARK    6  A    between atoms: N_21  and  C_22
REMARK    7  A    between atoms: C_22  and  C_23
REMARK    8  A    between atoms: C_22  and  C_29
REMARK    9  A    between atoms: N_25  and  C_26
REMARK   10  A    between atoms: C_26  and  C_27
REMARK   11  A    between atoms: C_26  and  C_28
REMARK                            x       y       z     vdW  Elec       q    Type
REMARK                         _______ _______ _______ _____ _____    ______ ____
ROOT
ATOM      1  CA  LEU A   2      -8.287   2.054 129.399  0.00  0.00    +0.000 C 
ATOM      2  C   LEU A   2      -7.863   0.803 128.649  0.00  0.00    +0.000 C 
ATOM      3  O   LEU A   2      -7.961  -0.367 129.034  0.00  0.00    +0.000 OA
ATOM      4  N   UNK A   1      -7.449   1.067 127.402  0.00  0.00    +0.000 N 
ATOM      5  C   UNK A   1      -7.499   2.394 126.824  0.00  0.00    +0.000 C 
ATOM      6  C   UNK A   1      -6.973   3.411 127.829  0.00  0.00    +0.000 C 
ATOM      7  O   UNK A   1      -6.422   4.411 127.381  0.00  0.00    +0.000 OA
ATOM      8  N   LEU A   2      -7.269   3.139 129.175  0.00  0.00    +0.000 N 
ATOM      9  H   UNK A   1      -7.240   0.233 126.873  0.00  0.00    +0.000 HD
ENDROOT
BRANCH   5  10
ATOM     10  C   UNK A   1      -6.639   2.509 125.544  0.00  0.00    +0.000 C 
ATOM     11  C   UNK A   1      -7.452   3.227 124.459  0.00  0.00    +0.000 C 
ATOM     12  C   UNK A   1      -8.131   2.060 123.804  0.00  0.00    +0.000 A 
ATOM     13  C   UNK A   1      -9.365   2.054 123.181  0.00  0.00    +0.000 A 
ATOM     14  C   UNK A   1      -9.910   0.823 122.809  0.00  0.00    +0.000 A 
ATOM     15  C   UNK A   1      -9.229  -0.377 123.076  0.00  0.00    +0.000 A 
ATOM     16  C   UNK A   1      -8.002  -0.370 123.737  0.00  0.00    +0.000 A 
ATOM     17  C   UNK A   1      -7.465   0.855 124.095  0.00  0.00    +0.000 A 
ATOM     18  C   UNK A   1      -6.269   1.114 124.962  0.00  0.00    +0.000 C 
ENDBRANCH   5  10
BRANCH   1  19
ATOM     19  CB  LEU A   2      -8.478   1.632 130.824  0.00  0.00    +0.000 C 
BRANCH  19  21
ATOM     20  CD1 LEU A   2      -9.280   2.597 132.952  0.00  0.00    +0.000 C 
ATOM     21  CG  LEU A   2      -9.710   2.002 131.606  0.00  0.00    +0.000 C 
ATOM     22  CD2 LEU A   2     -10.436   3.058 130.804  0.00  0.00    +0.000 C 
ENDBRANCH  19  21
ENDBRANCH   1  19
BRANCH   8  23
ATOM     23  C   UNK A   0      -6.655   3.931 130.318  0.00  0.00    +0.000 C 
BRANCH  23  24
ATOM     24  C   UNK A   0      -7.486   5.155 130.685  0.00  0.00    +0.000 A 
ATOM     25  C   UNK A   0      -7.784   5.777 131.893  0.00  0.00    +0.000 A 
ATOM     26  C   UNK A   0      -8.868   6.662 131.639  0.00  0.00    +0.000 A 
ATOM     27  C   UNK A   0      -9.056   6.648 130.279  0.00  0.00    +0.000 A 
ATOM     28 BR   UNK A   0     -10.282   7.683 129.333  0.00  0.00    +0.000 Br
ATOM     29  O   UNK A   0      -8.227   5.748 129.706  0.00  0.00    +0.000 OA
ENDBRANCH  23  24
BRANCH  23  30
ATOM     30  C   UNK A   0      -5.118   4.345 130.064  0.00  0.00    +0.000 C 
ATOM     31  O   UNK A   0      -4.158   3.581 130.152  0.00  0.00    +0.000 OA
ATOM     32  N   UNK A   0      -4.857   5.666 129.723  0.00  0.00    +0.000 N 
ATOM     33  H   UNK A   0      -5.512   6.141 129.131  0.00  0.00    +0.000 HD
BRANCH  32  34
ATOM     34  C   UNK A   0      -3.533   6.244 129.582  0.00  0.00    +0.000 C 
ATOM     35  C   UNK A   0      -3.605   7.114 128.347  0.00  0.00    +0.000 C 
ATOM     36  C   UNK A   0      -3.174   7.128 130.782  0.00  0.00    +0.000 C 
ENDBRANCH  32  34
ENDBRANCH  23  30
ENDBRANCH   8  23
TORSDOF 7
ENDMDL
MODEL 5
REMARK VINA RESULT:      -7.6      2.632      7.035
REMARK  Name = CHEMBL270624
REMARK  11 active torsions:
REMARK  status: ('A' for Active; 'I' for Inactive)
REMARK    1  A    between atoms: CD1_1  and  CG_2
REMARK    2  A    between atoms: CG_2  and  CD2_3
REMARK    3  A    between atoms: CG_2  and  CB_4
REMARK    4  A    between atoms: CB_4  and  CA_5
REMARK    5  A    between atoms: C_9  and  C_10
REMARK    6  A    between atoms: N_21  and  C_22
REMARK    7  A    between atoms: C_22  and  C_23
REMARK    8  A    between atoms: C_22  and  C_29
REMARK    9  A    between atoms: N_25  and  C_26
REMARK   10  A    between atoms: C_26  and  C_27
REMARK   11  A    between atoms: C_26  and  C_28
REMARK                            x       y       z     vdW  Elec       q    Type
REMARK                         _______ _______ _______ _____ _____    ______ ____
ROOT
ATOM      1  CA  LEU A   2      -7.243   1.214 129.421  0.00  0.00    +0.000 C 
ATOM      2  C   LEU A   2      -7.470   2.638 128.939  0.00  0.00    +0.000 C 
ATOM      3  O   LEU A   2      -8.321   3.435 129.345  0.00  0.00    +0.000 OA
ATOM      4  N   UNK A   1      -6.543   3.035 128.058  0.00  0.00    +0.000 N 
ATOM      5  C   UNK A   1      -5.405   2.216 127.692  0.00  0.00    +0.000 C 
ATOM      6  C   UNK A   1      -5.866   0.787 127.432  0.00  0.00    +0.000 C 
ATOM      7  O   UNK A   1      -5.230   0.132 126.613  0.00  0.00    +0.000 OA
ATOM      8  N   LEU A   2      -6.920   0.335 128.243  0.00  0.00    +0.000 N 
ATOM      9  H   UNK A   1      -6.642   4.004 127.793  0.00  0.00    +0.000 HD
ENDROOT
BRANCH   5  10
ATOM     10  C   UNK A   1      -4.703   2.724 126.411  0.00  0.00    +0.000 C 
ATOM     11  C   UNK A   1      -3.193   2.808 126.670  0.00  0.00    +0.000 C 
ATOM     12  C   UNK A   1      -3.080   4.209 127.195  0.00  0.00    +0.000 A 
ATOM     13  C   UNK A   1      -2.151   4.689 128.100  0.00  0.00    +0.000 A 
ATOM     14  C   UNK A   1      -2.336   5.974 128.615  0.00  0.00    +0.000 A 
ATOM     15  C   UNK A   1      -3.443   6.752 128.234  0.00  0.00    +0.000 A 
ATOM     16  C   UNK A   1      -4.396   6.251 127.348  0.00  0.00    +0.000 A 
ATOM     17  C   UNK A   1      -4.202   4.979 126.837  0.00  0.00    +0.000 A 
ATOM     18  C   UNK A   1      -5.161   4.160 126.026  0.00  0.00    +0.000 C 
ENDBRANCH   5  10
BRANCH   1  19
ATOM     19  CB  LEU A   2      -8.475   0.840 130.188  0.00  0.00    +0.000 C 
BRANCH  19  21
ATOM     20  CD1 LEU A   2      -9.839   1.492 132.141  0.00  0.00    +0.000 C 
ATOM     21  CG  LEU A   2      -8.515   0.863 131.692  0.00  0.00    +0.000 C 
ATOM     22  CD2 LEU A   2      -8.466  -0.577 132.152  0.00  0.00    +0.000 C 
ENDBRANCH  19  21
ENDBRANCH   1  19
BRANCH   8  23
ATOM     23  C   UNK A   0      -7.635  -0.982 127.988  0.00  0.00    +0.000 C 
BRANCH  23  24
ATOM     24  C   UNK A   0      -6.935  -2.159 128.656  0.00  0.00    +0.000 A 
ATOM     25  C   UNK A   0      -7.354  -3.129 129.561  0.00  0.00    +0.000 A 
ATOM     26  C   UNK A   0      -6.179  -3.747 130.071  0.00  0.00    +0.000 A 
ATOM     27  C   UNK A   0      -5.137  -3.237 129.337  0.00  0.00    +0.000 A 
ATOM     28 BR   UNK A   0      -3.348  -3.736 129.484  0.00  0.00    +0.000 Br
ATOM     29  O   UNK A   0      -5.588  -2.288 128.487  0.00  0.00    +0.000 OA
ENDBRANCH  23  24
BRANCH  23  30
ATOM     30  C   UNK A   0      -7.889  -1.286 126.425  0.00  0.00    +0.000 C 
ATOM     31  O   UNK A   0      -8.748  -0.745 125.732  0.00  0.00    +0.000 OA
ATOM     32  N   UNK A   0      -7.076  -2.234 125.815  0.00  0.00    +0.000 N 
ATOM     33  H   UNK A   0      -6.113  -2.280 126.091  0.00  0.00    +0.000 HD
BRANCH  32  34
ATOM     34  C   UNK A   0      -7.241  -2.724 124.459  0.00  0.00    +0.000 C 
ATOM     35  C   UNK A   0      -5.852  -3.108 124.000  0.00  0.00    +0.000 C 
ATOM     36  C   UNK A   0      -8.132  -3.971 124.416  0.00  0.00    +0.000 C 
ENDBRANCH  32  34
ENDBRANCH  23  30
ENDBRANCH   8  23
TORSDOF 7
ENDMDL
MODEL 6
REMARK VINA RESULT:      -7.5      1.682      1.831
REMARK  Name = CHEMBL270624
REMARK  11 active torsions:
REMARK  status: ('A' for Active; 'I' for Inactive)
REMARK    1  A    between atoms: CD1_1  and  CG_2
REMARK    2  A    between atoms: CG_2  and  CD2_3
REMARK    3  A    between atoms: CG_2  and  CB_4
REMARK    4  A    between atoms: CB_4  and  CA_5
REMARK    5  A    between atoms: C_9  and  C_10
REMARK    6  A    between atoms: N_21  and  C_22
REMARK    7  A    between atoms: C_22  and  C_23
REMARK    8  A    between atoms: C_22  and  C_29
REMARK    9  A    between atoms: N_25  and  C_26
REMARK   10  A    between atoms: C_26  and  C_27
REMARK   11  A    between atoms: C_26  and  C_28
REMARK                            x       y       z     vdW  Elec       q    Type
REMARK                         _______ _______ _______ _____ _____    ______ ____
ROOT
ATOM      1  CA  LEU A   2      -4.932   3.302 126.593  0.00  0.00    +0.000 C 
ATOM      2  C   LEU A   2      -5.411   3.312 125.151  0.00  0.00    +0.000 C 
ATOM      3  O   LEU A   2      -5.019   4.049 124.241  0.00  0.00    +0.000 OA
ATOM      4  N   UNK A   1      -6.269   2.318 124.888  0.00  0.00    +0.000 N 
ATOM      5  C   UNK A   1      -6.614   1.301 125.861  0.00  0.00    +0.000 C 
ATOM      6  C   UNK A   1      -6.893   1.957 127.208  0.00  0.00    +0.000 C 
ATOM      7  O   UNK A   1      -7.702   1.403 127.946  0.00  0.00    +0.000 OA
ATOM      8  N   LEU A   2      -6.107   3.082 127.507  0.00  0.00    +0.000 N 
ATOM      9  H   UNK A   1      -6.530   2.272 123.914  0.00  0.00    +0.000 HD
ENDROOT
BRANCH   5  10
ATOM     10  C   UNK A   1      -7.877   0.506 125.455  0.00  0.00    +0.000 C 
ATOM     11  C   UNK A   1      -7.814  -0.889 126.092  0.00  0.00    +0.000 C 
ATOM     12  C   UNK A   1      -7.085  -1.649 125.023  0.00  0.00    +0.000 A 
ATOM     13  C   UNK A   1      -6.246  -2.734 125.194  0.00  0.00    +0.000 A 
ATOM     14  C   UNK A   1      -5.507  -3.176 124.094  0.00  0.00    +0.000 A 
ATOM     15  C   UNK A   1      -5.602  -2.525 122.852  0.00  0.00    +0.000 A 
ATOM     16  C   UNK A   1      -6.423  -1.408 122.692  0.00  0.00    +0.000 A 
ATOM     17  C   UNK A   1      -7.158  -0.982 123.786  0.00  0.00    +0.000 A 
ATOM     18  C   UNK A   1      -7.955   0.281 123.918  0.00  0.00    +0.000 C 
ENDBRANCH   5  10
BRANCH   1  19
ATOM     19  CB  LEU A   2      -4.195   4.592 126.789  0.00  0.00    +0.000 C 
BRANCH  19  21
ATOM     20  CD1 LEU A   2      -2.661   5.248 128.610  0.00  0.00    +0.000 C 
ATOM     21  CG  LEU A   2      -2.750   4.628 127.211  0.00  0.00    +0.000 C 
ATOM     22  CD2 LEU A   2      -2.277   3.193 127.271  0.00  0.00    +0.000 C 
ENDBRANCH  19  21
ENDBRANCH   1  19
BRANCH   8  23
ATOM     23  C   UNK A   0      -6.386   3.972 128.708  0.00  0.00    +0.000 C 
BRANCH  23  24
ATOM     24  C   UNK A   0      -6.042   3.289 130.026  0.00  0.00    +0.000 A 
ATOM     25  C   UNK A   0      -4.871   3.186 130.768  0.00  0.00    +0.000 A 
ATOM     26  C   UNK A   0      -5.082   2.153 131.723  0.00  0.00    +0.000 A 
ATOM     27  C   UNK A   0      -6.406   1.806 131.615  0.00  0.00    +0.000 A 
ATOM     28 BR   UNK A   0      -7.301   0.562 132.674  0.00  0.00    +0.000 Br
ATOM     29  O   UNK A   0      -6.983   2.487 130.601  0.00  0.00    +0.000 OA
ENDBRANCH  23  24
BRANCH  23  30
ATOM     30  C   UNK A   0      -7.889   4.553 128.745  0.00  0.00    +0.000 C 
ATOM     31  O   UNK A   0      -8.572   4.808 127.754  0.00  0.00    +0.000 OA
ATOM     32  N   UNK A   0      -8.456   4.787 129.991  0.00  0.00    +0.000 N 
ATOM     33  H   UNK A   0      -8.245   4.149 130.736  0.00  0.00    +0.000 HD
BRANCH  32  34
ATOM     34  C   UNK A   0      -9.741   5.422 130.216  0.00  0.00    +0.000 C 
ATOM     35  C   UNK A   0     -10.688   4.298 130.571  0.00  0.00    +0.000 C 
ATOM     36  C   UNK A   0      -9.687   6.405 131.392  0.00  0.00    +0.000 C 
ENDBRANCH  32  34
ENDBRANCH  23  30
ENDBRANCH   8  23
TORSDOF 7
ENDMDL
MODEL 7
REMARK VINA RESULT:      -7.4      2.087      2.624
REMARK  Name = CHEMBL270624
REMARK  11 active torsions:
REMARK  status: ('A' for Active; 'I' for Inactive)
REMARK    1  A    between atoms: CD1_1  and  CG_2
REMARK    2  A    between atoms: CG_2  and  CD2_3
REMARK    3  A    between atoms: CG_2  and  CB_4
REMARK    4  A    between atoms: CB_4  and  CA_5
REMARK    5  A    between atoms: C_9  and  C_10
REMARK    6  A    between atoms: N_21  and  C_22
REMARK    7  A    between atoms: C_22  and  C_23
REMARK    8  A    between atoms: C_22  and  C_29
REMARK    9  A    between atoms: N_25  and  C_26
REMARK   10  A    between atoms: C_26  and  C_27
REMARK   11  A    between atoms: C_26  and  C_28
REMARK                            x       y       z     vdW  Elec       q    Type
REMARK                         _______ _______ _______ _____ _____    ______ ____
ROOT
ATOM      1  CA  LEU A   2      -5.592   3.141 127.453  0.00  0.00    +0.000 C 
ATOM      2  C   LEU A   2      -5.642   3.154 125.934  0.00  0.00    +0.000 C 
ATOM      3  O   LEU A   2      -4.874   3.744 125.169  0.00  0.00    +0.000 OA
ATOM      4  N   UNK A   1      -6.577   2.329 125.444  0.00  0.00    +0.000 N 
ATOM      5  C   UNK A   1      -7.375   1.460 126.284  0.00  0.00    +0.000 C 
ATOM      6  C   UNK A   1      -7.876   2.238 127.495  0.00  0.00    +0.000 C 
ATOM      7  O   UNK A   1      -8.952   1.897 127.976  0.00  0.00    +0.000 OA
ATOM      8  N   LEU A   2      -6.993   3.207 127.998  0.00  0.00    +0.000 N 
ATOM      9  H   UNK A   1      -6.563   2.275 124.436  0.00  0.00    +0.000 HD
ENDROOT
BRANCH   5  10
ATOM     10  C   UNK A   1      -8.610   0.899 125.542  0.00  0.00    +0.000 C 
ATOM     11  C   UNK A   1      -8.834  -0.556 125.975  0.00  0.00    +0.000 C 
ATOM     12  C   UNK A   1      -7.994  -1.278 124.963  0.00  0.00    +0.000 A 
ATOM     13  C   UNK A   1      -7.334  -2.482 125.131  0.00  0.00    +0.000 A 
ATOM     14  C   UNK A   1      -6.442  -2.889 124.136  0.00  0.00    +0.000 A 
ATOM     15  C   UNK A   1      -6.210  -2.090 123.004  0.00  0.00    +0.000 A 
ATOM     16  C   UNK A   1      -6.851  -0.860 122.854  0.00  0.00    +0.000 A 
ATOM     17  C   UNK A   1      -7.739  -0.467 123.841  0.00  0.00    +0.000 A 
ATOM     18  C   UNK A   1      -8.401   0.869 124.001  0.00  0.00    +0.000 C 
ENDBRANCH   5  10
BRANCH   1  19
ATOM     19  CB  LEU A   2      -4.693   4.273 127.843  0.00  0.00    +0.000 C 
BRANCH  19  21
ATOM     20  CD1 LEU A   2      -3.714   2.938 129.676  0.00  0.00    +0.000 C 
ATOM     21  CG  LEU A   2      -3.448   4.057 128.663  0.00  0.00    +0.000 C 
ATOM     22  CD2 LEU A   2      -2.366   3.615 127.704  0.00  0.00    +0.000 C 
ENDBRANCH  19  21
ENDBRANCH   1  19
BRANCH   8  23
ATOM     23  C   UNK A   0      -7.406   4.207 129.067  0.00  0.00    +0.000 C 
BRANCH  23  24
ATOM     24  C   UNK A   0      -7.512   3.567 130.446  0.00  0.00    +0.000 A 
ATOM     25  C   UNK A   0      -7.625   2.251 130.880  0.00  0.00    +0.000 A 
ATOM     26  C   UNK A   0      -8.022   2.304 132.246  0.00  0.00    +0.000 A 
ATOM     27  C   UNK A   0      -7.969   3.629 132.602  0.00  0.00    +0.000 A 
ATOM     28 BR   UNK A   0      -8.296   4.319 134.301  0.00  0.00    +0.000 Br
ATOM     29  O   UNK A   0      -7.661   4.387 131.526  0.00  0.00    +0.000 OA
ENDBRANCH  23  24
BRANCH  23  30
ATOM     30  C   UNK A   0      -8.756   5.012 128.709  0.00  0.00    +0.000 C 
ATOM     31  O   UNK A   0      -9.077   5.387 127.583  0.00  0.00    +0.000 OA
ATOM     32  N   UNK A   0      -9.622   5.310 129.754  0.00  0.00    +0.000 N 
ATOM     33  H   UNK A   0      -9.730   4.634 130.487  0.00  0.00    +0.000 HD
BRANCH  32  34
ATOM     34  C   UNK A   0     -10.812   6.132 129.641  0.00  0.00    +0.000 C 
ATOM     35  C   UNK A   0     -11.600   5.873 130.906  0.00  0.00    +0.000 C 
ATOM     36  C   UNK A   0     -10.463   7.624 129.580  0.00  0.00    +0.000 C 
ENDBRANCH  32  34
ENDBRANCH  23  30
ENDBRANCH   8  23
TORSDOF 7
ENDMDL
MODEL 8
REMARK VINA RESULT:      -7.3      2.961      4.049
REMARK  Name = CHEMBL270624
REMARK  11 active torsions:
REMARK  status: ('A' for Active; 'I' for Inactive)
REMARK    1  A    between atoms: CD1_1  and  CG_2
REMARK    2  A    between atoms: CG_2  and  CD2_3
REMARK    3  A    between atoms: CG_2  and  CB_4
REMARK    4  A    between atoms: CB_4  and  CA_5
REMARK    5  A    between atoms: C_9  and  C_10
REMARK    6  A    between atoms: N_21  and  C_22
REMARK    7  A    between atoms: C_22  and  C_23
REMARK    8  A    between atoms: C_22  and  C_29
REMARK    9  A    between atoms: N_25  and  C_26
REMARK   10  A    between atoms: C_26  and  C_27
REMARK   11  A    between atoms: C_26  and  C_28
REMARK                            x       y       z     vdW  Elec       q    Type
REMARK                         _______ _______ _______ _____ _____    ______ ____
ROOT
ATOM      1  CA  LEU A   2      -4.834   1.996 128.518  0.00  0.00    +0.000 C 
ATOM      2  C   LEU A   2      -5.366   0.825 127.709  0.00  0.00    +0.000 C 
ATOM      3  O   LEU A   2      -5.008   0.476 126.580  0.00  0.00    +0.000 OA
ATOM      4  N   UNK A   1      -6.234   0.075 128.401  0.00  0.00    +0.000 N 
ATOM      5  C   UNK A   1      -6.543   0.317 129.795  0.00  0.00    +0.000 C 
ATOM      6  C   UNK A   1      -6.770   1.807 130.018  0.00  0.00    +0.000 C 
ATOM      7  O   UNK A   1      -7.551   2.129 130.907  0.00  0.00    +0.000 OA
ATOM      8  N   LEU A   2      -5.974   2.663 129.239  0.00  0.00    +0.000 N 
ATOM      9  H   UNK A   1      -6.531  -0.747 127.896  0.00  0.00    +0.000 HD
ENDROOT
BRANCH   5  10
ATOM     10  C   UNK A   1      -7.819  -0.427 130.251  0.00  0.00    +0.000 C 
ATOM     11  C   UNK A   1      -7.638  -0.886 131.704  0.00  0.00    +0.000 C 
ATOM     12  C   UNK A   1      -7.020  -2.236 131.493  0.00  0.00    +0.000 A 
ATOM     13  C   UNK A   1      -6.133  -2.889 132.329  0.00  0.00    +0.000 A 
ATOM     14  C   UNK A   1      -5.518  -4.052 131.860  0.00  0.00    +0.000 A 
ATOM     15  C   UNK A   1      -5.781  -4.535 130.567  0.00  0.00    +0.000 A 
ATOM     16  C   UNK A   1      -6.648  -3.855 129.712  0.00  0.00    +0.000 A 
ATOM     17  C   UNK A   1      -7.260  -2.707 130.188  0.00  0.00    +0.000 A 
ATOM     18  C   UNK A   1      -8.074  -1.714 129.415  0.00  0.00    +0.000 C 
ENDBRANCH   5  10
BRANCH   1  19
ATOM     19  CB  LEU A   2      -4.089   2.860 127.547  0.00  0.00    +0.000 C 
BRANCH  19  21
ATOM     20  CD1 LEU A   2      -1.819   3.006 126.585  0.00  0.00    +0.000 C 
ATOM     21  CG  LEU A   2      -2.682   3.326 127.811  0.00  0.00    +0.000 C 
ATOM     22  CD2 LEU A   2      -2.746   4.825 127.998  0.00  0.00    +0.000 C 
ENDBRANCH  19  21
ENDBRANCH   1  19
BRANCH   8  23
ATOM     23  C   UNK A   0      -6.207   4.164 129.185  0.00  0.00    +0.000 C 
BRANCH  23  24
ATOM     24  C   UNK A   0      -5.548   4.894 130.349  0.00  0.00    +0.000 A 
ATOM     25  C   UNK A   0      -5.581   6.213 130.788  0.00  0.00    +0.000 A 
ATOM     26  C   UNK A   0      -4.511   6.362 131.713  0.00  0.00    +0.000 A 
ATOM     27  C   UNK A   0      -4.000   5.103 131.904  0.00  0.00    +0.000 A 
ATOM     28 BR   UNK A   0      -2.632   4.644 133.082  0.00  0.00    +0.000 Br
ATOM     29  O   UNK A   0      -4.622   4.221 131.090  0.00  0.00    +0.000 OA
ENDBRANCH  23  24
BRANCH  23  30
ATOM     30  C   UNK A   0      -7.762   4.572 129.066  0.00  0.00    +0.000 C 
ATOM     31  O   UNK A   0      -8.371   4.734 128.009  0.00  0.00    +0.000 OA
ATOM     32  N   UNK A   0      -8.469   4.757 130.248  0.00  0.00    +0.000 N 
ATOM     33  H   UNK A   0      -8.261   4.157 131.024  0.00  0.00    +0.000 HD
BRANCH  32  34
ATOM     34  C   UNK A   0      -9.833   5.245 130.335  0.00  0.00    +0.000 C 
ATOM     35  C   UNK A   0     -10.689   4.012 130.520  0.00  0.00    +0.000 C 
ATOM     36  C   UNK A   0     -10.027   6.162 131.549  0.00  0.00    +0.000 C 
ENDBRANCH  32  34
ENDBRANCH  23  30
ENDBRANCH   8  23
TORSDOF 7
ENDMDL
MODEL 9
REMARK VINA RESULT:      -7.3      3.523      7.130
REMARK  Name = CHEMBL270624
REMARK  11 active torsions:
REMARK  status: ('A' for Active; 'I' for Inactive)
REMARK    1  A    between atoms: CD1_1  and  CG_2
REMARK    2  A    between atoms: CG_2  and  CD2_3
REMARK    3  A    between atoms: CG_2  and  CB_4
REMARK    4  A    between atoms: CB_4  and  CA_5
REMARK    5  A    between atoms: C_9  and  C_10
REMARK    6  A    between atoms: N_21  and  C_22
REMARK    7  A    between atoms: C_22  and  C_23
REMARK    8  A    between atoms: C_22  and  C_29
REMARK    9  A    between atoms: N_25  and  C_26
REMARK   10  A    between atoms: C_26  and  C_27
REMARK   11  A    between atoms: C_26  and  C_28
REMARK                            x       y       z     vdW  Elec       q    Type
REMARK                         _______ _______ _______ _____ _____    ______ ____
ROOT
ATOM      1  CA  LEU A   2      -7.982   2.803 128.599  0.00  0.00    +0.000 C 
ATOM      2  C   LEU A   2      -7.983   4.223 128.057  0.00  0.00    +0.000 C 
ATOM      3  O   LEU A   2      -7.573   4.601 126.955  0.00  0.00    +0.000 OA
ATOM      4  N   UNK A   1      -8.608   5.083 128.872  0.00  0.00    +0.000 N 
ATOM      5  C   UNK A   1      -9.284   4.666 130.084  0.00  0.00    +0.000 C 
ATOM      6  C   UNK A   1      -8.401   3.689 130.851  0.00  0.00    +0.000 C 
ATOM      7  O   UNK A   1      -8.509   3.675 132.073  0.00  0.00    +0.000 OA
ATOM      8  N   LEU A   2      -7.623   2.828 130.060  0.00  0.00    +0.000 N 
ATOM      9  H   UNK A   1      -8.680   6.011 128.482  0.00  0.00    +0.000 HD
ENDROOT
BRANCH   5  10
ATOM     10  C   UNK A   1      -9.594   5.856 131.021  0.00  0.00    +0.000 C 
ATOM     11  C   UNK A   1     -11.109   5.925 131.255  0.00  0.00    +0.000 C 
ATOM     12  C   UNK A   1     -11.523   6.813 130.118  0.00  0.00    +0.000 A 
ATOM     13  C   UNK A   1     -12.733   6.803 129.448  0.00  0.00    +0.000 A 
ATOM     14  C   UNK A   1     -12.851   7.572 128.289  0.00  0.00    +0.000 A 
ATOM     15  C   UNK A   1     -11.766   8.324 127.808  0.00  0.00    +0.000 A 
ATOM     16  C   UNK A   1     -10.536   8.304 128.466  0.00  0.00    +0.000 A 
ATOM     17  C   UNK A   1     -10.430   7.544 129.619  0.00  0.00    +0.000 A 
ATOM     18  C   UNK A   1      -9.186   7.218 130.390  0.00  0.00    +0.000 C 
ENDBRANCH   5  10
BRANCH   1  19
ATOM     19  CB  LEU A   2      -7.049   2.029 127.718  0.00  0.00    +0.000 C 
BRANCH  19  21
ATOM     20  CD1 LEU A   2      -7.381  -0.418 127.766  0.00  0.00    +0.000 C 
ATOM     21  CG  LEU A   2      -7.513   0.847 126.909  0.00  0.00    +0.000 C 
ATOM     22  CD2 LEU A   2      -8.972   1.083 126.590  0.00  0.00    +0.000 C 
ENDBRANCH  19  21
ENDBRANCH   1  19
BRANCH   8  23
ATOM     23  C   UNK A   0      -6.544   1.935 130.651  0.00  0.00    +0.000 C 
BRANCH  23  24
ATOM     24  C   UNK A   0      -7.118   0.667 131.272  0.00  0.00    +0.000 A 
ATOM     25  C   UNK A   0      -8.396   0.122 131.315  0.00  0.00    +0.000 A 
ATOM     26  C   UNK A   0      -8.376  -0.889 132.316  0.00  0.00    +0.000 A 
ATOM     27  C   UNK A   0      -7.064  -1.009 132.702  0.00  0.00    +0.000 A 
ATOM     28 BR   UNK A   0      -6.392  -2.241 133.928  0.00  0.00    +0.000 Br
ATOM     29  O   UNK A   0      -6.308  -0.080 132.076  0.00  0.00    +0.000 OA
ENDBRANCH  23  24
BRANCH  23  30
ATOM     30  C   UNK A   0      -5.580   2.693 131.697  0.00  0.00    +0.000 C 
ATOM     31  O   UNK A   0      -4.606   3.380 131.389  0.00  0.00    +0.000 OA
ATOM     32  N   UNK A   0      -5.868   2.559 133.049  0.00  0.00    +0.000 N 
ATOM     33  H   UNK A   0      -6.831   2.528 133.327  0.00  0.00    +0.000 HD
BRANCH  32  34
ATOM     34  C   UNK A   0      -5.042   3.063 134.130  0.00  0.00    +0.000 C 
ATOM     35  C   UNK A   0      -6.003   3.723 135.095  0.00  0.00    +0.000 C 
ATOM     36  C   UNK A   0      -4.319   1.926 134.863  0.00  0.00    +0.000 C 
ENDBRANCH  32  34
ENDBRANCH  23  30
ENDBRANCH   8  23
TORSDOF 7
ENDMDL
