MODEL 1
REMARK VINA RESULT:      -8.1      0.000      0.000
REMARK  Name = CHEMBL1092499
REMARK  7 active torsions:
REMARK  status: ('A' for Active; 'I' for Inactive)
REMARK    1  A    between atoms: C_1  and  O_2
REMARK    2  A    between atoms: O_2  and  C_3
REMARK    3  A    between atoms: C_6  and  N_7
REMARK    4  A    between atoms: N_7  and  C_8
REMARK    5  A    between atoms: C_13  and  O_14
REMARK    6  A    between atoms: O_14  and  C_15
REMARK    7  A    between atoms: C_21  and  C_22
REMARK                            x       y       z     vdW  Elec       q    Type
REMARK                         _______ _______ _______ _____ _____    ______ ____
ROOT
ATOM      1  N   UNL     1      -6.507   3.843 126.082  0.00  0.00    +0.000 N 
ATOM      2  C   UNL     1      -5.432   3.248 126.882  0.00  0.00    +0.000 C 
ATOM      3  C   UNL     1      -7.706   4.280 126.756  0.00  0.00    +0.000 C 
ATOM      4  O   UNL     1      -8.697   4.758 126.202  0.00  0.00    +0.000 OA
ATOM      5  N   UNL     1      -7.729   4.027 128.137  0.00  0.00    +0.000 N 
ATOM      6  C   UNL     1      -8.842   4.089 129.091  0.00  0.00    +0.000 C 
ATOM      7  C   UNL     1      -8.018   5.083 129.961  0.00  0.00    +0.000 C 
ATOM      8  C   UNL     1      -6.816   4.590 129.121  0.00  0.00    +0.000 C 
ENDROOT
BRANCH   1  12
ATOM      9  C   UNL     1      -5.950   3.803 121.818  0.00  0.00    +0.000 A 
ATOM     10  C   UNL     1      -6.872   2.942 122.384  0.00  0.00    +0.000 A 
ATOM     11  C   UNL     1      -7.073   2.956 123.781  0.00  0.00    +0.000 A 
ATOM     12  C   UNL     1      -6.359   3.815 124.621  0.00  0.00    +0.000 A 
ATOM     13  C   UNL     1      -5.455   4.633 123.919  0.00  0.00    +0.000 A 
ATOM     14  N   UNL     1      -5.232   4.646 122.571  0.00  0.00    +0.000 NA
BRANCH   9  16
ATOM     15  C   UNL     1      -5.337   5.080 119.931  0.00  0.00    +0.000 C 
ATOM     16  O   UNL     1      -5.597   3.804 120.499  0.00  0.00    +0.000 OA
ENDBRANCH   9  16
ENDBRANCH   1  12
BRANCH   7  17
ATOM     17  O   UNL     1      -8.428   6.488 129.936  0.00  0.00    +0.000 OA
BRANCH  17  18
ATOM     18  C   UNL     1      -9.683   6.838 130.419  0.00  0.00    +0.000 A 
ATOM     19  C   UNL     1     -10.102   6.308 131.652  0.00  0.00    +0.000 A 
ATOM     20  C   UNL     1     -11.427   6.493 132.096  0.00  0.00    +0.000 A 
ATOM     21  C   UNL     1     -12.335   7.169 131.295  0.00  0.00    +0.000 A 
ATOM     22  F   UNL     1     -13.608   7.320 131.683  0.00  0.00    +0.000 F 
ATOM     23  C   UNL     1     -11.939   7.697 130.085  0.00  0.00    +0.000 A 
ATOM     24  C   UNL     1     -10.617   7.547 129.646  0.00  0.00    +0.000 A 
ATOM     25  C   UNL     1     -10.294   8.199 128.352  0.00  0.00    +0.000 C 
ENDBRANCH  17  18
ENDBRANCH   7  17
TORSDOF 4
ENDMDL
MODEL 2
REMARK VINA RESULT:      -7.7      5.791      8.446
REMARK  Name = CHEMBL1092499
REMARK  7 active torsions:
REMARK  status: ('A' for Active; 'I' for Inactive)
REMARK    1  A    between atoms: C_1  and  O_2
REMARK    2  A    between atoms: O_2  and  C_3
REMARK    3  A    between atoms: C_6  and  N_7
REMARK    4  A    between atoms: N_7  and  C_8
REMARK    5  A    between atoms: C_13  and  O_14
REMARK    6  A    between atoms: O_14  and  C_15
REMARK    7  A    between atoms: C_21  and  C_22
REMARK                            x       y       z     vdW  Elec       q    Type
REMARK                         _______ _______ _______ _____ _____    ______ ____
ROOT
ATOM      1  N   UNL     1      -9.644   5.852 130.198  0.00  0.00    +0.000 N 
ATOM      2  C   UNL     1     -10.107   4.464 130.292  0.00  0.00    +0.000 C 
ATOM      3  C   UNL     1      -8.328   6.174 130.698  0.00  0.00    +0.000 C 
ATOM      4  O   UNL     1      -7.833   7.302 130.718  0.00  0.00    +0.000 OA
ATOM      5  N   UNL     1      -7.644   5.098 131.286  0.00  0.00    +0.000 N 
ATOM      6  C   UNL     1      -6.430   5.087 132.111  0.00  0.00    +0.000 C 
ATOM      7  C   UNL     1      -5.780   4.088 131.108  0.00  0.00    +0.000 C 
ATOM      8  C   UNL     1      -7.228   3.881 130.605  0.00  0.00    +0.000 C 
ENDROOT
BRANCH   1  12
ATOM      9  C   UNL     1     -12.500   8.830 128.988  0.00  0.00    +0.000 A 
ATOM     10  C   UNL     1     -11.428   8.550 128.160  0.00  0.00    +0.000 A 
ATOM     11  C   UNL     1     -10.492   7.566 128.541  0.00  0.00    +0.000 A 
ATOM     12  C   UNL     1     -10.610   6.860 129.742  0.00  0.00    +0.000 A 
ATOM     13  C   UNL     1     -11.739   7.243 130.488  0.00  0.00    +0.000 A 
ATOM     14  N   UNL     1     -12.664   8.191 130.153  0.00  0.00    +0.000 NA
BRANCH   9  16
ATOM     15  C   UNL     1     -13.466  10.830 129.785  0.00  0.00    +0.000 C 
ATOM     16  O   UNL     1     -13.404   9.831 128.776  0.00  0.00    +0.000 OA
ENDBRANCH   9  16
ENDBRANCH   1  12
BRANCH   7  17
ATOM     17  O   UNL     1      -4.743   4.617 130.220  0.00  0.00    +0.000 OA
BRANCH  17  18
ATOM     18  C   UNL     1      -3.507   4.965 130.750  0.00  0.00    +0.000 A 
ATOM     19  C   UNL     1      -3.007   4.225 131.836  0.00  0.00    +0.000 A 
ATOM     20  C   UNL     1      -1.847   4.648 132.516  0.00  0.00    +0.000 A 
ATOM     21  C   UNL     1      -1.214   5.822 132.136  0.00  0.00    +0.000 A 
ATOM     22  F   UNL     1      -0.133   6.259 132.796  0.00  0.00    +0.000 F 
ATOM     23  C   UNL     1      -1.690   6.557 131.072  0.00  0.00    +0.000 A 
ATOM     24  C   UNL     1      -2.824   6.132 130.368  0.00  0.00    +0.000 A 
ATOM     25  C   UNL     1      -3.214   6.977 129.211  0.00  0.00    +0.000 C 
ENDBRANCH  17  18
ENDBRANCH   7  17
TORSDOF 4
ENDMDL
MODEL 3
REMARK VINA RESULT:      -7.7      3.466      3.978
REMARK  Name = CHEMBL1092499
REMARK  7 active torsions:
REMARK  status: ('A' for Active; 'I' for Inactive)
REMARK    1  A    between atoms: C_1  and  O_2
REMARK    2  A    between atoms: O_2  and  C_3
REMARK    3  A    between atoms: C_6  and  N_7
REMARK    4  A    between atoms: N_7  and  C_8
REMARK    5  A    between atoms: C_13  and  O_14
REMARK    6  A    between atoms: O_14  and  C_15
REMARK    7  A    between atoms: C_21  and  C_22
REMARK                            x       y       z     vdW  Elec       q    Type
REMARK                         _______ _______ _______ _____ _____    ______ ____
ROOT
ATOM      1  N   UNL     1      -6.873   4.386 129.432  0.00  0.00    +0.000 N 
ATOM      2  C   UNL     1      -6.594   4.963 130.751  0.00  0.00    +0.000 C 
ATOM      3  C   UNL     1      -8.210   3.923 129.152  0.00  0.00    +0.000 C 
ATOM      4  O   UNL     1      -8.570   3.383 128.104  0.00  0.00    +0.000 OA
ATOM      5  N   UNL     1      -9.107   4.031 130.227  0.00  0.00    +0.000 N 
ATOM      6  C   UNL     1     -10.441   3.448 130.408  0.00  0.00    +0.000 C 
ATOM      7  C   UNL     1     -11.012   4.876 130.654  0.00  0.00    +0.000 C 
ATOM      8  C   UNL     1      -9.531   5.270 130.861  0.00  0.00    +0.000 C 
ENDROOT
BRANCH   1  12
ATOM      9  C   UNL     1      -3.470   3.858 126.856  0.00  0.00    +0.000 A 
ATOM     10  C   UNL     1      -4.304   2.782 127.098  0.00  0.00    +0.000 A 
ATOM     11  C   UNL     1      -5.431   2.947 127.932  0.00  0.00    +0.000 A 
ATOM     12  C   UNL     1      -5.732   4.173 128.531  0.00  0.00    +0.000 A 
ATOM     13  C   UNL     1      -4.806   5.180 128.205  0.00  0.00    +0.000 A 
ATOM     14  N   UNL     1      -3.704   5.056 127.406  0.00  0.00    +0.000 NA
BRANCH   9  16
ATOM     15  C   UNL     1      -1.366   2.818 126.612  0.00  0.00    +0.000 C 
ATOM     16  O   UNL     1      -2.298   3.790 126.158  0.00  0.00    +0.000 OA
ENDBRANCH   9  16
ENDBRANCH   1  12
BRANCH   7  17
ATOM     17  O   UNL     1     -11.807   5.471 129.579  0.00  0.00    +0.000 OA
BRANCH  17  18
ATOM     18  C   UNL     1     -12.084   6.832 129.611  0.00  0.00    +0.000 A 
ATOM     19  C   UNL     1     -12.550   7.395 130.812  0.00  0.00    +0.000 A 
ATOM     20  C   UNL     1     -13.009   8.727 130.846  0.00  0.00    +0.000 A 
ATOM     21  C   UNL     1     -13.037   9.478 129.680  0.00  0.00    +0.000 A 
ATOM     22  F   UNL     1     -13.506  10.732 129.685  0.00  0.00    +0.000 F 
ATOM     23  C   UNL     1     -12.582   8.940 128.495  0.00  0.00    +0.000 A 
ATOM     24  C   UNL     1     -12.094   7.628 128.453  0.00  0.00    +0.000 A 
ATOM     25  C   UNL     1     -11.585   7.174 127.134  0.00  0.00    +0.000 C 
ENDBRANCH  17  18
ENDBRANCH   7  17
TORSDOF 4
ENDMDL
MODEL 4
REMARK VINA RESULT:      -7.6      5.456      8.898
REMARK  Name = CHEMBL1092499
REMARK  7 active torsions:
REMARK  status: ('A' for Active; 'I' for Inactive)
REMARK    1  A    between atoms: C_1  and  O_2
REMARK    2  A    between atoms: O_2  and  C_3
REMARK    3  A    between atoms: C_6  and  N_7
REMARK    4  A    between atoms: N_7  and  C_8
REMARK    5  A    between atoms: C_13  and  O_14
REMARK    6  A    between atoms: O_14  and  C_15
REMARK    7  A    between atoms: C_21  and  C_22
REMARK                            x       y       z     vdW  Elec       q    Type
REMARK                         _______ _______ _______ _____ _____    ______ ____
ROOT
ATOM      1  N   UNL     1      -9.723   5.229 131.006  0.00  0.00    +0.000 N 
ATOM      2  C   UNL     1      -9.444   5.086 132.438  0.00  0.00    +0.000 C 
ATOM      3  C   UNL     1      -8.996   4.398 130.076  0.00  0.00    +0.000 C 
ATOM      4  O   UNL     1      -9.103   4.444 128.850  0.00  0.00    +0.000 OA
ATOM      5  N   UNL     1      -8.034   3.561 130.664  0.00  0.00    +0.000 N 
ATOM      6  C   UNL     1      -6.952   2.785 130.048  0.00  0.00    +0.000 C 
ATOM      7  C   UNL     1      -7.516   1.499 130.721  0.00  0.00    +0.000 C 
ATOM      8  C   UNL     1      -8.304   2.489 131.610  0.00  0.00    +0.000 C 
ENDROOT
BRANCH   1  12
ATOM      9  C   UNL     1     -12.277   8.427 129.686  0.00  0.00    +0.000 A 
ATOM     10  C   UNL     1     -12.749   7.537 130.633  0.00  0.00    +0.000 A 
ATOM     11  C   UNL     1     -11.915   6.491 131.083  0.00  0.00    +0.000 A 
ATOM     12  C   UNL     1     -10.617   6.320 130.595  0.00  0.00    +0.000 A 
ATOM     13  C   UNL     1     -10.264   7.289 129.638  0.00  0.00    +0.000 A 
ATOM     14  N   UNL     1     -11.044   8.311 129.177  0.00  0.00    +0.000 NA
BRANCH   9  16
ATOM     15  C   UNL     1     -13.312  10.535 129.916  0.00  0.00    +0.000 C 
ATOM     16  O   UNL     1     -13.027   9.407 129.100  0.00  0.00    +0.000 OA
ENDBRANCH   9  16
ENDBRANCH   1  12
BRANCH   7  17
ATOM     17  O   UNL     1      -8.212   0.545 129.856  0.00  0.00    +0.000 OA
BRANCH  17  18
ATOM     18  C   UNL     1      -7.897  -0.806 129.942  0.00  0.00    +0.000 A 
ATOM     19  C   UNL     1      -7.700  -1.372 131.213  0.00  0.00    +0.000 A 
ATOM     20  C   UNL     1      -7.210  -2.687 131.342  0.00  0.00    +0.000 A 
ATOM     21  C   UNL     1      -6.882  -3.416 130.208  0.00  0.00    +0.000 A 
ATOM     22  F   UNL     1      -6.378  -4.653 130.313  0.00  0.00    +0.000 F 
ATOM     23  C   UNL     1      -7.071  -2.875 128.954  0.00  0.00    +0.000 A 
ATOM     24  C   UNL     1      -7.587  -1.581 128.811  0.00  0.00    +0.000 A 
ATOM     25  C   UNL     1      -7.793  -1.124 127.414  0.00  0.00    +0.000 C 
ENDBRANCH  17  18
ENDBRANCH   7  17
TORSDOF 4
ENDMDL
MODEL 5
REMARK VINA RESULT:      -7.6      5.484      9.378
REMARK  Name = CHEMBL1092499
REMARK  7 active torsions:
REMARK  status: ('A' for Active; 'I' for Inactive)
REMARK    1  A    between atoms: C_1  and  O_2
REMARK    2  A    between atoms: O_2  and  C_3
REMARK    3  A    between atoms: C_6  and  N_7
REMARK    4  A    between atoms: N_7  and  C_8
REMARK    5  A    between atoms: C_13  and  O_14
REMARK    6  A    between atoms: O_14  and  C_15
REMARK    7  A    between atoms: C_21  and  C_22
REMARK                            x       y       z     vdW  Elec       q    Type
REMARK                         _______ _______ _______ _____ _____    ______ ____
ROOT
ATOM      1  N   UNL     1      -7.381   1.260 126.808  0.00  0.00    +0.000 N 
ATOM      2  C   UNL     1      -7.840   2.549 127.333  0.00  0.00    +0.000 C 
ATOM      3  C   UNL     1      -7.616   0.961 125.415  0.00  0.00    +0.000 C 
ATOM      4  O   UNL     1      -7.319  -0.096 124.857  0.00  0.00    +0.000 OA
ATOM      5  N   UNL     1      -8.328   1.947 124.715  0.00  0.00    +0.000 N 
ATOM      6  C   UNL     1      -8.964   1.895 123.393  0.00  0.00    +0.000 C 
ATOM      7  C   UNL     1      -8.128   3.137 122.962  0.00  0.00    +0.000 C 
ATOM      8  C   UNL     1      -7.884   3.313 124.479  0.00  0.00    +0.000 C 
ENDROOT
BRANCH   1  12
ATOM      9  C   UNL     1      -5.901  -1.680 129.575  0.00  0.00    +0.000 A 
ATOM     10  C   UNL     1      -5.072  -0.643 129.188  0.00  0.00    +0.000 A 
ATOM     11  C   UNL     1      -5.552   0.335 128.291  0.00  0.00    +0.000 A 
ATOM     12  C   UNL     1      -6.848   0.287 127.770  0.00  0.00    +0.000 A 
ATOM     13  C   UNL     1      -7.582  -0.816 128.242  0.00  0.00    +0.000 A 
ATOM     14  N   UNL     1      -7.151  -1.782 129.106  0.00  0.00    +0.000 NA
BRANCH   9  16
ATOM     15  C   UNL     1      -6.373  -3.867 130.324  0.00  0.00    +0.000 C 
ATOM     16  O   UNL     1      -5.513  -2.736 130.350  0.00  0.00    +0.000 OA
ENDBRANCH   9  16
ENDBRANCH   1  12
BRANCH   7  17
ATOM     17  O   UNL     1      -7.014   2.903 122.042  0.00  0.00    +0.000 OA
BRANCH  17  18
ATOM     18  C   UNL     1      -6.769   3.817 121.025  0.00  0.00    +0.000 A 
ATOM     19  C   UNL     1      -7.685   3.900 119.960  0.00  0.00    +0.000 A 
ATOM     20  C   UNL     1      -7.391   4.682 118.825  0.00  0.00    +0.000 A 
ATOM     21  C   UNL     1      -6.176   5.344 118.738  0.00  0.00    +0.000 A 
ATOM     22  F   UNL     1      -5.864   6.059 117.649  0.00  0.00    +0.000 F 
ATOM     23  C   UNL     1      -5.269   5.274 119.774  0.00  0.00    +0.000 A 
ATOM     24  C   UNL     1      -5.561   4.526 120.921  0.00  0.00    +0.000 A 
ATOM     25  C   UNL     1      -4.531   4.564 121.991  0.00  0.00    +0.000 C 
ENDBRANCH  17  18
ENDBRANCH   7  17
TORSDOF 4
ENDMDL
MODEL 6
REMARK VINA RESULT:      -7.5      3.221      3.872
REMARK  Name = CHEMBL1092499
REMARK  7 active torsions:
REMARK  status: ('A' for Active; 'I' for Inactive)
REMARK    1  A    between atoms: C_1  and  O_2
REMARK    2  A    between atoms: O_2  and  C_3
REMARK    3  A    between atoms: C_6  and  N_7
REMARK    4  A    between atoms: N_7  and  C_8
REMARK    5  A    between atoms: C_13  and  O_14
REMARK    6  A    between atoms: O_14  and  C_15
REMARK    7  A    between atoms: C_21  and  C_22
REMARK                            x       y       z     vdW  Elec       q    Type
REMARK                         _______ _______ _______ _____ _____    ______ ____
ROOT
ATOM      1  N   UNL     1      -6.659   1.535 127.201  0.00  0.00    +0.000 N 
ATOM      2  C   UNL     1      -5.458   2.062 127.855  0.00  0.00    +0.000 C 
ATOM      3  C   UNL     1      -7.948   2.016 127.637  0.00  0.00    +0.000 C 
ATOM      4  O   UNL     1      -9.034   1.629 127.204  0.00  0.00    +0.000 OA
ATOM      5  N   UNL     1      -7.905   2.922 128.710  0.00  0.00    +0.000 N 
ATOM      6  C   UNL     1      -8.983   3.418 129.573  0.00  0.00    +0.000 C 
ATOM      7  C   UNL     1      -8.592   4.877 129.192  0.00  0.00    +0.000 C 
ATOM      8  C   UNL     1      -7.278   4.235 128.689  0.00  0.00    +0.000 C 
ENDROOT
BRANCH   1  12
ATOM      9  C   UNL     1      -6.170  -1.779 124.505  0.00  0.00    +0.000 A 
ATOM     10  C   UNL     1      -6.589  -0.561 124.004  0.00  0.00    +0.000 A 
ATOM     11  C   UNL     1      -6.741   0.537 124.878  0.00  0.00    +0.000 A 
ATOM     12  C   UNL     1      -6.484   0.432 126.247  0.00  0.00    +0.000 A 
ATOM     13  C   UNL     1      -6.068  -0.858 126.624  0.00  0.00    +0.000 A 
ATOM     14  N   UNL     1      -5.913  -1.944 125.809  0.00  0.00    +0.000 NA
BRANCH   9  16
ATOM     15  C   UNL     1      -4.798  -3.511 123.676  0.00  0.00    +0.000 C 
ATOM     16  O   UNL     1      -6.092  -2.933 123.777  0.00  0.00    +0.000 OA
ENDBRANCH   9  16
ENDBRANCH   1  12
BRANCH   7  17
ATOM     17  O   UNL     1      -9.483   5.587 128.274  0.00  0.00    +0.000 OA
BRANCH  17  18
ATOM     18  C   UNL     1     -10.289   6.608 128.762  0.00  0.00    +0.000 A 
ATOM     19  C   UNL     1     -10.577   6.639 130.138  0.00  0.00    +0.000 A 
ATOM     20  C   UNL     1     -11.525   7.547 130.650  0.00  0.00    +0.000 A 
ATOM     21  C   UNL     1     -12.210   8.389 129.787  0.00  0.00    +0.000 A 
ATOM     22  F   UNL     1     -13.143   9.231 130.251  0.00  0.00    +0.000 F 
ATOM     23  C   UNL     1     -11.938   8.372 128.435  0.00  0.00    +0.000 A 
ATOM     24  C   UNL     1     -10.975   7.497 127.918  0.00  0.00    +0.000 A 
ATOM     25  C   UNL     1     -10.732   7.603 126.457  0.00  0.00    +0.000 C 
ENDBRANCH  17  18
ENDBRANCH   7  17
TORSDOF 4
ENDMDL
MODEL 7
REMARK VINA RESULT:      -7.3      4.645      6.337
REMARK  Name = CHEMBL1092499
REMARK  7 active torsions:
REMARK  status: ('A' for Active; 'I' for Inactive)
REMARK    1  A    between atoms: C_1  and  O_2
REMARK    2  A    between atoms: O_2  and  C_3
REMARK    3  A    between atoms: C_6  and  N_7
REMARK    4  A    between atoms: N_7  and  C_8
REMARK    5  A    between atoms: C_13  and  O_14
REMARK    6  A    between atoms: O_14  and  C_15
REMARK    7  A    between atoms: C_21  and  C_22
REMARK                            x       y       z     vdW  Elec       q    Type
REMARK                         _______ _______ _______ _____ _____    ______ ____
ROOT
ATOM      1  N   UNL     1      -7.591   1.628 129.725  0.00  0.00    +0.000 N 
ATOM      2  C   UNL     1      -6.544   2.330 128.977  0.00  0.00    +0.000 C 
ATOM      3  C   UNL     1      -8.586   2.412 130.417  0.00  0.00    +0.000 C 
ATOM      4  O   UNL     1      -9.493   1.953 131.112  0.00  0.00    +0.000 OA
ATOM      5  N   UNL     1      -8.399   3.801 130.337  0.00  0.00    +0.000 N 
ATOM      6  C   UNL     1      -9.030   4.886 131.098  0.00  0.00    +0.000 C 
ATOM      7  C   UNL     1      -9.480   5.539 129.758  0.00  0.00    +0.000 C 
ATOM      8  C   UNL     1      -8.434   4.596 129.119  0.00  0.00    +0.000 C 
ENDROOT
BRANCH   1  12
ATOM      9  C   UNL     1      -7.198  -2.647 129.973  0.00  0.00    +0.000 A 
ATOM     10  C   UNL     1      -7.094  -1.894 131.128  0.00  0.00    +0.000 A 
ATOM     11  C   UNL     1      -7.235  -0.491 131.060  0.00  0.00    +0.000 A 
ATOM     12  C   UNL     1      -7.472   0.169 129.852  0.00  0.00    +0.000 A 
ATOM     13  C   UNL     1      -7.553  -0.711 128.758  0.00  0.00    +0.000 A 
ATOM     14  N   UNL     1      -7.420  -2.071 128.785  0.00  0.00    +0.000 NA
BRANCH   9  16
ATOM     15  C   UNL     1      -5.727  -4.438 130.416  0.00  0.00    +0.000 C 
ATOM     16  O   UNL     1      -6.974  -3.992 129.901  0.00  0.00    +0.000 OA
ENDBRANCH   9  16
ENDBRANCH   1  12
BRANCH   7  17
ATOM     17  O   UNL     1     -10.898   5.437 129.410  0.00  0.00    +0.000 OA
BRANCH  17  18
ATOM     18  C   UNL     1     -11.655   6.596 129.294  0.00  0.00    +0.000 A 
ATOM     19  C   UNL     1     -11.761   7.208 128.032  0.00  0.00    +0.000 A 
ATOM     20  C   UNL     1     -12.369   8.472 127.900  0.00  0.00    +0.000 A 
ATOM     21  C   UNL     1     -12.832   9.137 129.026  0.00  0.00    +0.000 A 
ATOM     22  F   UNL     1     -13.377  10.357 128.924  0.00  0.00    +0.000 F 
ATOM     23  C   UNL     1     -12.737   8.550 130.270  0.00  0.00    +0.000 A 
ATOM     24  C   UNL     1     -12.163   7.280 130.411  0.00  0.00    +0.000 A 
ATOM     25  C   UNL     1     -12.161   6.729 131.790  0.00  0.00    +0.000 C 
ENDBRANCH  17  18
ENDBRANCH   7  17
TORSDOF 4
ENDMDL
MODEL 8
REMARK VINA RESULT:      -7.3      5.391      8.996
REMARK  Name = CHEMBL1092499
REMARK  7 active torsions:
REMARK  status: ('A' for Active; 'I' for Inactive)
REMARK    1  A    between atoms: C_1  and  O_2
REMARK    2  A    between atoms: O_2  and  C_3
REMARK    3  A    between atoms: C_6  and  N_7
REMARK    4  A    between atoms: N_7  and  C_8
REMARK    5  A    between atoms: C_13  and  O_14
REMARK    6  A    between atoms: O_14  and  C_15
REMARK    7  A    between atoms: C_21  and  C_22
REMARK                            x       y       z     vdW  Elec       q    Type
REMARK                         _______ _______ _______ _____ _____    ______ ____
ROOT
ATOM      1  N   UNL     1      -3.138   5.122 129.833  0.00  0.00    +0.000 N 
ATOM      2  C   UNL     1      -3.797   3.937 130.390  0.00  0.00    +0.000 C 
ATOM      3  C   UNL     1      -2.857   5.152 128.418  0.00  0.00    +0.000 C 
ATOM      4  O   UNL     1      -2.275   6.064 127.829  0.00  0.00    +0.000 OA
ATOM      5  N   UNL     1      -3.209   3.983 127.724  0.00  0.00    +0.000 N 
ATOM      6  C   UNL     1      -2.857   3.546 126.368  0.00  0.00    +0.000 C 
ATOM      7  C   UNL     1      -4.373   3.400 126.042  0.00  0.00    +0.000 C 
ATOM      8  C   UNL     1      -4.556   3.454 127.577  0.00  0.00    +0.000 C 
ENDROOT
BRANCH   1  12
ATOM      9  C   UNL     1      -1.873   8.142 132.621  0.00  0.00    +0.000 A 
ATOM     10  C   UNL     1      -1.086   7.019 132.443  0.00  0.00    +0.000 A 
ATOM     11  C   UNL     1      -1.484   6.028 131.521  0.00  0.00    +0.000 A 
ATOM     12  C   UNL     1      -2.663   6.142 130.778  0.00  0.00    +0.000 A 
ATOM     13  C   UNL     1      -3.368   7.327 131.056  0.00  0.00    +0.000 A 
ATOM     14  N   UNL     1      -3.015   8.305 131.942  0.00  0.00    +0.000 NA
BRANCH   9  16
ATOM     15  C   UNL     1      -1.898  10.444 133.140  0.00  0.00    +0.000 C 
ATOM     16  O   UNL     1      -1.644   9.110 133.558  0.00  0.00    +0.000 OA
ENDBRANCH   9  16
ENDBRANCH   1  12
BRANCH   7  17
ATOM     17  O   UNL     1      -4.969   4.418 125.176  0.00  0.00    +0.000 OA
BRANCH  17  18
ATOM     18  C   UNL     1      -6.055   4.080 124.377  0.00  0.00    +0.000 A 
ATOM     19  C   UNL     1      -7.232   3.627 124.998  0.00  0.00    +0.000 A 
ATOM     20  C   UNL     1      -8.293   3.110 124.228  0.00  0.00    +0.000 A 
ATOM     21  C   UNL     1      -8.162   3.010 122.851  0.00  0.00    +0.000 A 
ATOM     22  F   UNL     1      -9.144   2.485 122.107  0.00  0.00    +0.000 F 
ATOM     23  C   UNL     1      -7.014   3.452 122.227  0.00  0.00    +0.000 A 
ATOM     24  C   UNL     1      -5.965   3.997 122.977  0.00  0.00    +0.000 A 
ATOM     25  C   UNL     1      -4.802   4.484 122.194  0.00  0.00    +0.000 C 
ENDBRANCH  17  18
ENDBRANCH   7  17
TORSDOF 4
ENDMDL
MODEL 9
REMARK VINA RESULT:      -7.2      5.848      9.112
REMARK  Name = CHEMBL1092499
REMARK  7 active torsions:
REMARK  status: ('A' for Active; 'I' for Inactive)
REMARK    1  A    between atoms: C_1  and  O_2
REMARK    2  A    between atoms: O_2  and  C_3
REMARK    3  A    between atoms: C_6  and  N_7
REMARK    4  A    between atoms: N_7  and  C_8
REMARK    5  A    between atoms: C_13  and  O_14
REMARK    6  A    between atoms: O_14  and  C_15
REMARK    7  A    between atoms: C_21  and  C_22
REMARK                            x       y       z     vdW  Elec       q    Type
REMARK                         _______ _______ _______ _____ _____    ______ ____
ROOT
ATOM      1  N   UNL     1      -8.971   4.334 130.839  0.00  0.00    +0.000 N 
ATOM      2  C   UNL     1      -8.337   4.532 132.146  0.00  0.00    +0.000 C 
ATOM      3  C   UNL     1      -8.513   3.245 130.009  0.00  0.00    +0.000 C 
ATOM      4  O   UNL     1      -8.928   2.991 128.878  0.00  0.00    +0.000 OA
ATOM      5  N   UNL     1      -7.440   2.512 130.542  0.00  0.00    +0.000 N 
ATOM      6  C   UNL     1      -6.558   1.528 129.904  0.00  0.00    +0.000 C 
ATOM      7  C   UNL     1      -6.944   0.496 131.006  0.00  0.00    +0.000 C 
ATOM      8  C   UNL     1      -7.470   1.733 131.771  0.00  0.00    +0.000 C 
ENDROOT
BRANCH   1  12
ATOM      9  C   UNL     1     -11.868   7.259 129.597  0.00  0.00    +0.000 A 
ATOM     10  C   UNL     1     -10.527   7.596 129.591  0.00  0.00    +0.000 A 
ATOM     11  C   UNL     1      -9.567   6.639 129.984  0.00  0.00    +0.000 A 
ATOM     12  C   UNL     1      -9.930   5.352 130.388  0.00  0.00    +0.000 A 
ATOM     13  C   UNL     1     -11.320   5.142 130.350  0.00  0.00    +0.000 A 
ATOM     14  N   UNL     1     -12.278   6.043 129.979  0.00  0.00    +0.000 NA
BRANCH   9  16
ATOM     15  C   UNL     1     -13.469   8.037 128.047  0.00  0.00    +0.000 C 
ATOM     16  O   UNL     1     -12.889   8.130 129.341  0.00  0.00    +0.000 OA
ENDBRANCH   9  16
ENDBRANCH   1  12
BRANCH   7  17
ATOM     17  O   UNL     1      -7.846  -0.589 130.616  0.00  0.00    +0.000 OA
BRANCH  17  18
ATOM     18  C   UNL     1      -7.405  -1.903 130.700  0.00  0.00    +0.000 A 
ATOM     19  C   UNL     1      -6.840  -2.348 131.908  0.00  0.00    +0.000 A 
ATOM     20  C   UNL     1      -6.223  -3.613 131.985  0.00  0.00    +0.000 A 
ATOM     21  C   UNL     1      -6.136  -4.410 130.854  0.00  0.00    +0.000 A 
ATOM     22  F   UNL     1      -5.518  -5.597 130.899  0.00  0.00    +0.000 F 
ATOM     23  C   UNL     1      -6.687  -3.988 129.662  0.00  0.00    +0.000 A 
ATOM     24  C   UNL     1      -7.331  -2.747 129.579  0.00  0.00    +0.000 A 
ATOM     25  C   UNL     1      -7.928  -2.422 128.259  0.00  0.00    +0.000 C 
ENDBRANCH  17  18
ENDBRANCH   7  17
TORSDOF 4
ENDMDL
