MODEL 1
REMARK VINA RESULT:     -10.1      0.000      0.000
REMARK  Name = CHEMBL2369829
REMARK  19 active torsions:
REMARK  status: ('A' for Active; 'I' for Inactive)
REMARK    1  A    between atoms: C_1  and  C_2
REMARK    2  A    between atoms: C_2  and  C_3
REMARK    3  A    between atoms: C_7  and  C_8
REMARK    4  A    between atoms: C_8  and  C_9
REMARK    5  A    between atoms: C_18  and  C_19
REMARK    6  A    between atoms: C_19  and  C_20
REMARK    7  A    between atoms: C_23  and  O_24
REMARK    8  A    between atoms: C_35  and  C_36
REMARK    9  A    between atoms: C_42  and  C_43
REMARK   10  A    between atoms: N_45  and  C_46
REMARK   11  A    between atoms: C_46  and  C_47
REMARK   12  A    between atoms: C_46  and  C_54
REMARK   13  A    between atoms: C_47  and  C_48
REMARK   14  A    between atoms: C_48  and  C_49
REMARK   15  A    between atoms: C_49  and  N_50
REMARK   16  A    between atoms: N_56  and  C_57
REMARK   17  A    between atoms: C_57  and  C_58
REMARK   18  A    between atoms: C_64  and  C_65
REMARK   19  A    between atoms: C_65  and  C_66
REMARK                            x       y       z     vdW  Elec       q    Type
REMARK                         _______ _______ _______ _____ _____    ______ ____
ROOT
ATOM      1  C   UNL     1      -6.789   3.204 125.988  0.00  0.00    +0.000 C 
ATOM      2  N   UNL     1      -8.024   2.407 125.697  0.00  0.00    +0.000 N 
ATOM      3  C   UNL     1      -8.262   1.083 126.074  0.00  0.00    +0.000 C 
ATOM      4  O   UNL     1      -9.390   0.734 126.447  0.00  0.00    +0.000 OA
ATOM      5  C   UNL     1      -7.175   0.056 125.786  0.00  0.00    +0.000 C 
ATOM      6  N   UNL     1      -6.113  -0.124 126.737  0.00  0.00    +0.000 N 
ATOM      7  C   UNL     1      -6.065  -1.093 127.729  0.00  0.00    +0.000 C 
ATOM      8  O   UNL     1      -4.918  -1.538 127.907  0.00  0.00    +0.000 OA
ATOM      9  C   UNL     1      -7.481  -1.505 128.715  0.00  0.00    +0.000 C 
ATOM     10  N   UNL     1      -7.187  -2.875 129.038  0.00  0.00    +0.000 N 
ATOM     11  C   UNL     1      -6.300  -3.318 129.967  0.00  0.00    +0.000 C 
ATOM     12  O   UNL     1      -6.251  -4.549 130.098  0.00  0.00    +0.000 OA
ATOM     13  C   UNL     1      -5.370  -2.436 130.867  0.00  0.00    +0.000 C 
ATOM     14  C   UNL     1      -5.242  -0.921 130.843  0.00  0.00    +0.000 C 
ATOM     15  S   UNL     1      -3.940   0.038 131.757  0.00  0.00    +0.000 S 
ATOM     16  S   UNL     1      -4.871   1.836 132.229  0.00  0.00    +0.000 S 
ATOM     17  C   UNL     1      -3.936   3.335 131.578  0.00  0.00    +0.000 C 
ATOM     18  C   UNL     1      -4.332   4.818 131.248  0.00  0.00    +0.000 C 
ATOM     19  N   UNL     1      -3.987   5.185 129.820  0.00  0.00    +0.000 N 
ATOM     20  C   UNL     1      -4.435   4.659 128.652  0.00  0.00    +0.000 C 
ATOM     21  O   UNL     1      -4.056   4.942 127.526  0.00  0.00    +0.000 OA
ATOM     22  C   UNL     1      -5.546   3.755 128.825  0.00  0.00    +0.000 C 
ATOM     23  N   UNL     1      -6.705   4.356 128.206  0.00  0.00    +0.000 N 
ATOM     24  C   UNL     1      -7.243   4.315 126.949  0.00  0.00    +0.000 C 
ATOM     25  O   UNL     1      -8.298   4.937 126.761  0.00  0.00    +0.000 OA
ATOM     26  H   UNL     1      -8.904   2.893 125.906  0.00  0.00    +0.000 HD
ATOM     27  H   UNL     1      -5.188   0.147 126.411  0.00  0.00    +0.000 HD
ATOM     28  H   UNL     1      -7.714  -3.586 128.540  0.00  0.00    +0.000 HD
ATOM     29  H   UNL     1      -3.361   5.969 129.673  0.00  0.00    +0.000 HD
ATOM     30  H   UNL     1      -7.268   4.852 128.896  0.00  0.00    +0.000 HD
ENDROOT
BRANCH  18  31
ATOM     31  C   UNL     1      -3.595   5.886 132.147  0.00  0.00    +0.000 C 
ATOM     32  O   UNL     1      -2.995   6.806 131.581  0.00  0.00    +0.000 OA
ATOM     33  N   UNL     1      -3.843   5.896 133.515  0.00  0.00    +0.000 N 
ATOM     34  C   UNL     1      -3.797   4.793 134.465  0.00  0.00    +0.000 C 
ATOM     35  C   UNL     1      -4.813   5.228 135.479  0.00  0.00    +0.000 C 
ATOM     36  C   UNL     1      -4.430   6.677 135.687  0.00  0.00    +0.000 C 
ATOM     37  C   UNL     1      -3.862   7.145 134.326  0.00  0.00    +0.000 C 
BRANCH  37  38
ATOM     38  C   UNL     1      -2.462   7.683 134.672  0.00  0.00    +0.000 C 
ATOM     39  O   UNL     1      -1.583   6.916 135.066  0.00  0.00    +0.000 OA
ATOM     40  N   UNL     1      -2.282   9.062 134.627  0.00  0.00    +0.000 N 
ATOM     41  H   UNL     1      -3.078   9.694 134.630  0.00  0.00    +0.000 HD
BRANCH  40  42
ATOM     42  C   UNL     1      -0.948   9.695 134.751  0.00  0.00    +0.000 C 
BRANCH  42  43
ATOM     43  C   UNL     1      -1.015  10.966 135.667  0.00  0.00    +0.000 C 
ATOM     44  O   UNL     1      -0.593  10.955 136.823  0.00  0.00    +0.000 OA
ATOM     45  N   UNL     1      -1.570  12.100 135.097  0.00  0.00    +0.000 N 
ATOM     46  H   UNL     1      -1.879  12.061 134.141  0.00  0.00    +0.000 HD
BRANCH  45  47
ATOM     47  C   UNL     1      -1.725  13.358 135.834  0.00  0.00    +0.000 C 
BRANCH  47  48
ATOM     48  C   UNL     1      -2.018  14.615 134.991  0.00  0.00    +0.000 C 
ATOM     49  N   UNL     1      -1.814  15.838 135.563  0.00  0.00    +0.000 N 
ATOM     50  O   UNL     1      -2.419  14.556 133.831  0.00  0.00    +0.000 OA
ATOM     51  H   UNL     1      -1.497  16.009 136.499  0.00  0.00    +0.000 HD
ATOM     52  H   UNL     1      -2.018  16.651 134.992  0.00  0.00    +0.000 HD
ENDBRANCH  47  48
ENDBRANCH  45  47
ENDBRANCH  42  43
BRANCH  42  53
ATOM     53  C   UNL     1      -0.410  10.098 133.360  0.00  0.00    +0.000 C 
BRANCH  53  54
ATOM     54  C   UNL     1       1.054  10.519 133.404  0.00  0.00    +0.000 C 
BRANCH  54  55
ATOM     55  C   UNL     1       1.334  11.897 132.881  0.00  0.00    +0.000 C 
BRANCH  55  56
ATOM     56  N   UNL     1       0.048  12.552 132.645  0.00  0.00    +0.000 NA
ATOM     57  C   UNL     1      -0.150  13.000 131.461  0.00  0.00    +0.000 C 
ATOM     58  N   UNL     1       0.703  12.901 130.428  0.00  0.00    +0.000 N 
ATOM     59  N   UNL     1      -1.296  13.626 131.157  0.00  0.00    +0.000 N 
ATOM     60  H   UNL     1       1.596  12.457 130.576  0.00  0.00    +0.000 HD
ATOM     61  H   UNL     1       0.504  13.251 129.510  0.00  0.00    +0.000 HD
ATOM     62  H   UNL     1      -1.967  13.750 131.904  0.00  0.00    +0.000 HD
ATOM     63  H   UNL     1      -1.517  13.993 130.247  0.00  0.00    +0.000 HD
ENDBRANCH  55  56
ENDBRANCH  54  55
ENDBRANCH  53  54
ENDBRANCH  42  53
ENDBRANCH  40  42
ENDBRANCH  37  38
ENDBRANCH  18  31
BRANCH   1  65
ATOM     64  C   UNL     1      -6.107   3.819 123.517  0.00  0.00    +0.000 C 
ATOM     65  C   UNL     1      -5.767   3.764 124.989  0.00  0.00    +0.000 C 
ENDBRANCH   1  65
BRANCH   9  66
ATOM     66  C   UNL     1      -8.396  -0.871 130.038  0.00  0.00    +0.000 C 
BRANCH  66  67
ATOM     67  C   UNL     1      -8.330   0.629 130.499  0.00  0.00    +0.000 A 
ATOM     68  C   UNL     1      -8.585   0.762 131.821  0.00  0.00    +0.000 A 
ATOM     69  C   UNL     1      -9.109   1.899 132.450  0.00  0.00    +0.000 A 
ATOM     70  C   UNL     1      -9.343   3.099 131.854  0.00  0.00    +0.000 A 
ATOM     71  C   UNL     1      -9.153   3.043 130.486  0.00  0.00    +0.000 A 
ATOM     72  C   UNL     1      -8.626   1.835 129.801  0.00  0.00    +0.000 A 
BRANCH  70  73
ATOM     73  O   UNL     1     -10.201   4.026 132.409  0.00  0.00    +0.000 OA
ATOM     74  H   UNL     1     -10.757   4.487 131.724  0.00  0.00    +0.000 HD
ENDBRANCH  70  73
ENDBRANCH  66  67
ENDBRANCH   9  66
BRANCH   5  75
ATOM     75  C   UNL     1      -7.758  -1.282 125.376  0.00  0.00    +0.000 C 
BRANCH  75  76
ATOM     76  C   UNL     1      -6.896  -2.075 124.445  0.00  0.00    +0.000 A 
ATOM     77  C   UNL     1      -6.196  -3.251 124.794  0.00  0.00    +0.000 A 
ATOM     78  C   UNL     1      -5.150  -3.721 124.039  0.00  0.00    +0.000 A 
ATOM     79  C   UNL     1      -5.025  -3.217 122.766  0.00  0.00    +0.000 A 
ATOM     80  C   UNL     1      -5.780  -2.113 122.354  0.00  0.00    +0.000 A 
ATOM     81  C   UNL     1      -6.662  -1.492 123.216  0.00  0.00    +0.000 A 
ENDBRANCH  75  76
ENDBRANCH   5  75
BRANCH  22  82
ATOM     82  C   UNL     1      -5.103   2.341 128.661  0.00  0.00    +0.000 C 
BRANCH  82  83
ATOM     83  C   UNL     1      -3.840   2.536 128.040  0.00  0.00    +0.000 C 
ATOM     84  N   UNL     1      -3.604   2.382 126.758  0.00  0.00    +0.000 N 
ATOM     85  O   UNL     1      -2.866   2.879 128.700  0.00  0.00    +0.000 OA
ATOM     86  H   UNL     1      -4.215   2.750 126.050  0.00  0.00    +0.000 HD
ATOM     87  H   UNL     1      -2.723   2.808 126.635  0.00  0.00    +0.000 HD
ENDBRANCH  82  83
ENDBRANCH  22  82
TORSDOF 18
ENDMDL
MODEL 2
REMARK VINA RESULT:     -10.1      1.405      2.997
REMARK  Name = CHEMBL2369829
REMARK  19 active torsions:
REMARK  status: ('A' for Active; 'I' for Inactive)
REMARK    1  A    between atoms: C_1  and  C_2
REMARK    2  A    between atoms: C_2  and  C_3
REMARK    3  A    between atoms: C_7  and  C_8
REMARK    4  A    between atoms: C_8  and  C_9
REMARK    5  A    between atoms: C_18  and  C_19
REMARK    6  A    between atoms: C_19  and  C_20
REMARK    7  A    between atoms: C_23  and  O_24
REMARK    8  A    between atoms: C_35  and  C_36
REMARK    9  A    between atoms: C_42  and  C_43
REMARK   10  A    between atoms: N_45  and  C_46
REMARK   11  A    between atoms: C_46  and  C_47
REMARK   12  A    between atoms: C_46  and  C_54
REMARK   13  A    between atoms: C_47  and  C_48
REMARK   14  A    between atoms: C_48  and  C_49
REMARK   15  A    between atoms: C_49  and  N_50
REMARK   16  A    between atoms: N_56  and  C_57
REMARK   17  A    between atoms: C_57  and  C_58
REMARK   18  A    between atoms: C_64  and  C_65
REMARK   19  A    between atoms: C_65  and  C_66
REMARK                            x       y       z     vdW  Elec       q    Type
REMARK                         _______ _______ _______ _____ _____    ______ ____
ROOT
ATOM      1  C   UNL     1      -6.830   2.841 125.930  0.00  0.00    +0.000 C 
ATOM      2  N   UNL     1      -7.967   1.909 125.636  0.00  0.00    +0.000 N 
ATOM      3  C   UNL     1      -8.105   0.601 126.105  0.00  0.00    +0.000 C 
ATOM      4  O   UNL     1      -9.217   0.173 126.442  0.00  0.00    +0.000 OA
ATOM      5  C   UNL     1      -6.913  -0.336 125.960  0.00  0.00    +0.000 C 
ATOM      6  N   UNL     1      -5.899  -0.341 126.979  0.00  0.00    +0.000 N 
ATOM      7  C   UNL     1      -5.825  -1.224 128.046  0.00  0.00    +0.000 C 
ATOM      8  O   UNL     1      -4.655  -1.542 128.322  0.00  0.00    +0.000 OA
ATOM      9  C   UNL     1      -7.255  -1.696 128.983  0.00  0.00    +0.000 C 
ATOM     10  N   UNL     1      -6.857  -3.003 129.431  0.00  0.00    +0.000 N 
ATOM     11  C   UNL     1      -5.992  -3.288 130.440  0.00  0.00    +0.000 C 
ATOM     12  O   UNL     1      -5.839  -4.496 130.672  0.00  0.00    +0.000 OA
ATOM     13  C   UNL     1      -5.204  -2.255 131.315  0.00  0.00    +0.000 C 
ATOM     14  C   UNL     1      -5.215  -0.742 131.177  0.00  0.00    +0.000 C 
ATOM     15  S   UNL     1      -4.065   0.404 132.080  0.00  0.00    +0.000 S 
ATOM     16  S   UNL     1      -5.184   2.134 132.355  0.00  0.00    +0.000 S 
ATOM     17  C   UNL     1      -4.352   3.663 131.639  0.00  0.00    +0.000 C 
ATOM     18  C   UNL     1      -4.862   5.072 131.169  0.00  0.00    +0.000 C 
ATOM     19  N   UNL     1      -4.464   5.363 129.737  0.00  0.00    +0.000 N 
ATOM     20  C   UNL     1      -4.788   4.710 128.592  0.00  0.00    +0.000 C 
ATOM     21  O   UNL     1      -4.369   4.944 127.470  0.00  0.00    +0.000 OA
ATOM     22  C   UNL     1      -5.820   3.719 128.777  0.00  0.00    +0.000 C 
ATOM     23  N   UNL     1      -6.990   4.158 128.049  0.00  0.00    +0.000 N 
ATOM     24  C   UNL     1      -7.443   3.972 126.772  0.00  0.00    +0.000 C 
ATOM     25  O   UNL     1      -8.537   4.473 126.477  0.00  0.00    +0.000 OA
ATOM     26  H   UNL     1      -8.899   2.323 125.758  0.00  0.00    +0.000 HD
ATOM     27  H   UNL     1      -4.985  -0.007 126.683  0.00  0.00    +0.000 HD
ATOM     28  H   UNL     1      -7.284  -3.797 128.964  0.00  0.00    +0.000 HD
ATOM     29  H   UNL     1      -3.905   6.190 129.562  0.00  0.00    +0.000 HD
ATOM     30  H   UNL     1      -7.637   4.648 128.665  0.00  0.00    +0.000 HD
ENDROOT
BRANCH  18  31
ATOM     31  C   UNL     1      -4.282   6.271 132.018  0.00  0.00    +0.000 C 
ATOM     32  O   UNL     1      -5.077   6.964 132.662  0.00  0.00    +0.000 OA
ATOM     33  N   UNL     1      -2.908   6.355 132.206  0.00  0.00    +0.000 N 
ATOM     34  C   UNL     1      -1.839   6.298 131.216  0.00  0.00    +0.000 C 
ATOM     35  C   UNL     1      -0.718   5.710 132.019  0.00  0.00    +0.000 C 
ATOM     36  C   UNL     1      -0.793   6.530 133.289  0.00  0.00    +0.000 C 
ATOM     37  C   UNL     1      -2.291   6.881 133.455  0.00  0.00    +0.000 C 
BRANCH  37  38
ATOM     38  C   UNL     1      -2.304   8.417 133.556  0.00  0.00    +0.000 C 
ATOM     39  O   UNL     1      -2.493   9.103 132.551  0.00  0.00    +0.000 OA
ATOM     40  N   UNL     1      -1.984   8.977 134.789  0.00  0.00    +0.000 N 
ATOM     41  H   UNL     1      -1.512   8.430 135.505  0.00  0.00    +0.000 HD
BRANCH  40  42
ATOM     42  C   UNL     1      -2.142  10.422 135.073  0.00  0.00    +0.000 C 
BRANCH  42  43
ATOM     43  C   UNL     1      -0.887  11.228 134.588  0.00  0.00    +0.000 C 
ATOM     44  O   UNL     1      -0.064  11.684 135.381  0.00  0.00    +0.000 OA
ATOM     45  N   UNL     1      -0.758  11.390 133.219  0.00  0.00    +0.000 N 
ATOM     46  H   UNL     1      -1.448  10.977 132.614  0.00  0.00    +0.000 HD
BRANCH  45  47
ATOM     47  C   UNL     1       0.346  12.140 132.614  0.00  0.00    +0.000 C 
BRANCH  47  48
ATOM     48  C   UNL     1       0.021  12.921 131.325  0.00  0.00    +0.000 C 
ATOM     49  N   UNL     1      -1.244  13.409 131.167  0.00  0.00    +0.000 N 
ATOM     50  O   UNL     1       0.855  13.122 130.444  0.00  0.00    +0.000 OA
ATOM     51  H   UNL     1      -2.005  13.302 131.812  0.00  0.00    +0.000 HD
ATOM     52  H   UNL     1      -1.437  13.915 130.310  0.00  0.00    +0.000 HD
ENDBRANCH  47  48
ENDBRANCH  45  47
ENDBRANCH  42  43
BRANCH  42  53
ATOM     53  C   UNL     1      -2.342  10.656 136.587  0.00  0.00    +0.000 C 
BRANCH  53  54
ATOM     54  C   UNL     1      -3.791  10.461 137.017  0.00  0.00    +0.000 C 
BRANCH  54  55
ATOM     55  C   UNL     1      -4.087   9.143 137.670  0.00  0.00    +0.000 C 
BRANCH  55  56
ATOM     56  N   UNL     1      -4.865   8.344 136.723  0.00  0.00    +0.000 NA
ATOM     57  C   UNL     1      -4.449   7.151 136.514  0.00  0.00    +0.000 C 
ATOM     58  N   UNL     1      -3.387   6.571 137.098  0.00  0.00    +0.000 N 
ATOM     59  N   UNL     1      -5.093   6.350 135.651  0.00  0.00    +0.000 N 
ATOM     60  H   UNL     1      -2.837   7.110 137.750  0.00  0.00    +0.000 HD
ATOM     61  H   UNL     1      -3.103   5.627 136.920  0.00  0.00    +0.000 HD
ATOM     62  H   UNL     1      -5.888   6.743 135.163  0.00  0.00    +0.000 HD
ATOM     63  H   UNL     1      -4.825   5.403 135.448  0.00  0.00    +0.000 HD
ENDBRANCH  55  56
ENDBRANCH  54  55
ENDBRANCH  53  54
ENDBRANCH  42  53
ENDBRANCH  40  42
ENDBRANCH  37  38
ENDBRANCH  18  31
BRANCH   1  65
ATOM     64  C   UNL     1      -6.138   3.505 123.474  0.00  0.00    +0.000 C 
ATOM     65  C   UNL     1      -5.804   3.420 124.946  0.00  0.00    +0.000 C 
ENDBRANCH   1  65
BRANCH   9  66
ATOM     66  C   UNL     1      -8.304  -1.056 130.200  0.00  0.00    +0.000 C 
BRANCH  66  67
ATOM     67  C   UNL     1      -8.465   0.480 130.486  0.00  0.00    +0.000 A 
ATOM     68  C   UNL     1      -9.188   0.711 131.607  0.00  0.00    +0.000 A 
ATOM     69  C   UNL     1      -9.946   1.858 131.877  0.00  0.00    +0.000 A 
ATOM     70  C   UNL     1      -9.991   2.979 131.109  0.00  0.00    +0.000 A 
ATOM     71  C   UNL     1      -9.314   2.816 129.915  0.00  0.00    +0.000 A 
ATOM     72  C   UNL     1      -8.530   1.594 129.601  0.00  0.00    +0.000 A 
BRANCH  70  73
ATOM     73  O   UNL     1     -11.024   3.887 131.215  0.00  0.00    +0.000 OA
ATOM     74  H   UNL     1     -11.015   4.373 132.084  0.00  0.00    +0.000 HD
ENDBRANCH  70  73
ENDBRANCH  66  67
ENDBRANCH   9  66
BRANCH   5  75
ATOM     75  C   UNL     1      -7.345  -1.750 125.627  0.00  0.00    +0.000 C 
BRANCH  75  76
ATOM     76  C   UNL     1      -6.497  -2.432 124.599  0.00  0.00    +0.000 A 
ATOM     77  C   UNL     1      -5.651  -3.535 124.848  0.00  0.00    +0.000 A 
ATOM     78  C   UNL     1      -4.638  -3.878 123.988  0.00  0.00    +0.000 A 
ATOM     79  C   UNL     1      -4.686  -3.340 122.723  0.00  0.00    +0.000 A 
ATOM     80  C   UNL     1      -5.585  -2.313 122.413  0.00  0.00    +0.000 A 
ATOM     81  C   UNL     1      -6.441  -1.804 123.371  0.00  0.00    +0.000 A 
ENDBRANCH  75  76
ENDBRANCH   5  75
BRANCH  22  82
ATOM     82  C   UNL     1      -5.241   2.347 128.751  0.00  0.00    +0.000 C 
BRANCH  82  83
ATOM     83  C   UNL     1      -3.945   2.622 128.237  0.00  0.00    +0.000 C 
ATOM     84  N   UNL     1      -3.581   2.443 126.988  0.00  0.00    +0.000 N 
ATOM     85  O   UNL     1      -3.066   3.068 128.965  0.00  0.00    +0.000 OA
ATOM     86  H   UNL     1      -4.152   2.733 126.214  0.00  0.00    +0.000 HD
ATOM     87  H   UNL     1      -2.729   2.934 126.926  0.00  0.00    +0.000 HD
ENDBRANCH  82  83
ENDBRANCH  22  82
TORSDOF 18
ENDMDL
MODEL 3
REMARK VINA RESULT:      -9.9      1.821      2.868
REMARK  Name = CHEMBL2369829
REMARK  19 active torsions:
REMARK  status: ('A' for Active; 'I' for Inactive)
REMARK    1  A    between atoms: C_1  and  C_2
REMARK    2  A    between atoms: C_2  and  C_3
REMARK    3  A    between atoms: C_7  and  C_8
REMARK    4  A    between atoms: C_8  and  C_9
REMARK    5  A    between atoms: C_18  and  C_19
REMARK    6  A    between atoms: C_19  and  C_20
REMARK    7  A    between atoms: C_23  and  O_24
REMARK    8  A    between atoms: C_35  and  C_36
REMARK    9  A    between atoms: C_42  and  C_43
REMARK   10  A    between atoms: N_45  and  C_46
REMARK   11  A    between atoms: C_46  and  C_47
REMARK   12  A    between atoms: C_46  and  C_54
REMARK   13  A    between atoms: C_47  and  C_48
REMARK   14  A    between atoms: C_48  and  C_49
REMARK   15  A    between atoms: C_49  and  N_50
REMARK   16  A    between atoms: N_56  and  C_57
REMARK   17  A    between atoms: C_57  and  C_58
REMARK   18  A    between atoms: C_64  and  C_65
REMARK   19  A    between atoms: C_65  and  C_66
REMARK                            x       y       z     vdW  Elec       q    Type
REMARK                         _______ _______ _______ _____ _____    ______ ____
ROOT
ATOM      1  C   UNL     1      -6.747   2.421 125.768  0.00  0.00    +0.000 C 
ATOM      2  N   UNL     1      -7.863   1.432 125.613  0.00  0.00    +0.000 N 
ATOM      3  C   UNL     1      -7.975   0.203 126.267  0.00  0.00    +0.000 C 
ATOM      4  O   UNL     1      -9.079  -0.194 126.663  0.00  0.00    +0.000 OA
ATOM      5  C   UNL     1      -6.763  -0.719 126.260  0.00  0.00    +0.000 C 
ATOM      6  N   UNL     1      -5.753  -0.554 127.269  0.00  0.00    +0.000 N 
ATOM      7  C   UNL     1      -5.663  -1.271 128.453  0.00  0.00    +0.000 C 
ATOM      8  O   UNL     1      -4.487  -1.521 128.773  0.00  0.00    +0.000 OA
ATOM      9  C   UNL     1      -7.085  -1.631 129.449  0.00  0.00    +0.000 C 
ATOM     10  N   UNL     1      -6.661  -2.852 130.082  0.00  0.00    +0.000 N 
ATOM     11  C   UNL     1      -5.794  -2.968 131.122  0.00  0.00    +0.000 C 
ATOM     12  O   UNL     1      -5.616  -4.125 131.527  0.00  0.00    +0.000 OA
ATOM     13  C   UNL     1      -5.031  -1.802 131.837  0.00  0.00    +0.000 C 
ATOM     14  C   UNL     1      -5.073  -0.325 131.481  0.00  0.00    +0.000 C 
ATOM     15  S   UNL     1      -3.950   0.964 132.207  0.00  0.00    +0.000 S 
ATOM     16  S   UNL     1      -5.107   2.691 132.228  0.00  0.00    +0.000 S 
ATOM     17  C   UNL     1      -4.305   4.117 131.296  0.00  0.00    +0.000 C 
ATOM     18  C   UNL     1      -4.843   5.432 130.627  0.00  0.00    +0.000 C 
ATOM     19  N   UNL     1      -4.447   5.520 129.168  0.00  0.00    +0.000 N 
ATOM     20  C   UNL     1      -4.754   4.701 128.130  0.00  0.00    +0.000 C 
ATOM     21  O   UNL     1      -4.336   4.777 126.986  0.00  0.00    +0.000 OA
ATOM     22  C   UNL     1      -5.765   3.725 128.457  0.00  0.00    +0.000 C 
ATOM     23  N   UNL     1      -6.941   4.028 127.673  0.00  0.00    +0.000 N 
ATOM     24  C   UNL     1      -7.386   3.649 126.437  0.00  0.00    +0.000 C 
ATOM     25  O   UNL     1      -8.490   4.078 126.072  0.00  0.00    +0.000 OA
ATOM     26  H   UNL     1      -8.804   1.839 125.673  0.00  0.00    +0.000 HD
ATOM     27  H   UNL     1      -4.845  -0.248 126.928  0.00  0.00    +0.000 HD
ATOM     28  H   UNL     1      -7.071  -3.714 129.735  0.00  0.00    +0.000 HD
ATOM     29  H   UNL     1      -3.905   6.324 128.874  0.00  0.00    +0.000 HD
ATOM     30  H   UNL     1      -7.601   4.589 128.211  0.00  0.00    +0.000 HD
ENDROOT
BRANCH  18  31
ATOM     31  C   UNL     1      -4.291   6.753 131.293  0.00  0.00    +0.000 C 
ATOM     32  O   UNL     1      -5.097   7.653 131.552  0.00  0.00    +0.000 OA
ATOM     33  N   UNL     1      -2.989   6.765 131.779  0.00  0.00    +0.000 N 
ATOM     34  C   UNL     1      -1.756   6.366 131.114  0.00  0.00    +0.000 C 
ATOM     35  C   UNL     1      -0.924   5.908 132.274  0.00  0.00    +0.000 C 
ATOM     36  C   UNL     1      -1.147   7.028 133.267  0.00  0.00    +0.000 C 
ATOM     37  C   UNL     1      -2.582   7.538 132.985  0.00  0.00    +0.000 C 
BRANCH  37  38
ATOM     38  C   UNL     1      -2.397   9.044 132.726  0.00  0.00    +0.000 C 
ATOM     39  O   UNL     1      -2.685   9.523 131.629  0.00  0.00    +0.000 OA
ATOM     40  N   UNL     1      -1.797   9.794 133.732  0.00  0.00    +0.000 N 
ATOM     41  H   UNL     1      -1.269   9.344 134.476  0.00  0.00    +0.000 HD
BRANCH  40  42
ATOM     42  C   UNL     1      -1.731  11.273 133.692  0.00  0.00    +0.000 C 
BRANCH  42  43
ATOM     43  C   UNL     1      -0.388  11.756 133.042  0.00  0.00    +0.000 C 
ATOM     44  O   UNL     1      -0.370  12.380 131.981  0.00  0.00    +0.000 OA
ATOM     45  N   UNL     1       0.770  11.445 133.734  0.00  0.00    +0.000 N 
ATOM     46  H   UNL     1       0.697  10.953 134.607  0.00  0.00    +0.000 HD
BRANCH  45  47
ATOM     47  C   UNL     1       2.104  11.807 133.242  0.00  0.00    +0.000 C 
BRANCH  47  48
ATOM     48  C   UNL     1       2.936  12.742 134.141  0.00  0.00    +0.000 C 
ATOM     49  N   UNL     1       2.552  14.048 134.245  0.00  0.00    +0.000 N 
ATOM     50  O   UNL     1       3.922  12.356 134.765  0.00  0.00    +0.000 OA
ATOM     51  H   UNL     1       1.772  14.476 133.780  0.00  0.00    +0.000 HD
ATOM     52  H   UNL     1       3.117  14.647 134.838  0.00  0.00    +0.000 HD
ENDBRANCH  47  48
ENDBRANCH  45  47
ENDBRANCH  42  43
BRANCH  42  53
ATOM     53  C   UNL     1      -1.846  11.858 135.117  0.00  0.00    +0.000 C 
BRANCH  53  54
ATOM     54  C   UNL     1      -1.982  13.375 135.112  0.00  0.00    +0.000 C 
BRANCH  54  55
ATOM     55  C   UNL     1      -1.036  14.101 136.023  0.00  0.00    +0.000 C 
BRANCH  55  56
ATOM     56  N   UNL     1       0.132  13.243 136.223  0.00  0.00    +0.000 NA
ATOM     57  C   UNL     1       0.718  13.341 137.357  0.00  0.00    +0.000 C 
ATOM     58  N   UNL     1       0.344  14.137 138.373  0.00  0.00    +0.000 N 
ATOM     59  N   UNL     1       1.806  12.602 137.624  0.00  0.00    +0.000 N 
ATOM     60  H   UNL     1      -0.456  14.738 138.249  0.00  0.00    +0.000 HD
ATOM     61  H   UNL     1       0.821  14.173 139.254  0.00  0.00    +0.000 HD
ATOM     62  H   UNL     1       2.147  12.000 136.885  0.00  0.00    +0.000 HD
ATOM     63  H   UNL     1       2.307  12.625 138.495  0.00  0.00    +0.000 HD
ENDBRANCH  55  56
ENDBRANCH  54  55
ENDBRANCH  53  54
ENDBRANCH  42  53
ENDBRANCH  40  42
ENDBRANCH  37  38
ENDBRANCH  18  31
BRANCH   1  65
ATOM     64  C   UNL     1      -6.204   3.611 123.479  0.00  0.00    +0.000 C 
ATOM     65  C   UNL     1      -5.730   2.873 124.710  0.00  0.00    +0.000 C 
ENDBRANCH   1  65
BRANCH   9  66
ATOM     66  C   UNL     1      -8.152  -0.844 130.560  0.00  0.00    +0.000 C 
BRANCH  66  67
ATOM     67  C   UNL     1      -8.325   0.715 130.639  0.00  0.00    +0.000 A 
ATOM     68  C   UNL     1      -8.790   1.110 131.847  0.00  0.00    +0.000 A 
ATOM     69  C   UNL     1      -9.527   2.272 132.106  0.00  0.00    +0.000 A 
ATOM     70  C   UNL     1      -9.801   3.256 131.208  0.00  0.00    +0.000 A 
ATOM     71  C   UNL     1      -9.401   2.915 129.930  0.00  0.00    +0.000 A 
ATOM     72  C   UNL     1      -8.644   1.672 129.634  0.00  0.00    +0.000 A 
BRANCH  70  73
ATOM     73  O   UNL     1     -10.831   4.152 131.409  0.00  0.00    +0.000 OA
ATOM     74  H   UNL     1     -10.639   5.046 131.016  0.00  0.00    +0.000 HD
ENDBRANCH  70  73
ENDBRANCH  66  67
ENDBRANCH   9  66
BRANCH   5  75
ATOM     75  C   UNL     1      -7.164  -2.175 126.137  0.00  0.00    +0.000 C 
BRANCH  75  76
ATOM     76  C   UNL     1      -7.801  -2.535 124.831  0.00  0.00    +0.000 A 
ATOM     77  C   UNL     1      -7.387  -2.056 123.568  0.00  0.00    +0.000 A 
ATOM     78  C   UNL     1      -8.208  -2.110 122.470  0.00  0.00    +0.000 A 
ATOM     79  C   UNL     1      -9.299  -2.944 122.548  0.00  0.00    +0.000 A 
ATOM     80  C   UNL     1      -9.677  -3.519 123.766  0.00  0.00    +0.000 A 
ATOM     81  C   UNL     1      -8.975  -3.255 124.926  0.00  0.00    +0.000 A 
ENDBRANCH  75  76
ENDBRANCH   5  75
BRANCH  22  82
ATOM     82  C   UNL     1      -5.157   2.376 128.631  0.00  0.00    +0.000 C 
BRANCH  82  83
ATOM     83  C   UNL     1      -3.871   2.597 128.068  0.00  0.00    +0.000 C 
ATOM     84  N   UNL     1      -3.512   2.240 126.857  0.00  0.00    +0.000 N 
ATOM     85  O   UNL     1      -2.996   3.165 128.712  0.00  0.00    +0.000 OA
ATOM     86  H   UNL     1      -4.094   2.400 126.054  0.00  0.00    +0.000 HD
ATOM     87  H   UNL     1      -2.671   2.734 126.713  0.00  0.00    +0.000 HD
ENDBRANCH  82  83
ENDBRANCH  22  82
TORSDOF 18
ENDMDL
MODEL 4
REMARK VINA RESULT:      -9.8      1.413      2.458
REMARK  Name = CHEMBL2369829
REMARK  19 active torsions:
REMARK  status: ('A' for Active; 'I' for Inactive)
REMARK    1  A    between atoms: C_1  and  C_2
REMARK    2  A    between atoms: C_2  and  C_3
REMARK    3  A    between atoms: C_7  and  C_8
REMARK    4  A    between atoms: C_8  and  C_9
REMARK    5  A    between atoms: C_18  and  C_19
REMARK    6  A    between atoms: C_19  and  C_20
REMARK    7  A    between atoms: C_23  and  O_24
REMARK    8  A    between atoms: C_35  and  C_36
REMARK    9  A    between atoms: C_42  and  C_43
REMARK   10  A    between atoms: N_45  and  C_46
REMARK   11  A    between atoms: C_46  and  C_47
REMARK   12  A    between atoms: C_46  and  C_54
REMARK   13  A    between atoms: C_47  and  C_48
REMARK   14  A    between atoms: C_48  and  C_49
REMARK   15  A    between atoms: C_49  and  N_50
REMARK   16  A    between atoms: N_56  and  C_57
REMARK   17  A    between atoms: C_57  and  C_58
REMARK   18  A    between atoms: C_64  and  C_65
REMARK   19  A    between atoms: C_65  and  C_66
REMARK                            x       y       z     vdW  Elec       q    Type
REMARK                         _______ _______ _______ _____ _____    ______ ____
ROOT
ATOM      1  C   UNL     1      -6.802   3.238 125.970  0.00  0.00    +0.000 C 
ATOM      2  N   UNL     1      -8.050   2.449 125.707  0.00  0.00    +0.000 N 
ATOM      3  C   UNL     1      -8.292   1.130 126.098  0.00  0.00    +0.000 C 
ATOM      4  O   UNL     1      -9.415   0.793 126.495  0.00  0.00    +0.000 OA
ATOM      5  C   UNL     1      -7.219   0.092 125.796  0.00  0.00    +0.000 C 
ATOM      6  N   UNL     1      -6.140  -0.091 126.728  0.00  0.00    +0.000 N 
ATOM      7  C   UNL     1      -6.082  -1.054 127.725  0.00  0.00    +0.000 C 
ATOM      8  O   UNL     1      -4.936  -1.508 127.885  0.00  0.00    +0.000 OA
ATOM      9  C   UNL     1      -7.482  -1.447 128.741  0.00  0.00    +0.000 C 
ATOM     10  N   UNL     1      -7.194  -2.818 129.068  0.00  0.00    +0.000 N 
ATOM     11  C   UNL     1      -6.293  -3.262 129.983  0.00  0.00    +0.000 C 
ATOM     12  O   UNL     1      -6.252  -4.493 130.121  0.00  0.00    +0.000 OA
ATOM     13  C   UNL     1      -5.338  -2.382 130.859  0.00  0.00    +0.000 C 
ATOM     14  C   UNL     1      -5.198  -0.869 130.822  0.00  0.00    +0.000 C 
ATOM     15  S   UNL     1      -3.870   0.086 131.704  0.00  0.00    +0.000 S 
ATOM     16  S   UNL     1      -4.777   1.894 132.181  0.00  0.00    +0.000 S 
ATOM     17  C   UNL     1      -3.842   3.381 131.503  0.00  0.00    +0.000 C 
ATOM     18  C   UNL     1      -4.232   4.865 131.170  0.00  0.00    +0.000 C 
ATOM     19  N   UNL     1      -3.911   5.220 129.734  0.00  0.00    +0.000 N 
ATOM     20  C   UNL     1      -4.385   4.690 128.578  0.00  0.00    +0.000 C 
ATOM     21  O   UNL     1      -4.026   4.962 127.444  0.00  0.00    +0.000 OA
ATOM     22  C   UNL     1      -5.500   3.796 128.779  0.00  0.00    +0.000 C 
ATOM     23  N   UNL     1      -6.666   4.403 128.177  0.00  0.00    +0.000 N 
ATOM     24  C   UNL     1      -7.228   4.359 126.931  0.00  0.00    +0.000 C 
ATOM     25  O   UNL     1      -8.282   4.988 126.759  0.00  0.00    +0.000 OA
ATOM     26  H   UNL     1      -8.921   2.944 125.930  0.00  0.00    +0.000 HD
ATOM     27  H   UNL     1      -5.220   0.170 126.383  0.00  0.00    +0.000 HD
ATOM     28  H   UNL     1      -7.736  -3.528 128.585  0.00  0.00    +0.000 HD
ATOM     29  H   UNL     1      -3.281   5.997 129.569  0.00  0.00    +0.000 HD
ATOM     30  H   UNL     1      -7.211   4.909 128.875  0.00  0.00    +0.000 HD
ENDROOT
BRANCH  18  31
ATOM     31  C   UNL     1      -3.468   5.933 132.048  0.00  0.00    +0.000 C 
ATOM     32  O   UNL     1      -2.958   6.899 131.473  0.00  0.00    +0.000 OA
ATOM     33  N   UNL     1      -3.600   5.881 133.431  0.00  0.00    +0.000 N 
ATOM     34  C   UNL     1      -3.427   4.747 134.329  0.00  0.00    +0.000 C 
ATOM     35  C   UNL     1      -4.372   5.097 135.440  0.00  0.00    +0.000 C 
ATOM     36  C   UNL     1      -4.036   6.554 135.674  0.00  0.00    +0.000 C 
ATOM     37  C   UNL     1      -3.605   7.097 134.290  0.00  0.00    +0.000 C 
BRANCH  37  38
ATOM     38  C   UNL     1      -2.205   7.687 134.541  0.00  0.00    +0.000 C 
ATOM     39  O   UNL     1      -1.200   7.008 134.329  0.00  0.00    +0.000 OA
ATOM     40  N   UNL     1      -2.142   8.953 135.115  0.00  0.00    +0.000 N 
ATOM     41  H   UNL     1      -2.948   9.355 135.586  0.00  0.00    +0.000 HD
BRANCH  40  42
ATOM     42  C   UNL     1      -0.875   9.710 135.235  0.00  0.00    +0.000 C 
BRANCH  42  43
ATOM     43  C   UNL     1       0.002   9.152 136.409  0.00  0.00    +0.000 C 
ATOM     44  O   UNL     1      -0.329   9.289 137.587  0.00  0.00    +0.000 OA
ATOM     45  N   UNL     1       1.164   8.493 136.043  0.00  0.00    +0.000 N 
ATOM     46  H   UNL     1       1.375   8.389 135.065  0.00  0.00    +0.000 HD
BRANCH  45  47
ATOM     47  C   UNL     1       2.099   7.938 137.026  0.00  0.00    +0.000 C 
BRANCH  47  48
ATOM     48  C   UNL     1       2.436   6.440 136.884  0.00  0.00    +0.000 C 
ATOM     49  N   UNL     1       1.575   5.530 137.426  0.00  0.00    +0.000 N 
ATOM     50  O   UNL     1       3.441   6.040 136.300  0.00  0.00    +0.000 OA
ATOM     51  H   UNL     1       0.731   5.738 137.928  0.00  0.00    +0.000 HD
ATOM     52  H   UNL     1       1.819   4.551 137.326  0.00  0.00    +0.000 HD
ENDBRANCH  47  48
ENDBRANCH  45  47
ENDBRANCH  42  43
BRANCH  42  53
ATOM     53  C   UNL     1      -1.162  11.208 135.483  0.00  0.00    +0.000 C 
BRANCH  53  54
ATOM     54  C   UNL     1      -0.065  12.108 134.927  0.00  0.00    +0.000 C 
BRANCH  54  55
ATOM     55  C   UNL     1       0.309  11.845 133.498  0.00  0.00    +0.000 C 
BRANCH  55  56
ATOM     56  N   UNL     1      -0.125  12.996 132.707  0.00  0.00    +0.000 NA
ATOM     57  C   UNL     1      -1.217  12.854 132.053  0.00  0.00    +0.000 C 
ATOM     58  N   UNL     1      -1.998  11.761 132.051  0.00  0.00    +0.000 N 
ATOM     59  N   UNL     1      -1.685  13.853 131.290  0.00  0.00    +0.000 N 
ATOM     60  H   UNL     1      -1.711  10.957 132.587  0.00  0.00    +0.000 HD
ATOM     61  H   UNL     1      -2.857  11.695 131.537  0.00  0.00    +0.000 HD
ATOM     62  H   UNL     1      -1.124  14.694 131.236  0.00  0.00    +0.000 HD
ATOM     63  H   UNL     1      -2.538  13.810 130.760  0.00  0.00    +0.000 HD
ENDBRANCH  55  56
ENDBRANCH  54  55
ENDBRANCH  53  54
ENDBRANCH  42  53
ENDBRANCH  40  42
ENDBRANCH  37  38
ENDBRANCH  18  31
BRANCH   1  65
ATOM     64  C   UNL     1      -6.167   3.841 123.483  0.00  0.00    +0.000 C 
ATOM     65  C   UNL     1      -5.794   3.782 124.947  0.00  0.00    +0.000 C 
ENDBRANCH   1  65
BRANCH   9  66
ATOM     66  C   UNL     1      -8.366  -0.797 130.077  0.00  0.00    +0.000 C 
BRANCH  66  67
ATOM     67  C   UNL     1      -8.315   0.716 130.497  0.00  0.00    +0.000 A 
ATOM     68  C   UNL     1      -8.530   0.878 131.824  0.00  0.00    +0.000 A 
ATOM     69  C   UNL     1      -9.056   2.021 132.440  0.00  0.00    +0.000 A 
ATOM     70  C   UNL     1      -9.333   3.200 131.822  0.00  0.00    +0.000 A 
ATOM     71  C   UNL     1      -9.186   3.112 130.450  0.00  0.00    +0.000 A 
ATOM     72  C   UNL     1      -8.657   1.897 129.779  0.00  0.00    +0.000 A 
BRANCH  70  73
ATOM     73  O   UNL     1     -10.191   4.126 132.381  0.00  0.00    +0.000 OA
ATOM     74  H   UNL     1     -10.744   4.593 131.697  0.00  0.00    +0.000 HD
ENDBRANCH  70  73
ENDBRANCH  66  67
ENDBRANCH   9  66
BRANCH   5  75
ATOM     75  C   UNL     1      -7.821  -1.243 125.407  0.00  0.00    +0.000 C 
BRANCH  75  76
ATOM     76  C   UNL     1      -6.977  -2.056 124.476  0.00  0.00    +0.000 A 
ATOM     77  C   UNL     1      -6.301  -3.246 124.826  0.00  0.00    +0.000 A 
ATOM     78  C   UNL     1      -5.266  -3.738 124.070  0.00  0.00    +0.000 A 
ATOM     79  C   UNL     1      -5.134  -3.239 122.795  0.00  0.00    +0.000 A 
ATOM     80  C   UNL     1      -5.868  -2.122 122.381  0.00  0.00    +0.000 A 
ATOM     81  C   UNL     1      -6.735  -1.481 123.244  0.00  0.00    +0.000 A 
ENDBRANCH  75  76
ENDBRANCH   5  75
BRANCH  22  82
ATOM     82  C   UNL     1      -5.073   2.378 128.616  0.00  0.00    +0.000 C 
BRANCH  82  83
ATOM     83  C   UNL     1      -3.822   2.557 127.966  0.00  0.00    +0.000 C 
ATOM     84  N   UNL     1      -3.615   2.389 126.681  0.00  0.00    +0.000 N 
ATOM     85  O   UNL     1      -2.832   2.901 128.601  0.00  0.00    +0.000 OA
ATOM     86  H   UNL     1      -4.238   2.754 125.982  0.00  0.00    +0.000 HD
ATOM     87  H   UNL     1      -2.734   2.807 126.535  0.00  0.00    +0.000 HD
ENDBRANCH  82  83
ENDBRANCH  22  82
TORSDOF 18
ENDMDL
MODEL 5
REMARK VINA RESULT:      -9.8      1.695      2.515
REMARK  Name = CHEMBL2369829
REMARK  19 active torsions:
REMARK  status: ('A' for Active; 'I' for Inactive)
REMARK    1  A    between atoms: C_1  and  C_2
REMARK    2  A    between atoms: C_2  and  C_3
REMARK    3  A    between atoms: C_7  and  C_8
REMARK    4  A    between atoms: C_8  and  C_9
REMARK    5  A    between atoms: C_18  and  C_19
REMARK    6  A    between atoms: C_19  and  C_20
REMARK    7  A    between atoms: C_23  and  O_24
REMARK    8  A    between atoms: C_35  and  C_36
REMARK    9  A    between atoms: C_42  and  C_43
REMARK   10  A    between atoms: N_45  and  C_46
REMARK   11  A    between atoms: C_46  and  C_47
REMARK   12  A    between atoms: C_46  and  C_54
REMARK   13  A    between atoms: C_47  and  C_48
REMARK   14  A    between atoms: C_48  and  C_49
REMARK   15  A    between atoms: C_49  and  N_50
REMARK   16  A    between atoms: N_56  and  C_57
REMARK   17  A    between atoms: C_57  and  C_58
REMARK   18  A    between atoms: C_64  and  C_65
REMARK   19  A    between atoms: C_65  and  C_66
REMARK                            x       y       z     vdW  Elec       q    Type
REMARK                         _______ _______ _______ _____ _____    ______ ____
ROOT
ATOM      1  C   UNL     1      -6.945   2.676 125.358  0.00  0.00    +0.000 C 
ATOM      2  N   UNL     1      -8.075   1.716 125.139  0.00  0.00    +0.000 N 
ATOM      3  C   UNL     1      -8.201   0.445 125.704  0.00  0.00    +0.000 C 
ATOM      4  O   UNL     1      -9.309   0.035 126.077  0.00  0.00    +0.000 OA
ATOM      5  C   UNL     1      -7.002  -0.490 125.623  0.00  0.00    +0.000 C 
ATOM      6  N   UNL     1      -5.985  -0.413 126.636  0.00  0.00    +0.000 N 
ATOM      7  C   UNL     1      -5.899  -1.214 127.765  0.00  0.00    +0.000 C 
ATOM      8  O   UNL     1      -4.726  -1.502 128.059  0.00  0.00    +0.000 OA
ATOM      9  C   UNL     1      -7.322  -1.625 128.741  0.00  0.00    +0.000 C 
ATOM     10  N   UNL     1      -6.912  -2.894 129.282  0.00  0.00    +0.000 N 
ATOM     11  C   UNL     1      -6.042  -3.096 130.306  0.00  0.00    +0.000 C 
ATOM     12  O   UNL     1      -5.878  -4.282 130.625  0.00  0.00    +0.000 OA
ATOM     13  C   UNL     1      -5.259  -1.996 131.099  0.00  0.00    +0.000 C 
ATOM     14  C   UNL     1      -5.282  -0.497 130.849  0.00  0.00    +0.000 C 
ATOM     15  S   UNL     1      -4.138   0.722 131.660  0.00  0.00    +0.000 S 
ATOM     16  S   UNL     1      -5.269   2.459 131.811  0.00  0.00    +0.000 S 
ATOM     17  C   UNL     1      -4.452   3.937 130.980  0.00  0.00    +0.000 C 
ATOM     18  C   UNL     1      -4.974   5.303 130.410  0.00  0.00    +0.000 C 
ATOM     19  N   UNL     1      -4.585   5.491 128.959  0.00  0.00    +0.000 N 
ATOM     20  C   UNL     1      -4.908   4.753 127.867  0.00  0.00    +0.000 C 
ATOM     21  O   UNL     1      -4.494   4.905 126.728  0.00  0.00    +0.000 OA
ATOM     22  C   UNL     1      -5.931   3.770 128.129  0.00  0.00    +0.000 C 
ATOM     23  N   UNL     1      -7.106   4.145 127.375  0.00  0.00    +0.000 N 
ATOM     24  C   UNL     1      -7.563   3.862 126.117  0.00  0.00    +0.000 C 
ATOM     25  O   UNL     1      -8.662   4.331 125.791  0.00  0.00    +0.000 OA
ATOM     26  H   UNL     1      -9.010   2.131 125.234  0.00  0.00    +0.000 HD
ATOM     27  H   UNL     1      -5.074  -0.095 126.312  0.00  0.00    +0.000 HD
ATOM     28  H   UNL     1      -7.335  -3.723 128.876  0.00  0.00    +0.000 HD
ATOM     29  H   UNL     1      -4.032   6.307 128.721  0.00  0.00    +0.000 HD
ATOM     30  H   UNL     1      -7.755   4.674 127.956  0.00  0.00    +0.000 HD
ENDROOT
BRANCH  18  31
ATOM     31  C   UNL     1      -4.401   6.566 131.166  0.00  0.00    +0.000 C 
ATOM     32  O   UNL     1      -5.171   7.504 131.395  0.00  0.00    +0.000 OA
ATOM     33  N   UNL     1      -3.143   6.482 131.752  0.00  0.00    +0.000 N 
ATOM     34  C   UNL     1      -1.886   6.030 131.169  0.00  0.00    +0.000 C 
ATOM     35  C   UNL     1      -1.178   5.484 132.372  0.00  0.00    +0.000 C 
ATOM     36  C   UNL     1      -1.413   6.582 133.386  0.00  0.00    +0.000 C 
ATOM     37  C   UNL     1      -2.788   7.187 133.014  0.00  0.00    +0.000 C 
BRANCH  37  38
ATOM     38  C   UNL     1      -2.496   8.687 132.826  0.00  0.00    +0.000 C 
ATOM     39  O   UNL     1      -2.662   9.218 131.728  0.00  0.00    +0.000 OA
ATOM     40  N   UNL     1      -1.940   9.367 133.906  0.00  0.00    +0.000 N 
ATOM     41  H   UNL     1      -1.505   8.862 134.673  0.00  0.00    +0.000 HD
BRANCH  40  42
ATOM     42  C   UNL     1      -1.786  10.840 133.926  0.00  0.00    +0.000 C 
BRANCH  42  43
ATOM     43  C   UNL     1      -0.293  11.250 133.679  0.00  0.00    +0.000 C 
ATOM     44  O   UNL     1       0.580  10.412 133.452  0.00  0.00    +0.000 OA
ATOM     45  N   UNL     1      -0.017  12.606 133.728  0.00  0.00    +0.000 N 
ATOM     46  H   UNL     1      -0.772  13.249 133.895  0.00  0.00    +0.000 HD
BRANCH  45  47
ATOM     47  C   UNL     1       1.335  13.143 133.543  0.00  0.00    +0.000 C 
BRANCH  47  48
ATOM     48  C   UNL     1       2.086  13.566 134.821  0.00  0.00    +0.000 C 
ATOM     49  N   UNL     1       1.901  14.835 135.289  0.00  0.00    +0.000 N 
ATOM     50  O   UNL     1       2.835  12.806 135.431  0.00  0.00    +0.000 OA
ATOM     51  H   UNL     1       1.322  15.542 134.873  0.00  0.00    +0.000 HD
ATOM     52  H   UNL     1       2.409  15.094 136.128  0.00  0.00    +0.000 HD
ENDBRANCH  47  48
ENDBRANCH  45  47
ENDBRANCH  42  43
BRANCH  42  53
ATOM     53  C   UNL     1      -2.254  11.413 135.282  0.00  0.00    +0.000 C 
BRANCH  53  54
ATOM     54  C   UNL     1      -2.576  10.321 136.293  0.00  0.00    +0.000 C 
BRANCH  54  55
ATOM     55  C   UNL     1      -1.596  10.192 137.422  0.00  0.00    +0.000 C 
BRANCH  55  56
ATOM     56  N   UNL     1      -0.354   9.648 136.871  0.00  0.00    +0.000 NA
ATOM     57  C   UNL     1       0.676  10.406 136.945  0.00  0.00    +0.000 C 
ATOM     58  N   UNL     1       0.718  11.629 137.497  0.00  0.00    +0.000 N 
ATOM     59  N   UNL     1       1.855   9.995 136.453  0.00  0.00    +0.000 N 
ATOM     60  H   UNL     1      -0.130  12.020 137.877  0.00  0.00    +0.000 HD
ATOM     61  H   UNL     1       1.551  12.185 137.550  0.00  0.00    +0.000 HD
ATOM     62  H   UNL     1       1.877   9.088 136.004  0.00  0.00    +0.000 HD
ATOM     63  H   UNL     1       2.702  10.535 136.487  0.00  0.00    +0.000 HD
ENDBRANCH  55  56
ENDBRANCH  54  55
ENDBRANCH  53  54
ENDBRANCH  42  53
ENDBRANCH  40  42
ENDBRANCH  37  38
ENDBRANCH  18  31
BRANCH   1  65
ATOM     64  C   UNL     1      -6.377   3.516 122.924  0.00  0.00    +0.000 C 
ATOM     65  C   UNL     1      -5.926   3.189 124.330  0.00  0.00    +0.000 C 
ENDBRANCH   1  65
BRANCH   9  66
ATOM     66  C   UNL     1      -8.372  -0.905 129.911  0.00  0.00    +0.000 C 
BRANCH  66  67
ATOM     67  C   UNL     1      -8.405   0.635 130.216  0.00  0.00    +0.000 A 
ATOM     68  C   UNL     1      -8.768   0.888 131.494  0.00  0.00    +0.000 A 
ATOM     69  C   UNL     1      -9.387   2.056 131.959  0.00  0.00    +0.000 A 
ATOM     70  C   UNL     1      -9.623   3.176 131.225  0.00  0.00    +0.000 A 
ATOM     71  C   UNL     1      -9.323   2.991 129.888  0.00  0.00    +0.000 A 
ATOM     72  C   UNL     1      -8.694   1.748 129.375  0.00  0.00    +0.000 A 
BRANCH  70  73
ATOM     73  O   UNL     1     -10.559   4.112 131.615  0.00  0.00    +0.000 OA
ATOM     74  H   UNL     1     -10.511   4.315 132.589  0.00  0.00    +0.000 HD
ENDBRANCH  70  73
ENDBRANCH  66  67
ENDBRANCH   9  66
BRANCH   5  75
ATOM     75  C   UNL     1      -7.424  -1.929 125.398  0.00  0.00    +0.000 C 
BRANCH  75  76
ATOM     76  C   UNL     1      -6.494  -2.719 124.532  0.00  0.00    +0.000 A 
ATOM     77  C   UNL     1      -5.849  -3.915 124.917  0.00  0.00    +0.000 A 
ATOM     78  C   UNL     1      -4.746  -4.389 124.250  0.00  0.00    +0.000 A 
ATOM     79  C   UNL     1      -4.497  -3.861 123.004  0.00  0.00    +0.000 A 
ATOM     80  C   UNL     1      -5.193  -2.736 122.550  0.00  0.00    +0.000 A 
ATOM     81  C   UNL     1      -6.139  -2.116 123.342  0.00  0.00    +0.000 A 
ENDBRANCH  75  76
ENDBRANCH   5  75
BRANCH  22  82
ATOM     82  C   UNL     1      -5.341   2.404 128.202  0.00  0.00    +0.000 C 
BRANCH  82  83
ATOM     83  C   UNL     1      -4.034   2.659 127.706  0.00  0.00    +0.000 C 
ATOM     84  N   UNL     1      -3.643   2.431 126.474  0.00  0.00    +0.000 N 
ATOM     85  O   UNL     1      -3.171   3.134 128.435  0.00  0.00    +0.000 OA
ATOM     86  H   UNL     1      -4.195   2.691 125.676  0.00  0.00    +0.000 HD
ATOM     87  H   UNL     1      -2.789   2.920 126.411  0.00  0.00    +0.000 HD
ENDBRANCH  82  83
ENDBRANCH  22  82
TORSDOF 18
ENDMDL
MODEL 6
REMARK VINA RESULT:      -8.9      2.795      5.005
REMARK  Name = CHEMBL2369829
REMARK  19 active torsions:
REMARK  status: ('A' for Active; 'I' for Inactive)
REMARK    1  A    between atoms: C_1  and  C_2
REMARK    2  A    between atoms: C_2  and  C_3
REMARK    3  A    between atoms: C_7  and  C_8
REMARK    4  A    between atoms: C_8  and  C_9
REMARK    5  A    between atoms: C_18  and  C_19
REMARK    6  A    between atoms: C_19  and  C_20
REMARK    7  A    between atoms: C_23  and  O_24
REMARK    8  A    between atoms: C_35  and  C_36
REMARK    9  A    between atoms: C_42  and  C_43
REMARK   10  A    between atoms: N_45  and  C_46
REMARK   11  A    between atoms: C_46  and  C_47
REMARK   12  A    between atoms: C_46  and  C_54
REMARK   13  A    between atoms: C_47  and  C_48
REMARK   14  A    between atoms: C_48  and  C_49
REMARK   15  A    between atoms: C_49  and  N_50
REMARK   16  A    between atoms: N_56  and  C_57
REMARK   17  A    between atoms: C_57  and  C_58
REMARK   18  A    between atoms: C_64  and  C_65
REMARK   19  A    between atoms: C_65  and  C_66
REMARK                            x       y       z     vdW  Elec       q    Type
REMARK                         _______ _______ _______ _____ _____    ______ ____
ROOT
ATOM      1  C   UNL     1      -3.871   5.051 128.279  0.00  0.00    +0.000 C 
ATOM      2  N   UNL     1      -4.996   5.033 127.289  0.00  0.00    +0.000 N 
ATOM      3  C   UNL     1      -6.235   4.410 127.455  0.00  0.00    +0.000 C 
ATOM      4  O   UNL     1      -7.267   4.952 127.040  0.00  0.00    +0.000 OA
ATOM      5  C   UNL     1      -6.243   2.964 127.935  0.00  0.00    +0.000 C 
ATOM      6  N   UNL     1      -6.196   2.694 129.346  0.00  0.00    +0.000 N 
ATOM      7  C   UNL     1      -7.289   2.445 130.163  0.00  0.00    +0.000 C 
ATOM      8  O   UNL     1      -7.050   1.589 131.032  0.00  0.00    +0.000 OA
ATOM      9  C   UNL     1      -8.789   3.383 130.044  0.00  0.00    +0.000 C 
ATOM     10  N   UNL     1      -9.744   2.411 130.504  0.00  0.00    +0.000 N 
ATOM     11  C   UNL     1      -9.972   2.044 131.793  0.00  0.00    +0.000 C 
ATOM     12  O   UNL     1     -10.880   1.215 131.947  0.00  0.00    +0.000 OA
ATOM     13  C   UNL     1      -9.217   2.566 133.061  0.00  0.00    +0.000 C 
ATOM     14  C   UNL     1      -8.056   3.547 133.096  0.00  0.00    +0.000 C 
ATOM     15  S   UNL     1      -7.046   3.927 134.609  0.00  0.00    +0.000 S 
ATOM     16  S   UNL     1      -6.481   5.911 134.357  0.00  0.00    +0.000 S 
ATOM     17  C   UNL     1      -4.615   6.151 134.414  0.00  0.00    +0.000 C 
ATOM     18  C   UNL     1      -3.633   7.255 133.881  0.00  0.00    +0.000 C 
ATOM     19  N   UNL     1      -2.564   6.668 132.984  0.00  0.00    +0.000 N 
ATOM     20  C   UNL     1      -2.683   6.007 131.804  0.00  0.00    +0.000 C 
ATOM     21  O   UNL     1      -1.786   5.481 131.164  0.00  0.00    +0.000 OA
ATOM     22  C   UNL     1      -4.016   6.060 131.255  0.00  0.00    +0.000 C 
ATOM     23  N   UNL     1      -3.959   6.830 130.033  0.00  0.00    +0.000 N 
ATOM     24  C   UNL     1      -3.743   6.518 128.719  0.00  0.00    +0.000 C 
ATOM     25  O   UNL     1      -3.801   7.443 127.897  0.00  0.00    +0.000 OA
ATOM     26  H   UNL     1      -5.225   5.951 126.888  0.00  0.00    +0.000 HD
ATOM     27  H   UNL     1      -5.351   2.229 129.670  0.00  0.00    +0.000 HD
ATOM     28  H   UNL     1     -10.328   1.972 129.798  0.00  0.00    +0.000 HD
ATOM     29  H   UNL     1      -1.596   6.807 133.250  0.00  0.00    +0.000 HD
ATOM     30  H   UNL     1      -4.214   7.802 130.205  0.00  0.00    +0.000 HD
ENDROOT
BRANCH  18  31
ATOM     31  C   UNL     1      -2.852   8.013 135.025  0.00  0.00    +0.000 C 
ATOM     32  O   UNL     1      -3.173   7.787 136.196  0.00  0.00    +0.000 OA
ATOM     33  N   UNL     1      -1.692   8.707 134.698  0.00  0.00    +0.000 N 
ATOM     34  C   UNL     1      -1.476   9.691 133.645  0.00  0.00    +0.000 C 
ATOM     35  C   UNL     1      -0.024   9.485 133.337  0.00  0.00    +0.000 C 
ATOM     36  C   UNL     1       0.576   9.434 134.725  0.00  0.00    +0.000 C 
ATOM     37  C   UNL     1      -0.528   8.820 135.620  0.00  0.00    +0.000 C 
BRANCH  37  38
ATOM     38  C   UNL     1      -0.720   9.857 136.740  0.00  0.00    +0.000 C 
ATOM     39  O   UNL     1       0.184  10.069 137.550  0.00  0.00    +0.000 OA
ATOM     40  N   UNL     1      -1.976  10.444 136.856  0.00  0.00    +0.000 N 
ATOM     41  H   UNL     1      -2.791  10.028 136.413  0.00  0.00    +0.000 HD
BRANCH  40  42
ATOM     42  C   UNL     1      -2.241  11.586 137.762  0.00  0.00    +0.000 C 
BRANCH  42  43
ATOM     43  C   UNL     1      -3.717  11.551 138.290  0.00  0.00    +0.000 C 
ATOM     44  O   UNL     1      -4.174  12.450 138.995  0.00  0.00    +0.000 OA
ATOM     45  N   UNL     1      -4.475  10.455 137.911  0.00  0.00    +0.000 N 
ATOM     46  H   UNL     1      -4.059   9.761 137.315  0.00  0.00    +0.000 HD
BRANCH  45  47
ATOM     47  C   UNL     1      -5.863  10.268 138.346  0.00  0.00    +0.000 C 
BRANCH  47  48
ATOM     48  C   UNL     1      -6.384   8.817 138.370  0.00  0.00    +0.000 C 
ATOM     49  N   UNL     1      -5.967   7.964 137.389  0.00  0.00    +0.000 N 
ATOM     50  O   UNL     1      -7.152   8.405 139.237  0.00  0.00    +0.000 OA
ATOM     51  H   UNL     1      -5.350   8.190 136.631  0.00  0.00    +0.000 HD
ATOM     52  H   UNL     1      -6.326   7.016 137.422  0.00  0.00    +0.000 HD
ENDBRANCH  47  48
ENDBRANCH  45  47
ENDBRANCH  42  43
BRANCH  42  53
ATOM     53  C   UNL     1      -1.994  12.924 137.030  0.00  0.00    +0.000 C 
BRANCH  53  54
ATOM     54  C   UNL     1      -2.085  12.782 135.516  0.00  0.00    +0.000 C 
BRANCH  54  55
ATOM     55  C   UNL     1      -1.459  13.899 134.734  0.00  0.00    +0.000 C 
BRANCH  55  56
ATOM     56  N   UNL     1      -1.018  13.350 133.452  0.00  0.00    +0.000 NA
ATOM     57  C   UNL     1      -1.700  13.697 132.424  0.00  0.00    +0.000 C 
ATOM     58  N   UNL     1      -2.757  14.527 132.421  0.00  0.00    +0.000 N 
ATOM     59  N   UNL     1      -1.377  13.231 131.208  0.00  0.00    +0.000 N 
ATOM     60  H   UNL     1      -3.076  14.909 133.298  0.00  0.00    +0.000 HD
ATOM     61  H   UNL     1      -3.255  14.787 131.591  0.00  0.00    +0.000 HD
ATOM     62  H   UNL     1      -0.602  12.582 131.154  0.00  0.00    +0.000 HD
ATOM     63  H   UNL     1      -1.864  13.470 130.362  0.00  0.00    +0.000 HD
ENDBRANCH  55  56
ENDBRANCH  54  55
ENDBRANCH  53  54
ENDBRANCH  42  53
ENDBRANCH  40  42
ENDBRANCH  37  38
ENDBRANCH  18  31
BRANCH   1  65
ATOM     64  C   UNL     1      -2.238   3.346 127.105  0.00  0.00    +0.000 C 
ATOM     65  C   UNL     1      -2.476   4.425 128.137  0.00  0.00    +0.000 C 
ENDBRANCH   1  65
BRANCH   9  66
ATOM     66  C   UNL     1      -9.414   4.935 130.484  0.00  0.00    +0.000 C 
BRANCH  66  67
ATOM     67  C   UNL     1     -10.489   5.708 129.639  0.00  0.00    +0.000 A 
ATOM     68  C   UNL     1      -9.942   6.732 128.943  0.00  0.00    +0.000 A 
ATOM     69  C   UNL     1     -10.606   7.895 128.530  0.00  0.00    +0.000 A 
ATOM     70  C   UNL     1     -11.937   8.139 128.661  0.00  0.00    +0.000 A 
ATOM     71  C   UNL     1     -12.571   7.161 129.405  0.00  0.00    +0.000 A 
ATOM     72  C   UNL     1     -11.875   5.936 129.874  0.00  0.00    +0.000 A 
BRANCH  70  73
ATOM     73  O   UNL     1     -12.447   9.419 128.599  0.00  0.00    +0.000 OA
ATOM     74  H   UNL     1     -13.443   9.432 128.608  0.00  0.00    +0.000 HD
ENDBRANCH  70  73
ENDBRANCH  66  67
ENDBRANCH   9  66
BRANCH   5  75
ATOM     75  C   UNL     1      -7.342   2.157 127.273  0.00  0.00    +0.000 C 
BRANCH  75  76
ATOM     76  C   UNL     1      -6.938   0.775 126.866  0.00  0.00    +0.000 A 
ATOM     77  C   UNL     1      -7.576  -0.413 127.287  0.00  0.00    +0.000 A 
ATOM     78  C   UNL     1      -6.959  -1.635 127.196  0.00  0.00    +0.000 A 
ATOM     79  C   UNL     1      -5.858  -1.718 126.377  0.00  0.00    +0.000 A 
ATOM     80  C   UNL     1      -5.262  -0.564 125.857  0.00  0.00    +0.000 A 
ATOM     81  C   UNL     1      -5.754   0.690 126.161  0.00  0.00    +0.000 A 
ENDBRANCH  75  76
ENDBRANCH   5  75
BRANCH  22  82
ATOM     82  C   UNL     1      -4.709   4.753 131.432  0.00  0.00    +0.000 C 
BRANCH  82  83
ATOM     83  C   UNL     1      -3.612   3.924 131.791  0.00  0.00    +0.000 C 
ATOM     84  N   UNL     1      -2.985   3.115 130.971  0.00  0.00    +0.000 N 
ATOM     85  O   UNL     1      -3.174   3.931 132.936  0.00  0.00    +0.000 OA
ATOM     86  H   UNL     1      -2.708   3.393 130.046  0.00  0.00    +0.000 HD
ATOM     87  H   UNL     1      -2.164   2.881 131.464  0.00  0.00    +0.000 HD
ENDBRANCH  82  83
ENDBRANCH  22  82
TORSDOF 18
ENDMDL
MODEL 7
REMARK VINA RESULT:      -8.9      3.540      6.555
REMARK  Name = CHEMBL2369829
REMARK  19 active torsions:
REMARK  status: ('A' for Active; 'I' for Inactive)
REMARK    1  A    between atoms: C_1  and  C_2
REMARK    2  A    between atoms: C_2  and  C_3
REMARK    3  A    between atoms: C_7  and  C_8
REMARK    4  A    between atoms: C_8  and  C_9
REMARK    5  A    between atoms: C_18  and  C_19
REMARK    6  A    between atoms: C_19  and  C_20
REMARK    7  A    between atoms: C_23  and  O_24
REMARK    8  A    between atoms: C_35  and  C_36
REMARK    9  A    between atoms: C_42  and  C_43
REMARK   10  A    between atoms: N_45  and  C_46
REMARK   11  A    between atoms: C_46  and  C_47
REMARK   12  A    between atoms: C_46  and  C_54
REMARK   13  A    between atoms: C_47  and  C_48
REMARK   14  A    between atoms: C_48  and  C_49
REMARK   15  A    between atoms: C_49  and  N_50
REMARK   16  A    between atoms: N_56  and  C_57
REMARK   17  A    between atoms: C_57  and  C_58
REMARK   18  A    between atoms: C_64  and  C_65
REMARK   19  A    between atoms: C_65  and  C_66
REMARK                            x       y       z     vdW  Elec       q    Type
REMARK                         _______ _______ _______ _____ _____    ______ ____
ROOT
ATOM      1  C   UNL     1      -5.703  -0.766 130.898  0.00  0.00    +0.000 C 
ATOM      2  N   UNL     1      -5.132  -0.870 129.516  0.00  0.00    +0.000 N 
ATOM      3  C   UNL     1      -5.527  -0.129 128.400  0.00  0.00    +0.000 C 
ATOM      4  O   UNL     1      -4.684   0.272 127.587  0.00  0.00    +0.000 OA
ATOM      5  C   UNL     1      -7.017  -0.042 128.096  0.00  0.00    +0.000 C 
ATOM      6  N   UNL     1      -7.805   0.973 128.741  0.00  0.00    +0.000 N 
ATOM      7  C   UNL     1      -8.134   2.209 128.204  0.00  0.00    +0.000 C 
ATOM      8  O   UNL     1      -9.284   2.570 128.507  0.00  0.00    +0.000 OA
ATOM      9  C   UNL     1      -6.957   3.198 127.320  0.00  0.00    +0.000 C 
ATOM     10  N   UNL     1      -7.832   3.929 126.444  0.00  0.00    +0.000 N 
ATOM     11  C   UNL     1      -8.611   4.993 126.775  0.00  0.00    +0.000 C 
ATOM     12  O   UNL     1      -9.249   5.486 125.835  0.00  0.00    +0.000 OA
ATOM     13  C   UNL     1      -8.759   5.636 128.196  0.00  0.00    +0.000 C 
ATOM     14  C   UNL     1      -8.103   5.169 129.485  0.00  0.00    +0.000 C 
ATOM     15  S   UNL     1      -8.521   5.821 131.173  0.00  0.00    +0.000 S 
ATOM     16  S   UNL     1      -6.734   5.689 132.226  0.00  0.00    +0.000 S 
ATOM     17  C   UNL     1      -6.889   4.671 133.802  0.00  0.00    +0.000 C 
ATOM     18  C   UNL     1      -5.872   3.895 134.712  0.00  0.00    +0.000 C 
ATOM     19  N   UNL     1      -6.265   2.442 134.879  0.00  0.00    +0.000 N 
ATOM     20  C   UNL     1      -6.395   1.462 133.949  0.00  0.00    +0.000 C 
ATOM     21  O   UNL     1      -6.797   0.324 134.133  0.00  0.00    +0.000 OA
ATOM     22  C   UNL     1      -5.888   1.839 132.652  0.00  0.00    +0.000 C 
ATOM     23  N   UNL     1      -4.738   1.010 132.370  0.00  0.00    +0.000 N 
ATOM     24  C   UNL     1      -4.564  -0.204 131.764  0.00  0.00    +0.000 C 
ATOM     25  O   UNL     1      -3.403  -0.622 131.650  0.00  0.00    +0.000 OA
ATOM     26  H   UNL     1      -4.106  -0.861 129.477  0.00  0.00    +0.000 HD
ATOM     27  H   UNL     1      -8.508   0.629 129.390  0.00  0.00    +0.000 HD
ATOM     28  H   UNL     1      -7.853   3.639 125.471  0.00  0.00    +0.000 HD
ATOM     29  H   UNL     1      -6.422   2.101 135.820  0.00  0.00    +0.000 HD
ATOM     30  H   UNL     1      -3.875   1.491 132.619  0.00  0.00    +0.000 HD
ENDROOT
BRANCH  18  31
ATOM     31  C   UNL     1      -5.765   4.472 136.178  0.00  0.00    +0.000 C 
ATOM     32  O   UNL     1      -6.537   5.381 136.502  0.00  0.00    +0.000 OA
ATOM     33  N   UNL     1      -4.992   3.791 137.112  0.00  0.00    +0.000 N 
ATOM     34  C   UNL     1      -3.618   3.320 136.999  0.00  0.00    +0.000 C 
ATOM     35  C   UNL     1      -3.637   2.122 137.900  0.00  0.00    +0.000 C 
ATOM     36  C   UNL     1      -4.357   2.669 139.114  0.00  0.00    +0.000 C 
ATOM     37  C   UNL     1      -5.337   3.730 138.559  0.00  0.00    +0.000 C 
BRANCH  37  38
ATOM     38  C   UNL     1      -4.981   5.009 139.338  0.00  0.00    +0.000 C 
ATOM     39  O   UNL     1      -4.132   4.975 140.229  0.00  0.00    +0.000 OA
ATOM     40  N   UNL     1      -5.732   6.148 139.068  0.00  0.00    +0.000 N 
ATOM     41  H   UNL     1      -6.628   6.084 138.592  0.00  0.00    +0.000 HD
BRANCH  40  42
ATOM     42  C   UNL     1      -5.376   7.483 139.604  0.00  0.00    +0.000 C 
BRANCH  42  43
ATOM     43  C   UNL     1      -6.580   8.479 139.473  0.00  0.00    +0.000 C 
ATOM     44  O   UNL     1      -6.493   9.651 139.838  0.00  0.00    +0.000 OA
ATOM     45  N   UNL     1      -7.740   7.963 138.920  0.00  0.00    +0.000 N 
ATOM     46  H   UNL     1      -7.750   7.005 138.618  0.00  0.00    +0.000 HD
BRANCH  45  47
ATOM     47  C   UNL     1      -8.958   8.763 138.756  0.00  0.00    +0.000 C 
BRANCH  47  48
ATOM     48  C   UNL     1      -9.730   8.576 137.435  0.00  0.00    +0.000 C 
ATOM     49  N   UNL     1     -11.067   8.849 137.423  0.00  0.00    +0.000 N 
ATOM     50  O   UNL     1      -9.186   8.197 136.399  0.00  0.00    +0.000 OA
ATOM     51  H   UNL     1     -11.616   9.157 138.204  0.00  0.00    +0.000 HD
ATOM     52  H   UNL     1     -11.556   8.714 136.544  0.00  0.00    +0.000 HD
ENDBRANCH  47  48
ENDBRANCH  45  47
ENDBRANCH  42  43
BRANCH  42  53
ATOM     53  C   UNL     1      -4.156   8.058 138.850  0.00  0.00    +0.000 C 
BRANCH  53  54
ATOM     54  C   UNL     1      -4.370   8.096 137.342  0.00  0.00    +0.000 C 
BRANCH  54  55
ATOM     55  C   UNL     1      -3.407   7.269 136.543  0.00  0.00    +0.000 C 
BRANCH  55  56
ATOM     56  N   UNL     1      -3.136   7.985 135.297  0.00  0.00    +0.000 NA
ATOM     57  C   UNL     1      -2.408   7.372 134.439  0.00  0.00    +0.000 C 
ATOM     58  N   UNL     1      -1.898   6.137 134.576  0.00  0.00    +0.000 N 
ATOM     59  N   UNL     1      -2.097   7.958 133.273  0.00  0.00    +0.000 N 
ATOM     60  H   UNL     1      -2.072   5.632 135.431  0.00  0.00    +0.000 HD
ATOM     61  H   UNL     1      -1.345   5.684 133.873  0.00  0.00    +0.000 HD
ATOM     62  H   UNL     1      -2.435   8.901 133.125  0.00  0.00    +0.000 HD
ATOM     63  H   UNL     1      -1.539   7.530 132.555  0.00  0.00    +0.000 HD
ENDBRANCH  55  56
ENDBRANCH  54  55
ENDBRANCH  53  54
ENDBRANCH  42  53
ENDBRANCH  40  42
ENDBRANCH  37  38
ENDBRANCH  18  31
BRANCH   1  65
ATOM     64  C   UNL     1      -7.414  -2.771 130.956  0.00  0.00    +0.000 C 
ATOM     65  C   UNL     1      -6.478  -1.833 131.684  0.00  0.00    +0.000 C 
ENDBRANCH   1  65
BRANCH   9  66
ATOM     66  C   UNL     1      -5.600   4.225 127.630  0.00  0.00    +0.000 C 
BRANCH  66  67
ATOM     67  C   UNL     1      -4.949   4.397 129.049  0.00  0.00    +0.000 A 
ATOM     68  C   UNL     1      -4.526   5.665 129.259  0.00  0.00    +0.000 A 
ATOM     69  C   UNL     1      -3.492   6.058 130.119  0.00  0.00    +0.000 A 
ATOM     70  C   UNL     1      -2.815   5.243 130.971  0.00  0.00    +0.000 A 
ATOM     71  C   UNL     1      -3.151   3.914 130.792  0.00  0.00    +0.000 A 
ATOM     72  C   UNL     1      -4.226   3.479 129.863  0.00  0.00    +0.000 A 
BRANCH  70  73
ATOM     73  O   UNL     1      -1.584   5.596 131.485  0.00  0.00    +0.000 OA
ATOM     74  H   UNL     1      -1.035   6.111 130.833  0.00  0.00    +0.000 HD
ENDBRANCH  70  73
ENDBRANCH  66  67
ENDBRANCH   9  66
BRANCH   5  75
ATOM     75  C   UNL     1      -7.290  -0.065 126.606  0.00  0.00    +0.000 C 
BRANCH  75  76
ATOM     76  C   UNL     1      -7.577  -1.425 126.049  0.00  0.00    +0.000 A 
ATOM     77  C   UNL     1      -6.644  -2.233 125.363  0.00  0.00    +0.000 A 
ATOM     78  C   UNL     1      -7.040  -3.276 124.564  0.00  0.00    +0.000 A 
ATOM     79  C   UNL     1      -8.330  -3.725 124.720  0.00  0.00    +0.000 A 
ATOM     80  C   UNL     1      -9.255  -3.000 125.480  0.00  0.00    +0.000 A 
ATOM     81  C   UNL     1      -8.902  -1.809 126.084  0.00  0.00    +0.000 A 
ENDBRANCH  75  76
ENDBRANCH   5  75
BRANCH  22  82
ATOM     82  C   UNL     1      -7.008   2.126 131.713  0.00  0.00    +0.000 C 
BRANCH  82  83
ATOM     83  C   UNL     1      -8.104   1.598 132.449  0.00  0.00    +0.000 C 
ATOM     84  N   UNL     1      -8.639   0.416 132.251  0.00  0.00    +0.000 N 
ATOM     85  O   UNL     1      -8.622   2.248 133.350  0.00  0.00    +0.000 OA
ATOM     86  H   UNL     1      -8.084  -0.413 132.129  0.00  0.00    +0.000 HD
ATOM     87  H   UNL     1      -9.196   0.281 133.053  0.00  0.00    +0.000 HD
ENDBRANCH  82  83
ENDBRANCH  22  82
TORSDOF 18
ENDMDL
MODEL 8
REMARK VINA RESULT:      -8.6      5.784      9.606
REMARK  Name = CHEMBL2369829
REMARK  19 active torsions:
REMARK  status: ('A' for Active; 'I' for Inactive)
REMARK    1  A    between atoms: C_1  and  C_2
REMARK    2  A    between atoms: C_2  and  C_3
REMARK    3  A    between atoms: C_7  and  C_8
REMARK    4  A    between atoms: C_8  and  C_9
REMARK    5  A    between atoms: C_18  and  C_19
REMARK    6  A    between atoms: C_19  and  C_20
REMARK    7  A    between atoms: C_23  and  O_24
REMARK    8  A    between atoms: C_35  and  C_36
REMARK    9  A    between atoms: C_42  and  C_43
REMARK   10  A    between atoms: N_45  and  C_46
REMARK   11  A    between atoms: C_46  and  C_47
REMARK   12  A    between atoms: C_46  and  C_54
REMARK   13  A    between atoms: C_47  and  C_48
REMARK   14  A    between atoms: C_48  and  C_49
REMARK   15  A    between atoms: C_49  and  N_50
REMARK   16  A    between atoms: N_56  and  C_57
REMARK   17  A    between atoms: C_57  and  C_58
REMARK   18  A    between atoms: C_64  and  C_65
REMARK   19  A    between atoms: C_65  and  C_66
REMARK                            x       y       z     vdW  Elec       q    Type
REMARK                         _______ _______ _______ _____ _____    ______ ____
ROOT
ATOM      1  C   UNL     1      -5.444  -3.178 130.015  0.00  0.00    +0.000 C 
ATOM      2  N   UNL     1      -5.272  -2.639 128.627  0.00  0.00    +0.000 N 
ATOM      3  C   UNL     1      -5.790  -1.438 128.135  0.00  0.00    +0.000 C 
ATOM      4  O   UNL     1      -5.121  -0.739 127.364  0.00  0.00    +0.000 OA
ATOM      5  C   UNL     1      -7.265  -1.148 128.382  0.00  0.00    +0.000 C 
ATOM      6  N   UNL     1      -7.659  -0.526 129.616  0.00  0.00    +0.000 N 
ATOM      7  C   UNL     1      -7.875   0.831 129.810  0.00  0.00    +0.000 C 
ATOM      8  O   UNL     1      -8.822   1.058 130.583  0.00  0.00    +0.000 OA
ATOM      9  C   UNL     1      -6.796   2.065 129.134  0.00  0.00    +0.000 C 
ATOM     10  N   UNL     1      -7.711   3.165 128.989  0.00  0.00    +0.000 N 
ATOM     11  C   UNL     1      -8.166   3.978 129.979  0.00  0.00    +0.000 C 
ATOM     12  O   UNL     1      -8.918   4.888 129.602  0.00  0.00    +0.000 OA
ATOM     13  C   UNL     1      -7.827   3.874 131.504  0.00  0.00    +0.000 C 
ATOM     14  C   UNL     1      -6.965   2.820 132.181  0.00  0.00    +0.000 C 
ATOM     15  S   UNL     1      -6.813   2.610 134.020  0.00  0.00    +0.000 S 
ATOM     16  S   UNL     1      -4.875   1.909 134.292  0.00  0.00    +0.000 S 
ATOM     17  C   UNL     1      -4.814   0.273 135.221  0.00  0.00    +0.000 C 
ATOM     18  C   UNL     1      -3.764  -0.890 135.329  0.00  0.00    +0.000 C 
ATOM     19  N   UNL     1      -4.368  -2.227 134.954  0.00  0.00    +0.000 N 
ATOM     20  C   UNL     1      -4.911  -2.639 133.780  0.00  0.00    +0.000 C 
ATOM     21  O   UNL     1      -5.460  -3.707 133.560  0.00  0.00    +0.000 OA
ATOM     22  C   UNL     1      -4.687  -1.715 132.695  0.00  0.00    +0.000 C 
ATOM     23  N   UNL     1      -3.823  -2.363 131.734  0.00  0.00    +0.000 N 
ATOM     24  C   UNL     1      -4.039  -3.150 130.636  0.00  0.00    +0.000 C 
ATOM     25  O   UNL     1      -3.044  -3.517 129.995  0.00  0.00    +0.000 OA
ATOM     26  H   UNL     1      -4.306  -2.660 128.278  0.00  0.00    +0.000 HD
ATOM     27  H   UNL     1      -8.226  -1.104 130.232  0.00  0.00    +0.000 HD
ATOM     28  H   UNL     1      -8.032   3.373 128.048  0.00  0.00    +0.000 HD
ATOM     29  H   UNL     1      -4.343  -2.967 135.646  0.00  0.00    +0.000 HD
ATOM     30  H   UNL     1      -2.850  -2.099 131.887  0.00  0.00    +0.000 HD
ENDROOT
BRANCH  18  31
ATOM     31  C   UNL     1      -3.184  -1.085 136.785  0.00  0.00    +0.000 C 
ATOM     32  O   UNL     1      -1.956  -1.129 136.919  0.00  0.00    +0.000 OA
ATOM     33  N   UNL     1      -4.042  -0.958 137.871  0.00  0.00    +0.000 N 
ATOM     34  C   UNL     1      -5.333  -1.593 138.102  0.00  0.00    +0.000 C 
ATOM     35  C   UNL     1      -6.025  -0.566 138.946  0.00  0.00    +0.000 C 
ATOM     36  C   UNL     1      -4.945  -0.220 139.948  0.00  0.00    +0.000 C 
ATOM     37  C   UNL     1      -3.612  -0.398 139.182  0.00  0.00    +0.000 C 
BRANCH  37  38
ATOM     38  C   UNL     1      -2.814  -1.388 140.050  0.00  0.00    +0.000 C 
ATOM     39  O   UNL     1      -3.360  -1.971 140.986  0.00  0.00    +0.000 OA
ATOM     40  N   UNL     1      -1.450  -1.498 139.798  0.00  0.00    +0.000 N 
ATOM     41  H   UNL     1      -0.957  -0.786 139.266  0.00  0.00    +0.000 HD
BRANCH  40  42
ATOM     42  C   UNL     1      -0.606  -2.542 140.425  0.00  0.00    +0.000 C 
BRANCH  42  43
ATOM     43  C   UNL     1       0.877  -2.053 140.567  0.00  0.00    +0.000 C 
ATOM     44  O   UNL     1       1.705  -2.677 141.230  0.00  0.00    +0.000 OA
ATOM     45  N   UNL     1       1.200  -0.883 139.899  0.00  0.00    +0.000 N 
ATOM     46  H   UNL     1       0.491  -0.424 139.354  0.00  0.00    +0.000 HD
BRANCH  45  47
ATOM     47  C   UNL     1       2.538  -0.286 139.956  0.00  0.00    +0.000 C 
BRANCH  47  48
ATOM     48  C   UNL     1       2.878   0.742 138.859  0.00  0.00    +0.000 C 
ATOM     49  N   UNL     1       1.857   1.241 138.102  0.00  0.00    +0.000 N 
ATOM     50  O   UNL     1       4.025   1.129 138.647  0.00  0.00    +0.000 OA
ATOM     51  H   UNL     1       0.887   0.995 138.180  0.00  0.00    +0.000 HD
ATOM     52  H   UNL     1       2.104   1.912 137.383  0.00  0.00    +0.000 HD
ENDBRANCH  47  48
ENDBRANCH  45  47
ENDBRANCH  42  43
BRANCH  42  53
ATOM     53  C   UNL     1      -0.636  -3.838 139.585  0.00  0.00    +0.000 C 
BRANCH  53  54
ATOM     54  C   UNL     1       0.196  -3.724 138.314  0.00  0.00    +0.000 C 
BRANCH  54  55
ATOM     55  C   UNL     1      -0.495  -4.171 137.060  0.00  0.00    +0.000 C 
BRANCH  55  56
ATOM     56  N   UNL     1       0.533  -4.409 136.047  0.00  0.00    +0.000 NA
ATOM     57  C   UNL     1       0.642  -3.520 135.131  0.00  0.00    +0.000 C 
ATOM     58  N   UNL     1      -0.082  -2.393 135.036  0.00  0.00    +0.000 N 
ATOM     59  N   UNL     1       1.550  -3.663 134.154  0.00  0.00    +0.000 N 
ATOM     60  H   UNL     1      -0.799  -2.216 135.723  0.00  0.00    +0.000 HD
ATOM     61  H   UNL     1       0.045  -1.712 134.311  0.00  0.00    +0.000 HD
ATOM     62  H   UNL     1       2.109  -4.506 134.163  0.00  0.00    +0.000 HD
ATOM     63  H   UNL     1       1.693  -3.000 133.412  0.00  0.00    +0.000 HD
ENDBRANCH  55  56
ENDBRANCH  54  55
ENDBRANCH  53  54
ENDBRANCH  42  53
ENDBRANCH  40  42
ENDBRANCH  37  38
ENDBRANCH  18  31
BRANCH   1  65
ATOM     64  C   UNL     1      -5.399  -5.624 130.997  0.00  0.00    +0.000 C 
ATOM     65  C   UNL     1      -6.182  -4.452 130.450  0.00  0.00    +0.000 C 
ENDBRANCH   1  65
BRANCH   9  66
ATOM     66  C   UNL     1      -5.237   2.755 129.423  0.00  0.00    +0.000 C 
BRANCH  66  67
ATOM     67  C   UNL     1      -4.735   4.080 128.743  0.00  0.00    +0.000 A 
ATOM     68  C   UNL     1      -3.618   3.876 128.007  0.00  0.00    +0.000 A 
ATOM     69  C   UNL     1      -2.640   4.835 127.711  0.00  0.00    +0.000 A 
ATOM     70  C   UNL     1      -2.706   6.158 128.018  0.00  0.00    +0.000 A 
ATOM     71  C   UNL     1      -3.799   6.450 128.814  0.00  0.00    +0.000 A 
ATOM     72  C   UNL     1      -4.829   5.438 129.160  0.00  0.00    +0.000 A 
BRANCH  70  73
ATOM     73  O   UNL     1      -1.577   6.949 128.053  0.00  0.00    +0.000 OA
ATOM     74  H   UNL     1      -0.889   6.602 128.684  0.00  0.00    +0.000 HD
ENDBRANCH  70  73
ENDBRANCH  66  67
ENDBRANCH   9  66
BRANCH   5  75
ATOM     75  C   UNL     1      -7.906  -0.447 127.201  0.00  0.00    +0.000 C 
BRANCH  75  76
ATOM     76  C   UNL     1      -8.422  -1.366 126.139  0.00  0.00    +0.000 A 
ATOM     77  C   UNL     1      -8.725  -2.733 126.327  0.00  0.00    +0.000 A 
ATOM     78  C   UNL     1      -8.832  -3.602 125.271  0.00  0.00    +0.000 A 
ATOM     79  C   UNL     1      -8.976  -3.048 124.020  0.00  0.00    +0.000 A 
ATOM     80  C   UNL     1      -8.783  -1.677 123.816  0.00  0.00    +0.000 A 
ATOM     81  C   UNL     1      -8.431  -0.845 124.861  0.00  0.00    +0.000 A 
ENDBRANCH  75  76
ENDBRANCH   5  75
BRANCH  22  82
ATOM     82  C   UNL     1      -5.934  -0.964 132.379  0.00  0.00    +0.000 C 
BRANCH  82  83
ATOM     83  C   UNL     1      -6.880  -1.699 133.145  0.00  0.00    +0.000 C 
ATOM     84  N   UNL     1      -7.615  -2.683 132.682  0.00  0.00    +0.000 N 
ATOM     85  O   UNL     1      -7.058  -1.443 134.330  0.00  0.00    +0.000 OA
ATOM     86  H   UNL     1      -7.236  -3.415 132.107  0.00  0.00    +0.000 HD
ATOM     87  H   UNL     1      -7.971  -3.105 133.498  0.00  0.00    +0.000 HD
ENDBRANCH  82  83
ENDBRANCH  22  82
TORSDOF 18
ENDMDL
MODEL 9
REMARK VINA RESULT:      -8.5      4.351      7.862
REMARK  Name = CHEMBL2369829
REMARK  19 active torsions:
REMARK  status: ('A' for Active; 'I' for Inactive)
REMARK    1  A    between atoms: C_1  and  C_2
REMARK    2  A    between atoms: C_2  and  C_3
REMARK    3  A    between atoms: C_7  and  C_8
REMARK    4  A    between atoms: C_8  and  C_9
REMARK    5  A    between atoms: C_18  and  C_19
REMARK    6  A    between atoms: C_19  and  C_20
REMARK    7  A    between atoms: C_23  and  O_24
REMARK    8  A    between atoms: C_35  and  C_36
REMARK    9  A    between atoms: C_42  and  C_43
REMARK   10  A    between atoms: N_45  and  C_46
REMARK   11  A    between atoms: C_46  and  C_47
REMARK   12  A    between atoms: C_46  and  C_54
REMARK   13  A    between atoms: C_47  and  C_48
REMARK   14  A    between atoms: C_48  and  C_49
REMARK   15  A    between atoms: C_49  and  N_50
REMARK   16  A    between atoms: N_56  and  C_57
REMARK   17  A    between atoms: C_57  and  C_58
REMARK   18  A    between atoms: C_64  and  C_65
REMARK   19  A    between atoms: C_65  and  C_66
REMARK                            x       y       z     vdW  Elec       q    Type
REMARK                         _______ _______ _______ _____ _____    ______ ____
ROOT
ATOM      1  C   UNL     1      -5.815  -1.020 130.503  0.00  0.00    +0.000 C 
ATOM      2  N   UNL     1      -5.383  -1.045 129.067  0.00  0.00    +0.000 N 
ATOM      3  C   UNL     1      -5.835  -0.198 128.053  0.00  0.00    +0.000 C 
ATOM      4  O   UNL     1      -5.048   0.220 127.192  0.00  0.00    +0.000 OA
ATOM      5  C   UNL     1      -7.339  -0.008 127.904  0.00  0.00    +0.000 C 
ATOM      6  N   UNL     1      -7.999   0.994 128.695  0.00  0.00    +0.000 N 
ATOM      7  C   UNL     1      -8.301   2.285 128.285  0.00  0.00    +0.000 C 
ATOM      8  O   UNL     1      -9.393   2.683 128.726  0.00  0.00    +0.000 OA
ATOM      9  C   UNL     1      -7.153   3.276 127.366  0.00  0.00    +0.000 C 
ATOM     10  N   UNL     1      -8.060   4.120 126.635  0.00  0.00    +0.000 N 
ATOM     11  C   UNL     1      -8.738   5.194 127.118  0.00  0.00    +0.000 C 
ATOM     12  O   UNL     1      -9.430   5.794 126.284  0.00  0.00    +0.000 OA
ATOM     13  C   UNL     1      -8.713   5.730 128.590  0.00  0.00    +0.000 C 
ATOM     14  C   UNL     1      -7.968   5.129 129.770  0.00  0.00    +0.000 C 
ATOM     15  S   UNL     1      -8.186   5.668 131.535  0.00  0.00    +0.000 S 
ATOM     16  S   UNL     1      -6.320   5.357 132.395  0.00  0.00    +0.000 S 
ATOM     17  C   UNL     1      -6.389   4.228 133.900  0.00  0.00    +0.000 C 
ATOM     18  C   UNL     1      -5.340   3.328 134.647  0.00  0.00    +0.000 C 
ATOM     19  N   UNL     1      -5.804   1.890 134.744  0.00  0.00    +0.000 N 
ATOM     20  C   UNL     1      -6.080   0.995 133.762  0.00  0.00    +0.000 C 
ATOM     21  O   UNL     1      -6.533  -0.131 133.900  0.00  0.00    +0.000 OA
ATOM     22  C   UNL     1      -5.675   1.445 132.453  0.00  0.00    +0.000 C 
ATOM     23  N   UNL     1      -4.609   0.580 131.999  0.00  0.00    +0.000 N 
ATOM     24  C   UNL     1      -4.567  -0.590 131.292  0.00  0.00    +0.000 C 
ATOM     25  O   UNL     1      -3.450  -1.060 131.035  0.00  0.00    +0.000 OA
ATOM     26  H   UNL     1      -4.366  -1.088 128.929  0.00  0.00    +0.000 HD
ATOM     27  H   UNL     1      -8.658   0.639 129.383  0.00  0.00    +0.000 HD
ATOM     28  H   UNL     1      -8.190   3.909 125.650  0.00  0.00    +0.000 HD
ATOM     29  H   UNL     1      -5.893   1.485 135.669  0.00  0.00    +0.000 HD
ATOM     30  H   UNL     1      -3.699   0.993 132.197  0.00  0.00    +0.000 HD
ENDROOT
BRANCH  18  31
ATOM     31  C   UNL     1      -5.062   3.782 136.133  0.00  0.00    +0.000 C 
ATOM     32  O   UNL     1      -5.347   2.996 137.043  0.00  0.00    +0.000 OA
ATOM     33  N   UNL     1      -4.297   4.921 136.354  0.00  0.00    +0.000 N 
ATOM     34  C   UNL     1      -4.445   6.253 135.780  0.00  0.00    +0.000 C 
ATOM     35  C   UNL     1      -3.027   6.741 135.787  0.00  0.00    +0.000 C 
ATOM     36  C   UNL     1      -2.580   6.352 137.179  0.00  0.00    +0.000 C 
ATOM     37  C   UNL     1      -3.376   5.067 137.515  0.00  0.00    +0.000 C 
BRANCH  37  38
ATOM     38  C   UNL     1      -4.089   5.406 138.836  0.00  0.00    +0.000 C 
ATOM     39  O   UNL     1      -3.444   5.816 139.801  0.00  0.00    +0.000 OA
ATOM     40  N   UNL     1      -5.449   5.123 138.916  0.00  0.00    +0.000 N 
ATOM     41  H   UNL     1      -5.891   4.489 138.254  0.00  0.00    +0.000 HD
BRANCH  40  42
ATOM     42  C   UNL     1      -6.290   5.569 140.050  0.00  0.00    +0.000 C 
BRANCH  42  43
ATOM     43  C   UNL     1      -6.589   4.379 141.028  0.00  0.00    +0.000 C 
ATOM     44  O   UNL     1      -5.698   3.634 141.432  0.00  0.00    +0.000 OA
ATOM     45  N   UNL     1      -7.911   4.222 141.411  0.00  0.00    +0.000 N 
ATOM     46  H   UNL     1      -8.596   4.873 141.068  0.00  0.00    +0.000 HD
BRANCH  45  47
ATOM     47  C   UNL     1      -8.351   3.142 142.299  0.00  0.00    +0.000 C 
BRANCH  47  48
ATOM     48  C   UNL     1      -8.364   1.722 141.699  0.00  0.00    +0.000 C 
ATOM     49  N   UNL     1      -7.275   0.924 141.905  0.00  0.00    +0.000 N 
ATOM     50  O   UNL     1      -9.314   1.285 141.052  0.00  0.00    +0.000 OA
ATOM     51  H   UNL     1      -6.444   1.174 142.408  0.00  0.00    +0.000 HD
ATOM     52  H   UNL     1      -7.303  -0.004 141.497  0.00  0.00    +0.000 HD
ENDBRANCH  47  48
ENDBRANCH  45  47
ENDBRANCH  42  43
BRANCH  42  53
ATOM     53  C   UNL     1      -7.626   6.152 139.536  0.00  0.00    +0.000 C 
BRANCH  53  54
ATOM     54  C   UNL     1      -7.582   6.474 138.048  0.00  0.00    +0.000 C 
BRANCH  54  55
ATOM     55  C   UNL     1      -8.616   7.456 137.580  0.00  0.00    +0.000 C 
BRANCH  55  56
ATOM     56  N   UNL     1      -8.668   8.544 138.557  0.00  0.00    +0.000 NA
ATOM     57  C   UNL     1      -9.667   9.340 138.465  0.00  0.00    +0.000 C 
ATOM     58  N   UNL     1     -10.669   9.249 137.574  0.00  0.00    +0.000 N 
ATOM     59  N   UNL     1      -9.790  10.374 139.311  0.00  0.00    +0.000 N 
ATOM     60  H   UNL     1     -10.645   8.508 136.890  0.00  0.00    +0.000 HD
ATOM     61  H   UNL     1     -11.444   9.884 137.545  0.00  0.00    +0.000 HD
ATOM     62  H   UNL     1      -9.051  10.505 139.990  0.00  0.00    +0.000 HD
ATOM     63  H   UNL     1     -10.552  11.029 139.298  0.00  0.00    +0.000 HD
ENDBRANCH  55  56
ENDBRANCH  54  55
ENDBRANCH  53  54
ENDBRANCH  42  53
ENDBRANCH  40  42
ENDBRANCH  37  38
ENDBRANCH  18  31
BRANCH   1  65
ATOM     64  C   UNL     1      -7.577  -2.980 130.563  0.00  0.00    +0.000 C 
ATOM     65  C   UNL     1      -6.577  -2.102 131.281  0.00  0.00    +0.000 C 
ENDBRANCH   1  65
BRANCH   9  66
ATOM     66  C   UNL     1      -5.713   4.200 127.615  0.00  0.00    +0.000 C 
BRANCH  66  67
ATOM     67  C   UNL     1      -5.013   4.354 129.013  0.00  0.00    +0.000 A 
ATOM     68  C   UNL     1      -4.565   5.615 129.216  0.00  0.00    +0.000 A 
ATOM     69  C   UNL     1      -3.497   5.987 130.042  0.00  0.00    +0.000 A 
ATOM     70  C   UNL     1      -2.804   5.157 130.868  0.00  0.00    +0.000 A 
ATOM     71  C   UNL     1      -3.166   3.834 130.692  0.00  0.00    +0.000 A 
ATOM     72  C   UNL     1      -4.276   3.421 129.797  0.00  0.00    +0.000 A 
BRANCH  70  73
ATOM     73  O   UNL     1      -1.552   5.489 131.342  0.00  0.00    +0.000 OA
ATOM     74  H   UNL     1      -1.466   6.462 131.538  0.00  0.00    +0.000 HD
ENDBRANCH  70  73
ENDBRANCH  66  67
ENDBRANCH   9  66
BRANCH   5  75
ATOM     75  C   UNL     1      -7.751   0.102 126.449  0.00  0.00    +0.000 C 
BRANCH  75  76
ATOM     76  C   UNL     1      -8.253  -1.175 125.850  0.00  0.00    +0.000 A 
ATOM     77  C   UNL     1      -8.469  -2.375 126.562  0.00  0.00    +0.000 A 
ATOM     78  C   UNL     1      -8.566  -3.586 125.925  0.00  0.00    +0.000 A 
ATOM     79  C   UNL     1      -8.789  -3.561 124.568  0.00  0.00    +0.000 A 
ATOM     80  C   UNL     1      -8.684  -2.367 123.846  0.00  0.00    +0.000 A 
ATOM     81  C   UNL     1      -8.341  -1.184 124.472  0.00  0.00    +0.000 A 
ENDBRANCH  75  76
ENDBRANCH   5  75
BRANCH  22  82
ATOM     82  C   UNL     1      -6.859   1.865 131.652  0.00  0.00    +0.000 C 
BRANCH  82  83
ATOM     83  C   UNL     1      -7.912   1.358 132.460  0.00  0.00    +0.000 C 
ATOM     84  N   UNL     1      -8.510   0.204 132.274  0.00  0.00    +0.000 N 
ATOM     85  O   UNL     1      -8.327   1.998 133.419  0.00  0.00    +0.000 OA
ATOM     86  H   UNL     1      -8.001  -0.642 132.083  0.00  0.00    +0.000 HD
ATOM     87  H   UNL     1      -9.005   0.065 133.115  0.00  0.00    +0.000 HD
ENDBRANCH  82  83
ENDBRANCH  22  82
TORSDOF 18
ENDMDL
