MODEL 1
REMARK VINA RESULT:     -10.3      0.000      0.000
REMARK  Name = CHEMBL2369847
REMARK  19 active torsions:
REMARK  status: ('A' for Active; 'I' for Inactive)
REMARK    1  A    between atoms: C_2  and  C_4
REMARK    2  A    between atoms: C_4  and  N_5
REMARK    3  A    between atoms: C_6  and  C_8
REMARK    4  A    between atoms: C_8  and  C_9
REMARK    5  A    between atoms: C_8  and  N_16
REMARK    6  A    between atoms: C_9  and  C_10
REMARK    7  A    between atoms: C_10  and  C_11
REMARK    8  A    between atoms: C_11  and  N_12
REMARK    9  A    between atoms: C_17  and  C_19
REMARK   10  A    between atoms: C_24  and  C_26
REMARK   11  A    between atoms: C_35  and  C_36
REMARK   12  A    between atoms: C_36  and  C_37
REMARK   13  A    between atoms: C_40  and  O_41
REMARK   14  A    between atoms: C_47  and  C_48
REMARK   15  A    between atoms: C_48  and  C_49
REMARK   16  A    between atoms: C_58  and  C_59
REMARK   17  A    between atoms: C_59  and  C_60
REMARK   18  A    between atoms: C_69  and  C_70
REMARK   19  A    between atoms: C_70  and  C_71
REMARK                            x       y       z     vdW  Elec       q    Type
REMARK                         _______ _______ _______ _____ _____    ______ ____
ROOT
ATOM      1  C   UNL     1      -4.158   1.588 131.558  0.00  0.00    +0.000 C 
ATOM      2  C   UNL     1      -4.528  -0.818 131.933  0.00  0.00    +0.000 C 
ATOM      3  S   UNL     1      -5.295  -3.301 132.984  0.00  0.00    +0.000 S 
ATOM      4  S   UNL     1      -5.691  -5.742 134.393  0.00  0.00    +0.000 S 
ATOM      5  C   UNL     1      -6.246  -5.723 136.404  0.00  0.00    +0.000 C 
ATOM      6  C   UNL     1      -5.949  -6.234 137.812  0.00  0.00    +0.000 C 
ATOM      7  C   UNL     1      -6.081  -5.229 138.981  0.00  0.00    +0.000 C 
ATOM      8  O   UNL     1      -6.031  -5.615 140.152  0.00  0.00    +0.000 OA
ATOM      9  N   UNL     1      -6.202  -3.897 138.689  0.00  0.00    +0.000 N 
ATOM     10  C   UNL     1      -6.300  -3.331 137.362  0.00  0.00    +0.000 C 
ATOM     11  C   UNL     1      -4.794  -3.592 136.679  0.00  0.00    +0.000 C 
ATOM     12  O   UNL     1      -4.138  -4.655 136.613  0.00  0.00    +0.000 OA
ATOM     13  N   UNL     1      -4.280  -2.727 135.907  0.00  0.00    +0.000 N 
ATOM     14  C   UNL     1      -4.691  -1.488 135.997  0.00  0.00    +0.000 C 
ATOM     15  C   UNL     1      -6.104  -1.209 135.192  0.00  0.00    +0.000 C 
ATOM     16  O   UNL     1      -7.187  -1.785 135.295  0.00  0.00    +0.000 OA
ATOM     17  N   UNL     1      -6.446  -0.205 134.566  0.00  0.00    +0.000 N 
ATOM     18  C   UNL     1      -5.458   0.341 134.174  0.00  0.00    +0.000 C 
ATOM     19  C   UNL     1      -5.200   1.367 135.366  0.00  0.00    +0.000 C 
ATOM     20  O   UNL     1      -4.469   0.710 136.099  0.00  0.00    +0.000 OA
ATOM     21  N   UNL     1      -4.944   3.180 135.167  0.00  0.00    +0.000 N 
ATOM     22  C   UNL     1      -4.803   3.759 133.714  0.00  0.00    +0.000 C 
ATOM     23  C   UNL     1      -3.258   2.613 132.672  0.00  0.00    +0.000 C 
ATOM     24  O   UNL     1      -2.854   1.330 132.654  0.00  0.00    +0.000 OA
ATOM     25  N   UNL     1      -3.227   3.018 131.433  0.00  0.00    +0.000 N 
ATOM     26  H   UNL     1      -6.380  -3.226 139.431  0.00  0.00    +0.000 HD
ATOM     27  H   UNL     1      -3.365  -2.866 135.542  0.00  0.00    +0.000 HD
ATOM     28  H   UNL     1      -7.163   0.003 133.967  0.00  0.00    +0.000 HD
ATOM     29  H   UNL     1      -4.302   3.730 135.660  0.00  0.00    +0.000 HD
ATOM     30  H   UNL     1      -2.629   3.712 130.849  0.00  0.00    +0.000 HD
ENDROOT
BRANCH   1  36
ATOM     31  C   UNL     1      -4.699   6.897 130.120  0.00  0.00    +0.000 C 
ATOM     32  C   UNL     1      -3.690   7.640 129.120  0.00  0.00    +0.000 C 
ATOM     33  C   UNL     1      -3.548   8.992 129.663  0.00  0.00    +0.000 C 
ATOM     34  C   UNL     1      -3.755   8.226 131.459  0.00  0.00    +0.000 C 
ATOM     35  N   UNL     1      -4.283   6.170 131.805  0.00  0.00    +0.000 N 
ATOM     36  C   UNL     1      -4.017   4.073 132.109  0.00  0.00    +0.000 C 
ATOM     37  O   UNL     1      -3.956   5.206 133.067  0.00  0.00    +0.000 OA
BRANCH  31  39
ATOM     38  N   UNL     1      -6.157   5.064 130.142  0.00  0.00    +0.000 N 
ATOM     39  C   UNL     1      -5.000   5.575 129.970  0.00  0.00    +0.000 C 
ATOM     40  O   UNL     1      -4.140   4.889 129.476  0.00  0.00    +0.000 OA
ATOM     41  H   UNL     1      -6.953   5.587 130.567  0.00  0.00    +0.000 HD
BRANCH  38  42
ATOM     42  C   UNL     1      -6.507   3.908 129.407  0.00  0.00    +0.000 C 
BRANCH  42  44
ATOM     43  N   UNL     1      -7.306   2.042 126.965  0.00  0.00    +0.000 N 
ATOM     44  C   UNL     1      -6.916   3.719 127.734  0.00  0.00    +0.000 C 
ATOM     45  O   UNL     1      -6.500   4.699 126.918  0.00  0.00    +0.000 OA
ATOM     46  H   UNL     1      -7.514   1.613 127.821  0.00  0.00    +0.000 HD
BRANCH  43  47
ATOM     47  C   UNL     1      -8.500   1.989 125.840  0.00  0.00    +0.000 C 
BRANCH  47  49
ATOM     48  N   UNL     1      -8.270  -0.006 126.774  0.00  0.00    +0.000 N 
ATOM     49  C   UNL     1      -9.054   0.747 126.007  0.00  0.00    +0.000 C 
ATOM     50  O   UNL     1     -10.128   0.476 125.526  0.00  0.00    +0.000 OA
ATOM     51  H   UNL     1      -8.599  -0.928 126.968  0.00  0.00    +0.000 HD
ATOM     52  H   UNL     1      -7.389   0.286 127.182  0.00  0.00    +0.000 HD
ENDBRANCH  47  49
ENDBRANCH  43  47
ENDBRANCH  42  44
BRANCH  42  53
ATOM     53  C   UNL     1      -7.507   3.994 130.197  0.00  0.00    +0.000 C 
BRANCH  53  54
ATOM     54  C   UNL     1      -9.374   4.652 129.703  0.00  0.00    +0.000 C 
BRANCH  54  55
ATOM     55  C   UNL     1      -9.546   6.263 130.400  0.00  0.00    +0.000 C 
BRANCH  55  56
ATOM     56  N   UNL     1      -9.592   7.082 129.328  0.00  0.00    +0.000 NA
ATOM     57  C   UNL     1     -10.594   7.841 129.148  0.00  0.00    +0.000 C 
ATOM     58  N   UNL     1     -11.719   7.953 129.927  0.00  0.00    +0.000 N 
ATOM     59  N   UNL     1     -10.490   8.667 128.070  0.00  0.00    +0.000 N 
ATOM     60  H   UNL     1     -11.888   7.396 130.775  0.00  0.00    +0.000 HD
ATOM     61  H   UNL     1     -12.511   8.516 129.719  0.00  0.00    +0.000 HD
ATOM     62  H   UNL     1      -9.651   8.668 127.476  0.00  0.00    +0.000 HD
ATOM     63  H   UNL     1     -11.199   9.321 127.788  0.00  0.00    +0.000 HD
ENDBRANCH  55  56
ENDBRANCH  54  55
ENDBRANCH  53  54
ENDBRANCH  42  53
ENDBRANCH  38  42
ENDBRANCH  31  39
ENDBRANCH   1  36
BRANCH  10  64
ATOM     64  C   UNL     1      -6.713  -1.965 137.523  0.00  0.00    +0.000 C 
BRANCH  64  65
ATOM     65  C   UNL     1      -7.475  -1.432 138.580  0.00  0.00    +0.000 A 
ATOM     66  C   UNL     1      -8.770  -1.825 138.539  0.00  0.00    +0.000 A 
ATOM     67  C   UNL     1      -9.623  -1.490 139.535  0.00  0.00    +0.000 A 
ATOM     68  C   UNL     1      -9.151  -0.741 140.583  0.00  0.00    +0.000 A 
ATOM     69  C   UNL     1      -7.837  -0.317 140.607  0.00  0.00    +0.000 A 
ATOM     70  C   UNL     1      -6.977  -0.666 139.600  0.00  0.00    +0.000 A 
BRANCH  68  71
ATOM     71  O   UNL     1      -9.917  -0.362 141.637  0.00  0.00    +0.000 OA
ATOM     72  H   UNL     1      -9.468  -0.380 142.496  0.00  0.00    +0.000 HD
ENDBRANCH  68  71
ENDBRANCH  64  65
ENDBRANCH  10  64
BRANCH  14  73
ATOM     73  C   UNL     1      -3.438  -0.919 135.495  0.00  0.00    +0.000 C 
BRANCH  73  74
ATOM     74  C   UNL     1      -2.073  -1.460 135.448  0.00  0.00    +0.000 A 
ATOM     75  C   UNL     1      -1.164  -1.874 136.449  0.00  0.00    +0.000 A 
ATOM     76  C   UNL     1       0.113  -1.796 136.154  0.00  0.00    +0.000 A 
ATOM     77  C   UNL     1       0.486  -1.663 134.863  0.00  0.00    +0.000 A 
ATOM     78  C   UNL     1      -0.438  -1.397 133.909  0.00  0.00    +0.000 A 
ATOM     79  C   UNL     1      -1.722  -1.382 134.189  0.00  0.00    +0.000 A 
ENDBRANCH  73  74
ENDBRANCH  14  73
BRANCH  18  80
ATOM     80  C   UNL     1      -6.384   1.291 132.658  0.00  0.00    +0.000 C 
BRANCH  80  81
ATOM     81  C   UNL     1      -7.758   1.160 132.526  0.00  0.00    +0.000 A 
ATOM     82  C   UNL     1      -8.492   0.137 132.014  0.00  0.00    +0.000 A 
ATOM     83  C   UNL     1      -9.602   0.689 131.598  0.00  0.00    +0.000 A 
ATOM     84  C   UNL     1     -10.058   1.872 132.117  0.00  0.00    +0.000 A 
ATOM     85  C   UNL     1      -9.296   2.627 132.930  0.00  0.00    +0.000 A 
ATOM     86  C   UNL     1      -8.125   2.221 133.236  0.00  0.00    +0.000 A 
ENDBRANCH  80  81
ENDBRANCH  18  80
BRANCH  22  87
ATOM     87  C   UNL     1      -5.195   5.159 133.834  0.00  0.00    +0.000 C 
BRANCH  87  88
ATOM     88  C   UNL     1      -6.415   5.610 134.316  0.00  0.00    +0.000 C 
ATOM     89  N   UNL     1      -7.340   5.802 133.393  0.00  0.00    +0.000 N 
ATOM     90  O   UNL     1      -6.661   5.705 135.493  0.00  0.00    +0.000 OA
ATOM     91  H   UNL     1      -7.315   5.797 132.412  0.00  0.00    +0.000 HD
ATOM     92  H   UNL     1      -8.180   6.275 133.534  0.00  0.00    +0.000 HD
ENDBRANCH  87  88
ENDBRANCH  22  87
TORSDOF 19
ENDMDL
MODEL 2
REMARK VINA RESULT:     -10.3      1.611      2.060
REMARK  Name = CHEMBL2369847
REMARK  19 active torsions:
REMARK  status: ('A' for Active; 'I' for Inactive)
REMARK    1  A    between atoms: C_2  and  C_4
REMARK    2  A    between atoms: C_4  and  N_5
REMARK    3  A    between atoms: C_6  and  C_8
REMARK    4  A    between atoms: C_8  and  C_9
REMARK    5  A    between atoms: C_8  and  N_16
REMARK    6  A    between atoms: C_9  and  C_10
REMARK    7  A    between atoms: C_10  and  C_11
REMARK    8  A    between atoms: C_11  and  N_12
REMARK    9  A    between atoms: C_17  and  C_19
REMARK   10  A    between atoms: C_24  and  C_26
REMARK   11  A    between atoms: C_35  and  C_36
REMARK   12  A    between atoms: C_36  and  C_37
REMARK   13  A    between atoms: C_40  and  O_41
REMARK   14  A    between atoms: C_47  and  C_48
REMARK   15  A    between atoms: C_48  and  C_49
REMARK   16  A    between atoms: C_58  and  C_59
REMARK   17  A    between atoms: C_59  and  C_60
REMARK   18  A    between atoms: C_69  and  C_70
REMARK   19  A    between atoms: C_70  and  C_71
REMARK                            x       y       z     vdW  Elec       q    Type
REMARK                         _______ _______ _______ _____ _____    ______ ____
ROOT
ATOM      1  C   UNL     1      -3.438   2.457 132.227  0.00  0.00    +0.000 C 
ATOM      2  C   UNL     1      -3.904   0.062 131.895  0.00  0.00    +0.000 C 
ATOM      3  S   UNL     1      -4.891  -2.553 132.112  0.00  0.00    +0.000 S 
ATOM      4  S   UNL     1      -5.581  -5.240 132.748  0.00  0.00    +0.000 S 
ATOM      5  C   UNL     1      -6.510  -5.692 134.560  0.00  0.00    +0.000 C 
ATOM      6  C   UNL     1      -6.495  -6.558 135.818  0.00  0.00    +0.000 C 
ATOM      7  C   UNL     1      -6.835  -5.872 137.163  0.00  0.00    +0.000 C 
ATOM      8  O   UNL     1      -7.015  -6.541 138.183  0.00  0.00    +0.000 OA
ATOM      9  N   UNL     1      -6.880  -4.504 137.208  0.00  0.00    +0.000 N 
ATOM     10  C   UNL     1      -6.716  -3.618 136.077  0.00  0.00    +0.000 C 
ATOM     11  C   UNL     1      -5.110  -3.792 135.634  0.00  0.00    +0.000 C 
ATOM     12  O   UNL     1      -4.468  -4.843 135.416  0.00  0.00    +0.000 OA
ATOM     13  N   UNL     1      -4.446  -2.795 135.218  0.00  0.00    +0.000 N 
ATOM     14  C   UNL     1      -4.851  -1.595 135.549  0.00  0.00    +0.000 C 
ATOM     15  C   UNL     1      -6.080  -1.036 134.600  0.00  0.00    +0.000 C 
ATOM     16  O   UNL     1      -7.170  -1.552 134.352  0.00  0.00    +0.000 OA
ATOM     17  N   UNL     1      -6.282   0.112 134.203  0.00  0.00    +0.000 N 
ATOM     18  C   UNL     1      -5.231   0.677 134.152  0.00  0.00    +0.000 C 
ATOM     19  C   UNL     1      -5.192   1.353 135.595  0.00  0.00    +0.000 C 
ATOM     20  O   UNL     1      -4.624   0.489 136.253  0.00  0.00    +0.000 OA
ATOM     21  N   UNL     1      -4.879   3.138 135.920  0.00  0.00    +0.000 N 
ATOM     22  C   UNL     1      -4.455   4.053 134.716  0.00  0.00    +0.000 C 
ATOM     23  C   UNL     1      -2.754   3.112 133.712  0.00  0.00    +0.000 C 
ATOM     24  O   UNL     1      -2.371   1.852 133.438  0.00  0.00    +0.000 OA
ATOM     25  N   UNL     1      -2.481   3.812 132.646  0.00  0.00    +0.000 N 
ATOM     26  H   UNL     1      -7.188  -4.031 138.052  0.00  0.00    +0.000 HD
ATOM     27  H   UNL     1      -3.480  -2.894 135.003  0.00  0.00    +0.000 HD
ATOM     28  H   UNL     1      -6.869   0.508 133.558  0.00  0.00    +0.000 HD
ATOM     29  H   UNL     1      -4.336   3.506 136.646  0.00  0.00    +0.000 HD
ATOM     30  H   UNL     1      -1.773   4.592 132.380  0.00  0.00    +0.000 HD
ENDROOT
BRANCH   1  36
ATOM     31  C   UNL     1      -3.489   7.983 132.122  0.00  0.00    +0.000 C 
ATOM     32  C   UNL     1      -2.252   8.860 131.602  0.00  0.00    +0.000 C 
ATOM     33  C   UNL     1      -2.211  10.021 132.491  0.00  0.00    +0.000 C 
ATOM     34  C   UNL     1      -2.861   8.859 133.936  0.00  0.00    +0.000 C 
ATOM     35  N   UNL     1      -3.507   6.833 133.611  0.00  0.00    +0.000 N 
ATOM     36  C   UNL     1      -3.372   4.711 133.416  0.00  0.00    +0.000 C 
ATOM     37  O   UNL     1      -3.515   5.566 134.622  0.00  0.00    +0.000 OA
BRANCH  31  39
ATOM     38  N   UNL     1      -4.953   6.338 131.323  0.00  0.00    +0.000 N 
ATOM     39  C   UNL     1      -3.778   6.768 131.573  0.00  0.00    +0.000 C 
ATOM     40  O   UNL     1      -2.839   6.144 131.145  0.00  0.00    +0.000 OA
ATOM     41  H   UNL     1      -5.817   6.815 131.659  0.00  0.00    +0.000 HD
BRANCH  38  42
ATOM     42  C   UNL     1      -5.134   5.429 130.256  0.00  0.00    +0.000 C 
BRANCH  42  44
ATOM     43  N   UNL     1      -5.255   4.261 127.306  0.00  0.00    +0.000 N 
ATOM     44  C   UNL     1      -4.934   5.642 128.548  0.00  0.00    +0.000 C 
ATOM     45  O   UNL     1      -4.118   6.639 128.176  0.00  0.00    +0.000 OA
ATOM     46  H   UNL     1      -5.817   3.738 127.916  0.00  0.00    +0.000 HD
BRANCH  43  47
ATOM     47  C   UNL     1      -5.959   4.677 125.882  0.00  0.00    +0.000 C 
BRANCH  47  49
ATOM     48  N   UNL     1      -7.464   3.166 126.481  0.00  0.00    +0.000 N 
ATOM     49  C   UNL     1      -7.290   4.426 126.087  0.00  0.00    +0.000 C 
ATOM     50  O   UNL     1      -8.114   5.296 125.949  0.00  0.00    +0.000 OA
ATOM     51  H   UNL     1      -8.404   2.892 126.673  0.00  0.00    +0.000 HD
ATOM     52  H   UNL     1      -6.727   2.483 126.614  0.00  0.00    +0.000 HD
ENDBRANCH  47  49
ENDBRANCH  43  47
ENDBRANCH  42  44
BRANCH  42  53
ATOM     53  C   UNL     1      -6.335   5.540 130.674  0.00  0.00    +0.000 C 
BRANCH  53  54
ATOM     54  C   UNL     1      -8.002   4.824 129.739  0.00  0.00    +0.000 C 
BRANCH  54  55
ATOM     55  C   UNL     1      -9.383   5.305 130.725  0.00  0.00    +0.000 C 
BRANCH  55  56
ATOM     56  N   UNL     1     -10.373   5.507 129.830  0.00  0.00    +0.000 NA
ATOM     57  C   UNL     1     -11.522   5.878 130.221  0.00  0.00    +0.000 C 
ATOM     58  N   UNL     1     -11.940   6.111 131.508  0.00  0.00    +0.000 N 
ATOM     59  N   UNL     1     -12.412   6.113 129.218  0.00  0.00    +0.000 N 
ATOM     60  H   UNL     1     -11.344   5.989 132.337  0.00  0.00    +0.000 HD
ATOM     61  H   UNL     1     -12.868   6.343 131.780  0.00  0.00    +0.000 HD
ATOM     62  H   UNL     1     -12.146   6.006 128.231  0.00  0.00    +0.000 HD
ATOM     63  H   UNL     1     -13.363   6.405 129.362  0.00  0.00    +0.000 HD
ENDBRANCH  55  56
ENDBRANCH  54  55
ENDBRANCH  53  54
ENDBRANCH  42  53
ENDBRANCH  38  42
ENDBRANCH  31  39
ENDBRANCH   1  36
BRANCH  10  64
ATOM     64  C   UNL     1      -7.133  -2.314 136.506  0.00  0.00    +0.000 C 
BRANCH  64  65
ATOM     65  C   UNL     1      -7.707  -1.976 137.748  0.00  0.00    +0.000 A 
ATOM     66  C   UNL     1      -6.848  -1.312 138.555  0.00  0.00    +0.000 A 
ATOM     67  C   UNL     1      -7.262  -0.820 139.746  0.00  0.00    +0.000 A 
ATOM     68  C   UNL     1      -8.568  -1.013 140.120  0.00  0.00    +0.000 A 
ATOM     69  C   UNL     1      -9.435  -1.717 139.306  0.00  0.00    +0.000 A 
ATOM     70  C   UNL     1      -9.011  -2.205 138.099  0.00  0.00    +0.000 A 
BRANCH  68  71
ATOM     71  O   UNL     1      -9.090  -0.553 141.285  0.00  0.00    +0.000 OA
ATOM     72  H   UNL     1      -8.920  -1.112 142.058  0.00  0.00    +0.000 HD
ENDBRANCH  68  71
ENDBRANCH  64  65
ENDBRANCH  10  64
BRANCH  14  73
ATOM     73  C   UNL     1      -3.517  -0.997 135.446  0.00  0.00    +0.000 C 
BRANCH  73  74
ATOM     74  C   UNL     1      -2.176  -1.593 135.504  0.00  0.00    +0.000 A 
ATOM     75  C   UNL     1      -1.409  -2.144 136.556  0.00  0.00    +0.000 A 
ATOM     76  C   UNL     1      -0.104  -2.097 136.420  0.00  0.00    +0.000 A 
ATOM     77  C   UNL     1       0.426  -1.857 135.202  0.00  0.00    +0.000 A 
ATOM     78  C   UNL     1      -0.367  -1.456 134.179  0.00  0.00    +0.000 A 
ATOM     79  C   UNL     1      -1.674  -1.409 134.308  0.00  0.00    +0.000 A 
ENDBRANCH  73  74
ENDBRANCH  14  73
BRANCH  18  80
ATOM     80  C   UNL     1      -5.837   2.033 132.790  0.00  0.00    +0.000 C 
BRANCH  80  81
ATOM     81  C   UNL     1      -7.181   2.371 132.736  0.00  0.00    +0.000 A 
ATOM     82  C   UNL     1      -7.888   3.254 133.490  0.00  0.00    +0.000 A 
ATOM     83  C   UNL     1      -9.120   2.816 133.459  0.00  0.00    +0.000 A 
ATOM     84  C   UNL     1      -9.580   2.023 132.441  0.00  0.00    +0.000 A 
ATOM     85  C   UNL     1      -8.744   1.490 131.530  0.00  0.00    +0.000 A 
ATOM     86  C   UNL     1      -7.496   1.743 131.610  0.00  0.00    +0.000 A 
ENDBRANCH  80  81
ENDBRANCH  18  80
BRANCH  22  87
ATOM     87  C   UNL     1      -4.845   5.400 135.120  0.00  0.00    +0.000 C 
BRANCH  87  88
ATOM     88  C   UNL     1      -5.773   5.704 136.104  0.00  0.00    +0.000 C 
ATOM     89  N   UNL     1      -5.320   6.477 137.075  0.00  0.00    +0.000 N 
ATOM     90  O   UNL     1      -6.936   5.395 136.027  0.00  0.00    +0.000 OA
ATOM     91  H   UNL     1      -4.422   6.798 137.309  0.00  0.00    +0.000 HD
ATOM     92  H   UNL     1      -5.778   6.639 137.919  0.00  0.00    +0.000 HD
ENDBRANCH  87  88
ENDBRANCH  22  87
TORSDOF 19
ENDMDL
MODEL 3
REMARK VINA RESULT:      -9.9      1.273      1.913
REMARK  Name = CHEMBL2369847
REMARK  19 active torsions:
REMARK  status: ('A' for Active; 'I' for Inactive)
REMARK    1  A    between atoms: C_2  and  C_4
REMARK    2  A    between atoms: C_4  and  N_5
REMARK    3  A    between atoms: C_6  and  C_8
REMARK    4  A    between atoms: C_8  and  C_9
REMARK    5  A    between atoms: C_8  and  N_16
REMARK    6  A    between atoms: C_9  and  C_10
REMARK    7  A    between atoms: C_10  and  C_11
REMARK    8  A    between atoms: C_11  and  N_12
REMARK    9  A    between atoms: C_17  and  C_19
REMARK   10  A    between atoms: C_24  and  C_26
REMARK   11  A    between atoms: C_35  and  C_36
REMARK   12  A    between atoms: C_36  and  C_37
REMARK   13  A    between atoms: C_40  and  O_41
REMARK   14  A    between atoms: C_47  and  C_48
REMARK   15  A    between atoms: C_48  and  C_49
REMARK   16  A    between atoms: C_58  and  C_59
REMARK   17  A    between atoms: C_59  and  C_60
REMARK   18  A    between atoms: C_69  and  C_70
REMARK   19  A    between atoms: C_70  and  C_71
REMARK                            x       y       z     vdW  Elec       q    Type
REMARK                         _______ _______ _______ _____ _____    ______ ____
ROOT
ATOM      1  C   UNL     1      -3.745   1.352 132.056  0.00  0.00    +0.000 C 
ATOM      2  C   UNL     1      -4.075  -1.055 132.461  0.00  0.00    +0.000 C 
ATOM      3  S   UNL     1      -4.873  -3.535 133.495  0.00  0.00    +0.000 S 
ATOM      4  S   UNL     1      -5.346  -5.950 134.925  0.00  0.00    +0.000 S 
ATOM      5  C   UNL     1      -6.126  -5.898 136.859  0.00  0.00    +0.000 C 
ATOM      6  C   UNL     1      -5.974  -6.360 138.306  0.00  0.00    +0.000 C 
ATOM      7  C   UNL     1      -6.272  -5.329 139.421  0.00  0.00    +0.000 C 
ATOM      8  O   UNL     1      -6.343  -5.681 140.601  0.00  0.00    +0.000 OA
ATOM      9  N   UNL     1      -6.403  -4.011 139.077  0.00  0.00    +0.000 N 
ATOM     10  C   UNL     1      -6.369  -3.484 137.731  0.00  0.00    +0.000 C 
ATOM     11  C   UNL     1      -4.787  -3.708 137.230  0.00  0.00    +0.000 C 
ATOM     12  O   UNL     1      -4.093  -4.748 137.271  0.00  0.00    +0.000 OA
ATOM     13  N   UNL     1      -4.217  -2.846 136.494  0.00  0.00    +0.000 N 
ATOM     14  C   UNL     1      -4.677  -1.621 136.499  0.00  0.00    +0.000 C 
ATOM     15  C   UNL     1      -5.997  -1.416 135.531  0.00  0.00    +0.000 C 
ATOM     16  O   UNL     1      -7.066  -2.028 135.529  0.00  0.00    +0.000 OA
ATOM     17  N   UNL     1      -6.299  -0.442 134.841  0.00  0.00    +0.000 N 
ATOM     18  C   UNL     1      -5.292   0.129 134.546  0.00  0.00    +0.000 C 
ATOM     19  C   UNL     1      -5.205   1.196 135.728  0.00  0.00    +0.000 C 
ATOM     20  O   UNL     1      -4.541   0.585 136.558  0.00  0.00    +0.000 OA
ATOM     21  N   UNL     1      -4.988   3.010 135.503  0.00  0.00    +0.000 N 
ATOM     22  C   UNL     1      -4.703   3.555 134.058  0.00  0.00    +0.000 C 
ATOM     23  C   UNL     1      -3.012   2.438 133.232  0.00  0.00    +0.000 C 
ATOM     24  O   UNL     1      -2.566   1.171 133.300  0.00  0.00    +0.000 OA
ATOM     25  N   UNL     1      -2.853   2.811 131.993  0.00  0.00    +0.000 N 
ATOM     26  H   UNL     1      -6.686  -3.327 139.773  0.00  0.00    +0.000 HD
ATOM     27  H   UNL     1      -3.262  -2.962 136.240  0.00  0.00    +0.000 HD
ATOM     28  H   UNL     1      -6.950  -0.276 134.158  0.00  0.00    +0.000 HD
ATOM     29  H   UNL     1      -4.425   3.596 136.048  0.00  0.00    +0.000 HD
ATOM     30  H   UNL     1      -2.216   3.510 131.459  0.00  0.00    +0.000 HD
ENDROOT
BRANCH   1  36
ATOM     31  C   UNL     1      -4.714   6.573 130.524  0.00  0.00    +0.000 C 
ATOM     32  C   UNL     1      -3.804   7.357 129.461  0.00  0.00    +0.000 C 
ATOM     33  C   UNL     1      -3.731   8.728 129.965  0.00  0.00    +0.000 C 
ATOM     34  C   UNL     1      -3.803   7.998 131.787  0.00  0.00    +0.000 C 
ATOM     35  N   UNL     1      -4.173   5.920 132.204  0.00  0.00    +0.000 N 
ATOM     36  C   UNL     1      -3.750   3.855 132.542  0.00  0.00    +0.000 C 
ATOM     37  O   UNL     1      -3.723   5.014 133.470  0.00  0.00    +0.000 OA
BRANCH  31  39
ATOM     38  N   UNL     1      -6.066   4.660 130.537  0.00  0.00    +0.000 N 
ATOM     39  C   UNL     1      -4.930   5.231 130.419  0.00  0.00    +0.000 C 
ATOM     40  O   UNL     1      -4.001   4.574 130.018  0.00  0.00    +0.000 OA
ATOM     41  H   UNL     1      -6.917   5.154 130.881  0.00  0.00    +0.000 HD
BRANCH  38  42
ATOM     42  C   UNL     1      -6.299   3.455 129.837  0.00  0.00    +0.000 C 
BRANCH  42  44
ATOM     43  N   UNL     1      -4.608   3.933 127.192  0.00  0.00    +0.000 N 
ATOM     44  C   UNL     1      -5.872   2.988 128.224  0.00  0.00    +0.000 C 
ATOM     45  O   UNL     1      -6.778   2.244 127.573  0.00  0.00    +0.000 OA
ATOM     46  H   UNL     1      -4.185   4.362 127.965  0.00  0.00    +0.000 HD
BRANCH  43  47
ATOM     47  C   UNL     1      -3.606   3.051 126.237  0.00  0.00    +0.000 C 
BRANCH  47  49
ATOM     48  N   UNL     1      -2.399   4.481 127.424  0.00  0.00    +0.000 N 
ATOM     49  C   UNL     1      -2.353   3.370 126.692  0.00  0.00    +0.000 C 
ATOM     50  O   UNL     1      -1.407   2.661 126.452  0.00  0.00    +0.000 OA
ATOM     51  H   UNL     1      -1.534   4.785 127.817  0.00  0.00    +0.000 HD
ATOM     52  H   UNL     1      -3.234   5.021 127.623  0.00  0.00    +0.000 HD
ENDBRANCH  47  49
ENDBRANCH  43  47
ENDBRANCH  42  44
BRANCH  42  53
ATOM     53  C   UNL     1      -7.495   3.880 129.974  0.00  0.00    +0.000 C 
BRANCH  53  54
ATOM     54  C   UNL     1      -8.541   4.980 128.611  0.00  0.00    +0.000 C 
BRANCH  54  55
ATOM     55  C   UNL     1      -9.609   6.043 129.528  0.00  0.00    +0.000 C 
BRANCH  55  56
ATOM     56  N   UNL     1      -9.875   7.057 128.678  0.00  0.00    +0.000 NA
ATOM     57  C   UNL     1     -10.859   7.830 128.894  0.00  0.00    +0.000 C 
ATOM     58  N   UNL     1     -11.762   7.778 129.926  0.00  0.00    +0.000 N 
ATOM     59  N   UNL     1     -10.979   8.852 128.003  0.00  0.00    +0.000 N 
ATOM     60  H   UNL     1     -11.748   7.063 130.666  0.00  0.00    +0.000 HD
ATOM     61  H   UNL     1     -12.557   8.365 130.028  0.00  0.00    +0.000 HD
ATOM     62  H   UNL     1     -10.306   8.977 127.236  0.00  0.00    +0.000 HD
ATOM     63  H   UNL     1     -11.708   9.545 128.032  0.00  0.00    +0.000 HD
ENDBRANCH  55  56
ENDBRANCH  54  55
ENDBRANCH  53  54
ENDBRANCH  42  53
ENDBRANCH  38  42
ENDBRANCH  31  39
ENDBRANCH   1  36
BRANCH  10  64
ATOM     64  C   UNL     1      -6.842  -2.131 137.801  0.00  0.00    +0.000 C 
BRANCH  64  65
ATOM     65  C   UNL     1      -7.596  -1.553 138.841  0.00  0.00    +0.000 A 
ATOM     66  C   UNL     1      -6.880  -0.674 139.579  0.00  0.00    +0.000 A 
ATOM     67  C   UNL     1      -7.473   0.052 140.555  0.00  0.00    +0.000 A 
ATOM     68  C   UNL     1      -8.814  -0.126 140.784  0.00  0.00    +0.000 A 
ATOM     69  C   UNL     1      -9.537  -1.045 140.049  0.00  0.00    +0.000 A 
ATOM     70  C   UNL     1      -8.931  -1.770 139.057  0.00  0.00    +0.000 A 
BRANCH  68  71
ATOM     71  O   UNL     1      -9.509   0.558 141.728  0.00  0.00    +0.000 OA
ATOM     72  H   UNL     1     -10.381   0.190 141.940  0.00  0.00    +0.000 HD
ENDBRANCH  68  71
ENDBRANCH  64  65
ENDBRANCH  10  64
BRANCH  14  73
ATOM     73  C   UNL     1      -3.394  -1.021 136.124  0.00  0.00    +0.000 C 
BRANCH  73  74
ATOM     74  C   UNL     1      -2.029  -1.564 136.120  0.00  0.00    +0.000 A 
ATOM     75  C   UNL     1      -1.093  -1.828 137.147  0.00  0.00    +0.000 A 
ATOM     76  C   UNL     1       0.175  -1.795 136.809  0.00  0.00    +0.000 A 
ATOM     77  C   UNL     1       0.514  -1.851 135.503  0.00  0.00    +0.000 A 
ATOM     78  C   UNL     1      -0.436  -1.726 134.545  0.00  0.00    +0.000 A 
ATOM     79  C   UNL     1      -1.712  -1.670 134.854  0.00  0.00    +0.000 A 
ENDBRANCH  73  74
ENDBRANCH  14  73
BRANCH  18  80
ATOM     80  C   UNL     1      -6.070   1.004 132.907  0.00  0.00    +0.000 C 
BRANCH  80  81
ATOM     81  C   UNL     1      -7.434   0.902 132.678  0.00  0.00    +0.000 A 
ATOM     82  C   UNL     1      -8.165  -0.147 132.214  0.00  0.00    +0.000 A 
ATOM     83  C   UNL     1      -9.217   0.393 131.656  0.00  0.00    +0.000 A 
ATOM     84  C   UNL     1      -9.667   1.637 132.013  0.00  0.00    +0.000 A 
ATOM     85  C   UNL     1      -8.941   2.449 132.805  0.00  0.00    +0.000 A 
ATOM     86  C   UNL     1      -7.814   2.041 133.244  0.00  0.00    +0.000 A 
ENDBRANCH  80  81
ENDBRANCH  18  80
BRANCH  22  87
ATOM     87  C   UNL     1      -5.152   4.943 134.090  0.00  0.00    +0.000 C 
BRANCH  87  88
ATOM     88  C   UNL     1      -6.349   5.384 134.633  0.00  0.00    +0.000 C 
ATOM     89  N   UNL     1      -7.306   5.615 133.752  0.00  0.00    +0.000 N 
ATOM     90  O   UNL     1      -6.551   5.437 135.821  0.00  0.00    +0.000 OA
ATOM     91  H   UNL     1      -7.317   5.647 132.771  0.00  0.00    +0.000 HD
ATOM     92  H   UNL     1      -8.137   6.089 133.941  0.00  0.00    +0.000 HD
ENDBRANCH  87  88
ENDBRANCH  22  87
TORSDOF 19
ENDMDL
MODEL 4
REMARK VINA RESULT:      -9.6      3.360     11.362
REMARK  Name = CHEMBL2369847
REMARK  19 active torsions:
REMARK  status: ('A' for Active; 'I' for Inactive)
REMARK    1  A    between atoms: C_2  and  C_4
REMARK    2  A    between atoms: C_4  and  N_5
REMARK    3  A    between atoms: C_6  and  C_8
REMARK    4  A    between atoms: C_8  and  C_9
REMARK    5  A    between atoms: C_8  and  N_16
REMARK    6  A    between atoms: C_9  and  C_10
REMARK    7  A    between atoms: C_10  and  C_11
REMARK    8  A    between atoms: C_11  and  N_12
REMARK    9  A    between atoms: C_17  and  C_19
REMARK   10  A    between atoms: C_24  and  C_26
REMARK   11  A    between atoms: C_35  and  C_36
REMARK   12  A    between atoms: C_36  and  C_37
REMARK   13  A    between atoms: C_40  and  O_41
REMARK   14  A    between atoms: C_47  and  C_48
REMARK   15  A    between atoms: C_48  and  C_49
REMARK   16  A    between atoms: C_58  and  C_59
REMARK   17  A    between atoms: C_59  and  C_60
REMARK   18  A    between atoms: C_69  and  C_70
REMARK   19  A    between atoms: C_70  and  C_71
REMARK                            x       y       z     vdW  Elec       q    Type
REMARK                         _______ _______ _______ _____ _____    ______ ____
ROOT
ATOM      1  C   UNL     1      -7.606  -1.006 132.213  0.00  0.00    +0.000 C 
ATOM      2  C   UNL     1      -8.311  -1.157 129.858  0.00  0.00    +0.000 C 
ATOM      3  S   UNL     1      -8.458  -0.963 127.065  0.00  0.00    +0.000 S 
ATOM      4  S   UNL     1      -8.717  -0.266 124.317  0.00  0.00    +0.000 S 
ATOM      5  C   UNL     1      -7.422   1.123 123.453  0.00  0.00    +0.000 C 
ATOM      6  C   UNL     1      -7.292   2.404 122.633  0.00  0.00    +0.000 C 
ATOM      7  C   UNL     1      -6.211   3.423 123.064  0.00  0.00    +0.000 C 
ATOM      8  O   UNL     1      -5.933   4.387 122.347  0.00  0.00    +0.000 OA
ATOM      9  N   UNL     1      -5.607   3.262 124.282  0.00  0.00    +0.000 N 
ATOM     10  C   UNL     1      -5.828   2.161 125.193  0.00  0.00    +0.000 C 
ATOM     11  C   UNL     1      -7.401   2.366 125.729  0.00  0.00    +0.000 C 
ATOM     12  O   UNL     1      -8.441   2.544 125.055  0.00  0.00    +0.000 OA
ATOM     13  N   UNL     1      -7.714   2.091 126.927  0.00  0.00    +0.000 N 
ATOM     14  C   UNL     1      -6.768   2.084 127.831  0.00  0.00    +0.000 C 
ATOM     15  C   UNL     1      -5.895   0.684 127.851  0.00  0.00    +0.000 C 
ATOM     16  O   UNL     1      -5.294   0.127 126.932  0.00  0.00    +0.000 OA
ATOM     17  N   UNL     1      -5.420   0.089 128.819  0.00  0.00    +0.000 N 
ATOM     18  C   UNL     1      -6.085   0.350 129.777  0.00  0.00    +0.000 C 
ATOM     19  C   UNL     1      -5.284   1.601 130.356  0.00  0.00    +0.000 C 
ATOM     20  O   UNL     1      -5.845   2.532 129.790  0.00  0.00    +0.000 OA
ATOM     21  N   UNL     1      -4.700   1.772 132.094  0.00  0.00    +0.000 N 
ATOM     22  C   UNL     1      -5.153   0.695 133.143  0.00  0.00    +0.000 C 
ATOM     23  C   UNL     1      -7.332   0.522 133.044  0.00  0.00    +0.000 C 
ATOM     24  O   UNL     1      -8.262   0.582 132.074  0.00  0.00    +0.000 OA
ATOM     25  N   UNL     1      -7.692  -0.453 133.830  0.00  0.00    +0.000 N 
ATOM     26  H   UNL     1      -4.833   3.862 124.551  0.00  0.00    +0.000 HD
ATOM     27  H   UNL     1      -8.638   2.261 127.252  0.00  0.00    +0.000 HD
ATOM     28  H   UNL     1      -5.026  -0.774 128.952  0.00  0.00    +0.000 HD
ATOM     29  H   UNL     1      -4.720   2.590 132.631  0.00  0.00    +0.000 HD
ATOM     30  H   UNL     1      -8.070  -0.545 134.845  0.00  0.00    +0.000 HD
ENDROOT
BRANCH   1  36
ATOM     31  C   UNL     1      -4.967  -1.979 136.970  0.00  0.00    +0.000 C 
ATOM     32  C   UNL     1      -5.725  -2.370 138.328  0.00  0.00    +0.000 C 
ATOM     33  C   UNL     1      -4.985  -1.682 139.386  0.00  0.00    +0.000 C 
ATOM     34  C   UNL     1      -4.625  -0.235 138.108  0.00  0.00    +0.000 C 
ATOM     35  N   UNL     1      -5.123  -0.363 136.019  0.00  0.00    +0.000 N 
ATOM     36  C   UNL     1      -6.293  -0.193 134.241  0.00  0.00    +0.000 C 
ATOM     37  O   UNL     1      -5.464   0.811 134.955  0.00  0.00    +0.000 OA
BRANCH  31  39
ATOM     38  N   UNL     1      -4.711  -2.659 134.744  0.00  0.00    +0.000 N 
ATOM     39  C   UNL     1      -5.438  -2.378 135.754  0.00  0.00    +0.000 C 
ATOM     40  O   UNL     1      -6.614  -2.643 135.703  0.00  0.00    +0.000 OA
ATOM     41  H   UNL     1      -3.688  -2.458 134.705  0.00  0.00    +0.000 HD
BRANCH  38  42
ATOM     42  C   UNL     1      -5.184  -3.602 133.804  0.00  0.00    +0.000 C 
BRANCH  42  44
ATOM     43  N   UNL     1      -6.448  -5.772 135.747  0.00  0.00    +0.000 N 
ATOM     44  C   UNL     1      -6.003  -5.112 134.038  0.00  0.00    +0.000 C 
ATOM     45  O   UNL     1      -5.895  -5.995 133.035  0.00  0.00    +0.000 OA
ATOM     46  H   UNL     1      -6.389  -4.898 136.185  0.00  0.00    +0.000 HD
BRANCH  43  47
ATOM     47  C   UNL     1      -7.889  -6.545 135.903  0.00  0.00    +0.000 C 
BRANCH  47  49
ATOM     48  N   UNL     1      -9.899  -5.611 135.927  0.00  0.00    +0.000 N 
ATOM     49  C   UNL     1      -8.698  -5.613 136.502  0.00  0.00    +0.000 C 
ATOM     50  O   UNL     1      -8.307  -4.964 137.440  0.00  0.00    +0.000 OA
ATOM     51  H   UNL     1     -10.566  -4.974 136.307  0.00  0.00    +0.000 HD
ATOM     52  H   UNL     1     -10.185  -6.207 135.159  0.00  0.00    +0.000 HD
ENDBRANCH  47  49
ENDBRANCH  43  47
ENDBRANCH  42  44
BRANCH  42  53
ATOM     53  C   UNL     1      -3.925  -3.699 133.617  0.00  0.00    +0.000 C 
BRANCH  53  54
ATOM     54  C   UNL     1      -2.677  -5.040 134.515  0.00  0.00    +0.000 C 
BRANCH  54  55
ATOM     55  C   UNL     1      -1.527  -4.103 135.469  0.00  0.00    +0.000 C 
BRANCH  55  56
ATOM     56  N   UNL     1      -0.495  -3.891 134.626  0.00  0.00    +0.000 NA
ATOM     57  C   UNL     1       0.656  -3.609 135.084  0.00  0.00    +0.000 C 
ATOM     58  N   UNL     1       1.030  -3.467 136.397  0.00  0.00    +0.000 N 
ATOM     59  N   UNL     1       1.625  -3.485 134.136  0.00  0.00    +0.000 N 
ATOM     60  H   UNL     1       0.384  -3.563 137.191  0.00  0.00    +0.000 HD
ATOM     61  H   UNL     1       1.929  -3.185 136.714  0.00  0.00    +0.000 HD
ATOM     62  H   UNL     1       1.421  -3.629 133.139  0.00  0.00    +0.000 HD
ATOM     63  H   UNL     1       2.585  -3.258 134.334  0.00  0.00    +0.000 HD
ENDBRANCH  55  56
ENDBRANCH  54  55
ENDBRANCH  53  54
ENDBRANCH  42  53
ENDBRANCH  38  42
ENDBRANCH  31  39
ENDBRANCH   1  36
BRANCH  10  64
ATOM     64  C   UNL     1      -4.792   2.226 126.183  0.00  0.00    +0.000 C 
BRANCH  64  65
ATOM     65  C   UNL     1      -4.216   3.390 126.729  0.00  0.00    +0.000 A 
ATOM     66  C   UNL     1      -2.945   3.195 127.151  0.00  0.00    +0.000 A 
ATOM     67  C   UNL     1      -2.204   4.231 127.609  0.00  0.00    +0.000 A 
ATOM     68  C   UNL     1      -2.769   5.481 127.641  0.00  0.00    +0.000 A 
ATOM     69  C   UNL     1      -4.076   5.672 127.237  0.00  0.00    +0.000 A 
ATOM     70  C   UNL     1      -4.817   4.620 126.767  0.00  0.00    +0.000 A 
BRANCH  68  71
ATOM     71  O   UNL     1      -2.112   6.589 128.069  0.00  0.00    +0.000 OA
ATOM     72  H   UNL     1      -2.072   7.314 127.427  0.00  0.00    +0.000 HD
ENDBRANCH  68  71
ENDBRANCH  64  65
ENDBRANCH  10  64
BRANCH  14  73
ATOM     73  C   UNL     1      -7.673   2.398 128.940  0.00  0.00    +0.000 C 
BRANCH  73  74
ATOM     74  C   UNL     1      -8.607   3.512 129.149  0.00  0.00    +0.000 A 
ATOM     75  C   UNL     1      -8.549   4.890 128.838  0.00  0.00    +0.000 A 
ATOM     76  C   UNL     1      -9.254   5.696 129.598  0.00  0.00    +0.000 A 
ATOM     77  C   UNL     1     -10.225   5.182 130.383  0.00  0.00    +0.000 A 
ATOM     78  C   UNL     1     -10.330   3.842 130.552  0.00  0.00    +0.000 A 
ATOM     79  C   UNL     1      -9.578   3.008 129.868  0.00  0.00    +0.000 A 
ENDBRANCH  73  74
ENDBRANCH  14  73
BRANCH  18  80
ATOM     80  C   UNL     1      -5.569  -1.310 130.796  0.00  0.00    +0.000 C 
BRANCH  80  81
ATOM     81  C   UNL     1      -4.402  -1.973 130.446  0.00  0.00    +0.000 A 
ATOM     82  C   UNL     1      -3.105  -1.606 130.621  0.00  0.00    +0.000 A 
ATOM     83  C   UNL     1      -2.447  -2.224 129.675  0.00  0.00    +0.000 A 
ATOM     84  C   UNL     1      -2.925  -3.367 129.090  0.00  0.00    +0.000 A 
ATOM     85  C   UNL     1      -4.180  -3.801 129.312  0.00  0.00    +0.000 A 
ATOM     86  C   UNL     1      -4.936  -3.137 130.098  0.00  0.00    +0.000 A 
ENDBRANCH  80  81
ENDBRANCH  18  80
BRANCH  22  87
ATOM     87  C   UNL     1      -4.132   0.741 134.185  0.00  0.00    +0.000 C 
BRANCH  87  88
ATOM     88  C   UNL     1      -2.764   0.778 133.963  0.00  0.00    +0.000 C 
ATOM     89  N   UNL     1      -2.115  -0.316 134.317  0.00  0.00    +0.000 N 
ATOM     90  O   UNL     1      -2.218   1.681 133.381  0.00  0.00    +0.000 OA
ATOM     91  H   UNL     1      -2.382  -1.121 134.813  0.00  0.00    +0.000 HD
ATOM     92  H   UNL     1      -1.146  -0.391 134.393  0.00  0.00    +0.000 HD
ENDBRANCH  87  88
ENDBRANCH  22  87
TORSDOF 19
ENDMDL
MODEL 5
REMARK VINA RESULT:      -9.5      5.552      9.475
REMARK  Name = CHEMBL2369847
REMARK  19 active torsions:
REMARK  status: ('A' for Active; 'I' for Inactive)
REMARK    1  A    between atoms: C_2  and  C_4
REMARK    2  A    between atoms: C_4  and  N_5
REMARK    3  A    between atoms: C_6  and  C_8
REMARK    4  A    between atoms: C_8  and  C_9
REMARK    5  A    between atoms: C_8  and  N_16
REMARK    6  A    between atoms: C_9  and  C_10
REMARK    7  A    between atoms: C_10  and  C_11
REMARK    8  A    between atoms: C_11  and  N_12
REMARK    9  A    between atoms: C_17  and  C_19
REMARK   10  A    between atoms: C_24  and  C_26
REMARK   11  A    between atoms: C_35  and  C_36
REMARK   12  A    between atoms: C_36  and  C_37
REMARK   13  A    between atoms: C_40  and  O_41
REMARK   14  A    between atoms: C_47  and  C_48
REMARK   15  A    between atoms: C_48  and  C_49
REMARK   16  A    between atoms: C_58  and  C_59
REMARK   17  A    between atoms: C_59  and  C_60
REMARK   18  A    between atoms: C_69  and  C_70
REMARK   19  A    between atoms: C_70  and  C_71
REMARK                            x       y       z     vdW  Elec       q    Type
REMARK                         _______ _______ _______ _____ _____    ______ ____
ROOT
ATOM      1  C   UNL     1      -6.287   5.714 135.137  0.00  0.00    +0.000 C 
ATOM      2  C   UNL     1      -5.294   7.650 136.291  0.00  0.00    +0.000 C 
ATOM      3  S   UNL     1      -3.556   9.401 137.623  0.00  0.00    +0.000 S 
ATOM      4  S   UNL     1      -1.869  10.868 139.385  0.00  0.00    +0.000 S 
ATOM      5  C   UNL     1      -0.167   9.981 140.200  0.00  0.00    +0.000 C 
ATOM      6  C   UNL     1       0.624   9.670 141.470  0.00  0.00    +0.000 C 
ATOM      7  C   UNL     1       1.276   8.271 141.583  0.00  0.00    +0.000 C 
ATOM      8  O   UNL     1       2.071   8.019 142.491  0.00  0.00    +0.000 OA
ATOM      9  N   UNL     1       0.912   7.305 140.684  0.00  0.00    +0.000 N 
ATOM     10  C   UNL     1       0.016   7.489 139.564  0.00  0.00    +0.000 C 
ATOM     11  C   UNL     1      -1.484   7.748 140.262  0.00  0.00    +0.000 C 
ATOM     12  O   UNL     1      -1.799   8.555 141.164  0.00  0.00    +0.000 OA
ATOM     13  N   UNL     1      -2.534   7.288 139.718  0.00  0.00    +0.000 N 
ATOM     14  C   UNL     1      -2.419   6.271 138.903  0.00  0.00    +0.000 C 
ATOM     15  C   UNL     1      -1.951   6.705 137.381  0.00  0.00    +0.000 C 
ATOM     16  O   UNL     1      -0.971   7.358 137.022  0.00  0.00    +0.000 OA
ATOM     17  N   UNL     1      -2.302   6.224 136.303  0.00  0.00    +0.000 N 
ATOM     18  C   UNL     1      -3.392   5.755 136.444  0.00  0.00    +0.000 C 
ATOM     19  C   UNL     1      -3.018   4.250 136.813  0.00  0.00    +0.000 C 
ATOM     20  O   UNL     1      -2.954   4.308 138.036  0.00  0.00    +0.000 OA
ATOM     21  N   UNL     1      -3.696   2.755 135.979  0.00  0.00    +0.000 N 
ATOM     22  C   UNL     1      -4.852   2.944 134.933  0.00  0.00    +0.000 C 
ATOM     23  C   UNL     1      -6.437   4.122 135.875  0.00  0.00    +0.000 C 
ATOM     24  O   UNL     1      -6.491   5.142 136.750  0.00  0.00    +0.000 OA
ATOM     25  N   UNL     1      -7.339   4.375 134.969  0.00  0.00    +0.000 N 
ATOM     26  H   UNL     1       1.388   6.407 140.679  0.00  0.00    +0.000 HD
ATOM     27  H   UNL     1      -3.416   7.403 140.163  0.00  0.00    +0.000 HD
ATOM     28  H   UNL     1      -2.201   6.480 135.386  0.00  0.00    +0.000 HD
ATOM     29  H   UNL     1      -3.961   1.921 136.415  0.00  0.00    +0.000 HD
ATOM     30  H   UNL     1      -8.296   3.952 134.674  0.00  0.00    +0.000 HD
ENDROOT
BRANCH   1  36
ATOM     31  C   UNL     1      -7.128   2.009 131.124  0.00  0.00    +0.000 C 
ATOM     32  C   UNL     1      -8.552   1.786 130.422  0.00  0.00    +0.000 C 
ATOM     33  C   UNL     1      -8.643   0.343 130.199  0.00  0.00    +0.000 C 
ATOM     34  C   UNL     1      -7.609   0.086 131.849  0.00  0.00    +0.000 C 
ATOM     35  N   UNL     1      -6.706   1.710 132.933  0.00  0.00    +0.000 N 
ATOM     36  C   UNL     1      -6.530   3.304 134.342  0.00  0.00    +0.000 C 
ATOM     37  O   UNL     1      -6.347   1.840 134.509  0.00  0.00    +0.000 OA
BRANCH  31  39
ATOM     38  N   UNL     1      -5.605   3.778 131.311  0.00  0.00    +0.000 N 
ATOM     39  C   UNL     1      -6.736   3.240 131.559  0.00  0.00    +0.000 C 
ATOM     40  O   UNL     1      -7.593   3.921 132.065  0.00  0.00    +0.000 OA
ATOM     41  H   UNL     1      -4.810   3.259 130.881  0.00  0.00    +0.000 HD
BRANCH  38  42
ATOM     42  C   UNL     1      -5.520   5.188 131.249  0.00  0.00    +0.000 C 
BRANCH  42  44
ATOM     43  N   UNL     1      -8.446   5.903 130.245  0.00  0.00    +0.000 N 
ATOM     44  C   UNL     1      -6.710   6.370 130.813  0.00  0.00    +0.000 C 
ATOM     45  O   UNL     1      -6.234   7.569 130.446  0.00  0.00    +0.000 OA
ATOM     46  H   UNL     1      -8.418   5.007 130.640  0.00  0.00    +0.000 HD
BRANCH  43  47
ATOM     47  C   UNL     1      -9.685   6.857 130.747  0.00  0.00    +0.000 C 
BRANCH  47  49
ATOM     48  N   UNL     1     -10.423   4.825 131.230  0.00  0.00    +0.000 N 
ATOM     49  C   UNL     1     -10.346   6.081 131.663  0.00  0.00    +0.000 C 
ATOM     50  O   UNL     1     -10.731   6.547 132.708  0.00  0.00    +0.000 OA
ATOM     51  H   UNL     1     -10.875   4.177 131.840  0.00  0.00    +0.000 HD
ATOM     52  H   UNL     1     -10.050   4.480 130.353  0.00  0.00    +0.000 HD
ENDBRANCH  47  49
ENDBRANCH  43  47
ENDBRANCH  42  44
BRANCH  42  53
ATOM     53  C   UNL     1      -4.716   4.865 130.312  0.00  0.00    +0.000 C 
BRANCH  53  54
ATOM     54  C   UNL     1      -3.188   6.009 129.592  0.00  0.00    +0.000 C 
BRANCH  54  55
ATOM     55  C   UNL     1      -3.108   5.715 127.855  0.00  0.00    +0.000 C 
BRANCH  55  56
ATOM     56  N   UNL     1      -2.298   4.642 127.740  0.00  0.00    +0.000 NA
ATOM     57  C   UNL     1      -2.598   3.698 126.945  0.00  0.00    +0.000 C 
ATOM     58  N   UNL     1      -3.704   3.595 126.138  0.00  0.00    +0.000 N 
ATOM     59  N   UNL     1      -1.668   2.707 126.868  0.00  0.00    +0.000 N 
ATOM     60  H   UNL     1      -4.455   4.297 126.100  0.00  0.00    +0.000 HD
ATOM     61  H   UNL     1      -3.935   2.810 125.574  0.00  0.00    +0.000 HD
ATOM     62  H   UNL     1      -0.795   2.750 127.409  0.00  0.00    +0.000 HD
ATOM     63  H   UNL     1      -1.760   1.889 126.291  0.00  0.00    +0.000 HD
ENDBRANCH  55  56
ENDBRANCH  54  55
ENDBRANCH  53  54
ENDBRANCH  42  53
ENDBRANCH  38  42
ENDBRANCH  31  39
ENDBRANCH   1  36
BRANCH  10  64
ATOM     64  C   UNL     1       0.152   6.331 138.727  0.00  0.00    +0.000 C 
BRANCH  64  65
ATOM     65  C   UNL     1       1.347   5.663 138.398  0.00  0.00    +0.000 A 
ATOM     66  C   UNL     1       1.357   4.375 138.815  0.00  0.00    +0.000 A 
ATOM     67  C   UNL     1       2.383   3.554 138.494  0.00  0.00    +0.000 A 
ATOM     68  C   UNL     1       3.416   4.055 137.742  0.00  0.00    +0.000 A 
ATOM     69  C   UNL     1       3.418   5.377 137.343  0.00  0.00    +0.000 A 
ATOM     70  C   UNL     1       2.371   6.200 137.664  0.00  0.00    +0.000 A 
BRANCH  68  71
ATOM     71  O   UNL     1       4.487   3.316 137.355  0.00  0.00    +0.000 OA
ATOM     72  H   UNL     1       5.339   3.776 137.402  0.00  0.00    +0.000 HD
ENDBRANCH  68  71
ENDBRANCH  64  65
ENDBRANCH  10  64
BRANCH  14  73
ATOM     73  C   UNL     1      -3.781   5.785 139.139  0.00  0.00    +0.000 C 
BRANCH  73  74
ATOM     74  C   UNL     1      -4.559   5.635 140.376  0.00  0.00    +0.000 A 
ATOM     75  C   UNL     1      -4.243   5.138 141.661  0.00  0.00    +0.000 A 
ATOM     76  C   UNL     1      -5.237   4.643 142.362  0.00  0.00    +0.000 A 
ATOM     77  C   UNL     1      -6.506   4.924 141.998  0.00  0.00    +0.000 A 
ATOM     78  C   UNL     1      -6.760   5.524 140.811  0.00  0.00    +0.000 A 
ATOM     79  C   UNL     1      -5.785   5.955 140.043  0.00  0.00    +0.000 A 
ENDBRANCH  73  74
ENDBRANCH  14  73
BRANCH  18  80
ATOM     80  C   UNL     1      -3.877   5.869 134.492  0.00  0.00    +0.000 C 
BRANCH  80  81
ATOM     81  C   UNL     1      -2.858   5.943 133.554  0.00  0.00    +0.000 A 
ATOM     82  C   UNL     1      -2.074   4.960 133.038  0.00  0.00    +0.000 A 
ATOM     83  C   UNL     1      -0.969   5.560 132.677  0.00  0.00    +0.000 A 
ATOM     84  C   UNL     1      -0.935   6.899 132.390  0.00  0.00    +0.000 A 
ATOM     85  C   UNL     1      -1.981   7.704 132.655  0.00  0.00    +0.000 A 
ATOM     86  C   UNL     1      -3.035   7.202 133.172  0.00  0.00    +0.000 A 
ENDBRANCH  80  81
ENDBRANCH  18  80
BRANCH  22  87
ATOM     87  C   UNL     1      -4.764   1.771 134.068  0.00  0.00    +0.000 C 
BRANCH  87  88
ATOM     88  C   UNL     1      -3.661   1.422 133.304  0.00  0.00    +0.000 C 
ATOM     89  N   UNL     1      -2.940   0.429 133.792  0.00  0.00    +0.000 N 
ATOM     90  O   UNL     1      -3.439   1.896 132.217  0.00  0.00    +0.000 OA
ATOM     91  H   UNL     1      -2.956  -0.049 134.649  0.00  0.00    +0.000 HD
ATOM     92  H   UNL     1      -2.052   0.178 133.480  0.00  0.00    +0.000 HD
ENDBRANCH  87  88
ENDBRANCH  22  87
TORSDOF 19
ENDMDL
MODEL 6
REMARK VINA RESULT:      -9.3      4.122      9.288
REMARK  Name = CHEMBL2369847
REMARK  19 active torsions:
REMARK  status: ('A' for Active; 'I' for Inactive)
REMARK    1  A    between atoms: C_2  and  C_4
REMARK    2  A    between atoms: C_4  and  N_5
REMARK    3  A    between atoms: C_6  and  C_8
REMARK    4  A    between atoms: C_8  and  C_9
REMARK    5  A    between atoms: C_8  and  N_16
REMARK    6  A    between atoms: C_9  and  C_10
REMARK    7  A    between atoms: C_10  and  C_11
REMARK    8  A    between atoms: C_11  and  N_12
REMARK    9  A    between atoms: C_17  and  C_19
REMARK   10  A    between atoms: C_24  and  C_26
REMARK   11  A    between atoms: C_35  and  C_36
REMARK   12  A    between atoms: C_36  and  C_37
REMARK   13  A    between atoms: C_40  and  O_41
REMARK   14  A    between atoms: C_47  and  C_48
REMARK   15  A    between atoms: C_48  and  C_49
REMARK   16  A    between atoms: C_58  and  C_59
REMARK   17  A    between atoms: C_59  and  C_60
REMARK   18  A    between atoms: C_69  and  C_70
REMARK   19  A    between atoms: C_70  and  C_71
REMARK                            x       y       z     vdW  Elec       q    Type
REMARK                         _______ _______ _______ _____ _____    ______ ____
ROOT
ATOM      1  C   UNL     1      -5.461   2.147 133.493  0.00  0.00    +0.000 C 
ATOM      2  C   UNL     1      -4.643   0.406 131.956  0.00  0.00    +0.000 C 
ATOM      3  S   UNL     1      -4.191  -1.237 129.730  0.00  0.00    +0.000 S 
ATOM      4  S   UNL     1      -4.198  -3.104 127.582  0.00  0.00    +0.000 S 
ATOM      5  C   UNL     1      -5.641  -2.981 126.080  0.00  0.00    +0.000 C 
ATOM      6  C   UNL     1      -6.709  -3.720 125.276  0.00  0.00    +0.000 C 
ATOM      7  C   UNL     1      -8.028  -2.969 124.978  0.00  0.00    +0.000 C 
ATOM      8  O   UNL     1      -8.853  -3.434 124.189  0.00  0.00    +0.000 OA
ATOM      9  N   UNL     1      -8.283  -1.802 125.648  0.00  0.00    +0.000 N 
ATOM     10  C   UNL     1      -7.383  -1.146 126.570  0.00  0.00    +0.000 C 
ATOM     11  C   UNL     1      -7.311  -2.172 127.891  0.00  0.00    +0.000 C 
ATOM     12  O   UNL     1      -7.082  -3.402 127.916  0.00  0.00    +0.000 OA
ATOM     13  N   UNL     1      -7.231  -1.702 129.067  0.00  0.00    +0.000 N 
ATOM     14  C   UNL     1      -7.648  -0.480 129.278  0.00  0.00    +0.000 C 
ATOM     15  C   UNL     1      -6.540   0.669 128.861  0.00  0.00    +0.000 C 
ATOM     16  O   UNL     1      -5.961   0.840 127.787  0.00  0.00    +0.000 OA
ATOM     17  N   UNL     1      -6.299   1.741 129.416  0.00  0.00    +0.000 N 
ATOM     18  C   UNL     1      -6.590   1.635 130.569  0.00  0.00    +0.000 C 
ATOM     19  C   UNL     1      -8.092   2.169 130.542  0.00  0.00    +0.000 C 
ATOM     20  O   UNL     1      -8.716   1.131 130.353  0.00  0.00    +0.000 OA
ATOM     21  N   UNL     1      -8.769   3.485 131.637  0.00  0.00    +0.000 N 
ATOM     22  C   UNL     1      -7.865   4.024 132.803  0.00  0.00    +0.000 C 
ATOM     23  C   UNL     1      -7.152   2.308 133.959  0.00  0.00    +0.000 C 
ATOM     24  O   UNL     1      -6.774   1.047 133.682  0.00  0.00    +0.000 OA
ATOM     25  N   UNL     1      -6.310   2.749 134.852  0.00  0.00    +0.000 N 
ATOM     26  H   UNL     1      -9.096  -1.243 125.407  0.00  0.00    +0.000 HD
ATOM     27  H   UNL     1      -7.237  -2.315 129.850  0.00  0.00    +0.000 HD
ATOM     28  H   UNL     1      -5.607   2.399 129.339  0.00  0.00    +0.000 HD
ATOM     29  H   UNL     1      -9.653   3.489 132.057  0.00  0.00    +0.000 HD
ATOM     30  H   UNL     1      -6.349   3.012 135.905  0.00  0.00    +0.000 HD
ENDROOT
BRANCH   1  36
ATOM     31  C   UNL     1      -6.218   6.908 136.197  0.00  0.00    +0.000 C 
ATOM     32  C   UNL     1      -6.061   7.047 137.786  0.00  0.00    +0.000 C 
ATOM     33  C   UNL     1      -7.116   7.976 138.191  0.00  0.00    +0.000 C 
ATOM     34  C   UNL     1      -8.228   7.247 136.745  0.00  0.00    +0.000 C 
ATOM     35  N   UNL     1      -7.483   5.862 135.278  0.00  0.00    +0.000 N 
ATOM     36  C   UNL     1      -6.984   3.985 134.390  0.00  0.00    +0.000 C 
ATOM     37  O   UNL     1      -8.267   4.732 134.418  0.00  0.00    +0.000 OA
BRANCH  31  39
ATOM     38  N   UNL     1      -5.064   6.226 134.276  0.00  0.00    +0.000 N 
ATOM     39  C   UNL     1      -5.444   6.043 135.480  0.00  0.00    +0.000 C 
ATOM     40  O   UNL     1      -4.955   5.132 136.101  0.00  0.00    +0.000 OA
ATOM     41  H   UNL     1      -5.441   6.987 133.670  0.00  0.00    +0.000 HD
BRANCH  38  42
ATOM     42  C   UNL     1      -3.842   5.656 133.852  0.00  0.00    +0.000 C 
BRANCH  42  44
ATOM     43  N   UNL     1      -1.750   7.482 135.392  0.00  0.00    +0.000 N 
ATOM     44  C   UNL     1      -2.215   5.980 134.352  0.00  0.00    +0.000 C 
ATOM     45  O   UNL     1      -1.253   5.413 133.608  0.00  0.00    +0.000 OA
ATOM     46  H   UNL     1      -2.660   7.627 135.727  0.00  0.00    +0.000 HD
BRANCH  43  47
ATOM     47  C   UNL     1      -0.599   7.272 136.544  0.00  0.00    +0.000 C 
BRANCH  47  49
ATOM     48  N   UNL     1       0.836   8.959 136.607  0.00  0.00    +0.000 N 
ATOM     49  C   UNL     1       0.526   7.822 135.988  0.00  0.00    +0.000 C 
ATOM     50  O   UNL     1       1.114   7.262 135.095  0.00  0.00    +0.000 OA
ATOM     51  H   UNL     1       1.655   9.427 136.282  0.00  0.00    +0.000 HD
ATOM     52  H   UNL     1       0.323   9.368 137.379  0.00  0.00    +0.000 HD
ENDBRANCH  47  49
ENDBRANCH  43  47
ENDBRANCH  42  44
BRANCH  42  53
ATOM     53  C   UNL     1      -4.204   6.253 132.783  0.00  0.00    +0.000 C 
BRANCH  53  54
ATOM     54  C   UNL     1      -2.968   7.164 131.440  0.00  0.00    +0.000 C 
BRANCH  54  55
ATOM     55  C   UNL     1      -3.091   8.899 131.733  0.00  0.00    +0.000 C 
BRANCH  55  56
ATOM     56  N   UNL     1      -2.115   9.152 132.629  0.00  0.00    +0.000 NA
ATOM     57  C   UNL     1      -1.818  10.350 132.929  0.00  0.00    +0.000 C 
ATOM     58  N   UNL     1      -2.372  11.505 132.436  0.00  0.00    +0.000 N 
ATOM     59  N   UNL     1      -0.866  10.471 133.894  0.00  0.00    +0.000 N 
ATOM     60  H   UNL     1      -3.114  11.527 131.724  0.00  0.00    +0.000 HD
ATOM     61  H   UNL     1      -2.071  12.427 132.651  0.00  0.00    +0.000 HD
ATOM     62  H   UNL     1      -0.447   9.644 134.340  0.00  0.00    +0.000 HD
ATOM     63  H   UNL     1      -0.516  11.349 134.238  0.00  0.00    +0.000 HD
ENDBRANCH  55  56
ENDBRANCH  54  55
ENDBRANCH  53  54
ENDBRANCH  42  53
ENDBRANCH  38  42
ENDBRANCH  31  39
ENDBRANCH   1  36
BRANCH  10  64
ATOM     64  C   UNL     1      -7.908   0.170 126.798  0.00  0.00    +0.000 C 
BRANCH  64  65
ATOM     65  C   UNL     1      -8.210   1.140 125.822  0.00  0.00    +0.000 A 
ATOM     66  C   UNL     1      -7.111   1.793 125.378  0.00  0.00    +0.000 A 
ATOM     67  C   UNL     1      -7.202   2.686 124.366  0.00  0.00    +0.000 A 
ATOM     68  C   UNL     1      -8.431   2.919 123.802  0.00  0.00    +0.000 A 
ATOM     69  C   UNL     1      -9.556   2.273 124.277  0.00  0.00    +0.000 A 
ATOM     70  C   UNL     1      -9.455   1.364 125.296  0.00  0.00    +0.000 A 
BRANCH  68  71
ATOM     71  O   UNL     1      -8.632   3.784 122.776  0.00  0.00    +0.000 OA
ATOM     72  H   UNL     1      -9.161   4.566 122.998  0.00  0.00    +0.000 HD
ENDBRANCH  68  71
ENDBRANCH  64  65
ENDBRANCH  10  64
BRANCH  14  73
ATOM     73  C   UNL     1      -7.963  -0.713 130.690  0.00  0.00    +0.000 C 
BRANCH  73  74
ATOM     74  C   UNL     1      -7.447  -1.696 131.653  0.00  0.00    +0.000 A 
ATOM     75  C   UNL     1      -6.511  -2.750 131.547  0.00  0.00    +0.000 A 
ATOM     76  C   UNL     1      -6.655  -3.751 132.384  0.00  0.00    +0.000 A 
ATOM     77  C   UNL     1      -7.428  -3.591 133.479  0.00  0.00    +0.000 A 
ATOM     78  C   UNL     1      -8.216  -2.496 133.605  0.00  0.00    +0.000 A 
ATOM     79  C   UNL     1      -8.159  -1.512 132.736  0.00  0.00    +0.000 A 
ENDBRANCH  73  74
ENDBRANCH  14  73
BRANCH  18  80
ATOM     80  C   UNL     1      -5.364   3.109 131.188  0.00  0.00    +0.000 C 
BRANCH  80  81
ATOM     81  C   UNL     1      -4.906   4.032 130.259  0.00  0.00    +0.000 A 
ATOM     82  C   UNL     1      -5.554   5.071 129.670  0.00  0.00    +0.000 A 
ATOM     83  C   UNL     1      -4.939   5.254 128.530  0.00  0.00    +0.000 A 
ATOM     84  C   UNL     1      -3.642   4.854 128.337  0.00  0.00    +0.000 A 
ATOM     85  C   UNL     1      -3.003   4.078 129.233  0.00  0.00    +0.000 A 
ATOM     86  C   UNL     1      -3.616   3.720 130.294  0.00  0.00    +0.000 A 
ENDBRANCH  80  81
ENDBRANCH  18  80
BRANCH  22  87
ATOM     87  C   UNL     1      -8.379   5.360 133.084  0.00  0.00    +0.000 C 
BRANCH  87  88
ATOM     88  C   UNL     1      -9.309   6.039 132.310  0.00  0.00    +0.000 C 
ATOM     89  N   UNL     1     -10.537   6.043 132.794  0.00  0.00    +0.000 N 
ATOM     90  O   UNL     1      -9.007   6.682 131.335  0.00  0.00    +0.000 OA
ATOM     91  H   UNL     1     -10.962   5.569 133.541  0.00  0.00    +0.000 HD
ATOM     92  H   UNL     1     -11.331   6.317 132.301  0.00  0.00    +0.000 HD
ENDBRANCH  87  88
ENDBRANCH  22  87
TORSDOF 19
ENDMDL
MODEL 7
REMARK VINA RESULT:      -9.2      4.506     10.177
REMARK  Name = CHEMBL2369847
REMARK  19 active torsions:
REMARK  status: ('A' for Active; 'I' for Inactive)
REMARK    1  A    between atoms: C_2  and  C_4
REMARK    2  A    between atoms: C_4  and  N_5
REMARK    3  A    between atoms: C_6  and  C_8
REMARK    4  A    between atoms: C_8  and  C_9
REMARK    5  A    between atoms: C_8  and  N_16
REMARK    6  A    between atoms: C_9  and  C_10
REMARK    7  A    between atoms: C_10  and  C_11
REMARK    8  A    between atoms: C_11  and  N_12
REMARK    9  A    between atoms: C_17  and  C_19
REMARK   10  A    between atoms: C_24  and  C_26
REMARK   11  A    between atoms: C_35  and  C_36
REMARK   12  A    between atoms: C_36  and  C_37
REMARK   13  A    between atoms: C_40  and  O_41
REMARK   14  A    between atoms: C_47  and  C_48
REMARK   15  A    between atoms: C_48  and  C_49
REMARK   16  A    between atoms: C_58  and  C_59
REMARK   17  A    between atoms: C_59  and  C_60
REMARK   18  A    between atoms: C_69  and  C_70
REMARK   19  A    between atoms: C_70  and  C_71
REMARK                            x       y       z     vdW  Elec       q    Type
REMARK                         _______ _______ _______ _____ _____    ______ ____
ROOT
ATOM      1  C   UNL     1      -4.019   4.226 136.130  0.00  0.00    +0.000 C 
ATOM      2  C   UNL     1      -3.423   3.546 133.839  0.00  0.00    +0.000 C 
ATOM      3  S   UNL     1      -3.318   3.233 131.055  0.00  0.00    +0.000 S 
ATOM      4  S   UNL     1      -3.640   2.630 128.292  0.00  0.00    +0.000 S 
ATOM      5  C   UNL     1      -5.337   3.268 127.262  0.00  0.00    +0.000 C 
ATOM      6  C   UNL     1      -6.502   2.872 126.357  0.00  0.00    +0.000 C 
ATOM      7  C   UNL     1      -7.885   3.500 126.654  0.00  0.00    +0.000 C 
ATOM      8  O   UNL     1      -8.820   3.365 125.862  0.00  0.00    +0.000 OA
ATOM      9  N   UNL     1      -8.062   4.164 127.838  0.00  0.00    +0.000 N 
ATOM     10  C   UNL     1      -7.037   4.410 128.828  0.00  0.00    +0.000 C 
ATOM     11  C   UNL     1      -6.679   2.898 129.451  0.00  0.00    +0.000 C 
ATOM     12  O   UNL     1      -6.398   1.845 128.836  0.00  0.00    +0.000 OA
ATOM     13  N   UNL     1      -6.405   2.757 130.681  0.00  0.00    +0.000 N 
ATOM     14  C   UNL     1      -6.828   3.667 131.521  0.00  0.00    +0.000 C 
ATOM     15  C   UNL     1      -5.866   5.007 131.571  0.00  0.00    +0.000 C 
ATOM     16  O   UNL     1      -5.502   5.740 130.651  0.00  0.00    +0.000 OA
ATOM     17  N   UNL     1      -5.573   5.707 132.541  0.00  0.00    +0.000 N 
ATOM     18  C   UNL     1      -5.643   5.028 133.522  0.00  0.00    +0.000 C 
ATOM     19  C   UNL     1      -7.146   5.315 133.969  0.00  0.00    +0.000 C 
ATOM     20  O   UNL     1      -7.749   4.422 133.385  0.00  0.00    +0.000 OA
ATOM     21  N   UNL     1      -7.665   5.853 135.652  0.00  0.00    +0.000 N 
ATOM     22  C   UNL     1      -6.586   5.882 136.793  0.00  0.00    +0.000 C 
ATOM     23  C   UNL     1      -5.600   3.930 136.845  0.00  0.00    +0.000 C 
ATOM     24  O   UNL     1      -5.226   3.012 135.936  0.00  0.00    +0.000 OA
ATOM     25  N   UNL     1      -4.628   3.996 137.712  0.00  0.00    +0.000 N 
ATOM     26  H   UNL     1      -8.929   4.662 128.019  0.00  0.00    +0.000 HD
ATOM     27  H   UNL     1      -6.241   1.850 131.054  0.00  0.00    +0.000 HD
ATOM     28  H   UNL     1      -4.936   6.403 132.701  0.00  0.00    +0.000 HD
ATOM     29  H   UNL     1      -8.456   5.545 136.138  0.00  0.00    +0.000 HD
ATOM     30  H   UNL     1      -4.484   3.718 138.753  0.00  0.00    +0.000 HD
ENDROOT
BRANCH   1  36
ATOM     31  C   UNL     1      -4.527   7.329 140.675  0.00  0.00    +0.000 C 
ATOM     32  C   UNL     1      -3.943   6.893 142.103  0.00  0.00    +0.000 C 
ATOM     33  C   UNL     1      -4.941   7.343 143.074  0.00  0.00    +0.000 C 
ATOM     34  C   UNL     1      -6.324   6.982 141.727  0.00  0.00    +0.000 C 
ATOM     35  N   UNL     1      -5.871   6.450 139.693  0.00  0.00    +0.000 N 
ATOM     36  C   UNL     1      -5.428   5.206 138.015  0.00  0.00    +0.000 C 
ATOM     37  O   UNL     1      -6.728   5.582 138.626  0.00  0.00    +0.000 OA
BRANCH  31  39
ATOM     38  N   UNL     1      -3.737   7.767 138.514  0.00  0.00    +0.000 N 
ATOM     39  C   UNL     1      -3.894   6.991 139.516  0.00  0.00    +0.000 C 
ATOM     40  O   UNL     1      -3.299   5.942 139.524  0.00  0.00    +0.000 OA
ATOM     41  H   UNL     1      -4.218   8.688 138.427  0.00  0.00    +0.000 HD
BRANCH  38  42
ATOM     42  C   UNL     1      -2.610   7.585 137.681  0.00  0.00    +0.000 C 
BRANCH  42  44
ATOM     43  N   UNL     1       0.339   6.512 137.199  0.00  0.00    +0.000 N 
ATOM     44  C   UNL     1      -0.918   7.631 138.049  0.00  0.00    +0.000 C 
ATOM     45  O   UNL     1      -0.596   8.132 139.250  0.00  0.00    +0.000 OA
ATOM     46  H   UNL     1      -0.236   6.323 136.428  0.00  0.00    +0.000 HD
BRANCH  43  47
ATOM     47  C   UNL     1       1.806   7.160 136.844  0.00  0.00    +0.000 C 
BRANCH  47  49
ATOM     48  N   UNL     1       2.117   5.089 137.568  0.00  0.00    +0.000 N 
ATOM     49  C   UNL     1       2.654   6.084 136.866  0.00  0.00    +0.000 C 
ATOM     50  O   UNL     1       3.701   6.107 136.266  0.00  0.00    +0.000 OA
ATOM     51  H   UNL     1       2.656   4.252 137.627  0.00  0.00    +0.000 HD
ATOM     52  H   UNL     1       1.213   5.112 138.025  0.00  0.00    +0.000 HD
ENDBRANCH  47  49
ENDBRANCH  43  47
ENDBRANCH  42  44
BRANCH  42  53
ATOM     53  C   UNL     1      -3.084   8.668 137.199  0.00  0.00    +0.000 C 
BRANCH  53  54
ATOM     54  C   UNL     1      -2.029  10.368 136.803  0.00  0.00    +0.000 C 
BRANCH  54  55
ATOM     55  C   UNL     1      -1.202  10.108 135.267  0.00  0.00    +0.000 C 
BRANCH  55  56
ATOM     56  N   UNL     1      -1.962  10.769 134.368  0.00  0.00    +0.000 NA
ATOM     57  C   UNL     1      -1.443  11.211 133.296  0.00  0.00    +0.000 C 
ATOM     58  N   UNL     1      -0.134  11.120 132.893  0.00  0.00    +0.000 N 
ATOM     59  N   UNL     1      -2.326  11.798 132.443  0.00  0.00    +0.000 N 
ATOM     60  H   UNL     1       0.609  10.676 133.449  0.00  0.00    +0.000 HD
ATOM     61  H   UNL     1       0.246  11.533 132.073  0.00  0.00    +0.000 HD
ATOM     62  H   UNL     1      -3.329  11.853 132.663  0.00  0.00    +0.000 HD
ATOM     63  H   UNL     1      -2.074  12.203 131.557  0.00  0.00    +0.000 HD
ENDBRANCH  55  56
ENDBRANCH  54  55
ENDBRANCH  53  54
ENDBRANCH  42  53
ENDBRANCH  38  42
ENDBRANCH  31  39
ENDBRANCH   1  36
BRANCH  10  64
ATOM     64  C   UNL     1      -7.568   5.380 129.743  0.00  0.00    +0.000 C 
BRANCH  64  65
ATOM     65  C   UNL     1      -8.927   5.659 129.984  0.00  0.00    +0.000 A 
ATOM     66  C   UNL     1      -9.229   6.967 129.813  0.00  0.00    +0.000 A 
ATOM     67  C   UNL     1     -10.509   7.396 129.903  0.00  0.00    +0.000 A 
ATOM     68  C   UNL     1     -11.493   6.480 130.176  0.00  0.00    +0.000 A 
ATOM     69  C   UNL     1     -11.178   5.150 130.379  0.00  0.00    +0.000 A 
ATOM     70  C   UNL     1      -9.881   4.722 130.278  0.00  0.00    +0.000 A 
BRANCH  68  71
ATOM     71  O   UNL     1     -12.808   6.800 130.276  0.00  0.00    +0.000 OA
ATOM     72  H   UNL     1     -13.154   7.339 129.548  0.00  0.00    +0.000 HD
ENDBRANCH  68  71
ENDBRANCH  64  65
ENDBRANCH  10  64
BRANCH  14  73
ATOM     73  C   UNL     1      -6.868   2.752 132.665  0.00  0.00    +0.000 C 
BRANCH  73  74
ATOM     74  C   UNL     1      -7.251   1.338 132.766  0.00  0.00    +0.000 A 
ATOM     75  C   UNL     1      -6.535   0.165 133.097  0.00  0.00    +0.000 A 
ATOM     76  C   UNL     1      -6.984  -0.961 132.595  0.00  0.00    +0.000 A 
ATOM     77  C   UNL     1      -8.237  -1.009 132.095  0.00  0.00    +0.000 A 
ATOM     78  C   UNL     1      -8.945   0.132 131.915  0.00  0.00    +0.000 A 
ATOM     79  C   UNL     1      -8.486   1.291 132.330  0.00  0.00    +0.000 A 
ENDBRANCH  73  74
ENDBRANCH  14  73
BRANCH  18  80
ATOM     80  C   UNL     1      -4.388   6.172 134.605  0.00  0.00    +0.000 C 
BRANCH  80  81
ATOM     81  C   UNL     1      -3.393   6.881 133.948  0.00  0.00    +0.000 A 
ATOM     82  C   UNL     1      -3.494   7.865 133.016  0.00  0.00    +0.000 A 
ATOM     83  C   UNL     1      -2.383   7.797 132.329  0.00  0.00    +0.000 A 
ATOM     84  C   UNL     1      -1.242   7.249 132.852  0.00  0.00    +0.000 A 
ATOM     85  C   UNL     1      -1.253   6.575 134.018  0.00  0.00    +0.000 A 
ATOM     86  C   UNL     1      -2.352   6.458 134.656  0.00  0.00    +0.000 A 
ENDBRANCH  80  81
ENDBRANCH  18  80
BRANCH  22  87
ATOM     87  C   UNL     1      -7.097   6.846 137.761  0.00  0.00    +0.000 C 
BRANCH  87  88
ATOM     88  C   UNL     1      -7.681   8.064 137.447  0.00  0.00    +0.000 C 
ATOM     89  N   UNL     1      -6.866   9.102 137.508  0.00  0.00    +0.000 N 
ATOM     90  O   UNL     1      -8.808   8.164 137.029  0.00  0.00    +0.000 OA
ATOM     91  H   UNL     1      -5.949   9.212 137.840  0.00  0.00    +0.000 HD
ATOM     92  H   UNL     1      -7.147  10.035 137.490  0.00  0.00    +0.000 HD
ENDBRANCH  87  88
ENDBRANCH  22  87
TORSDOF 19
ENDMDL
MODEL 8
REMARK VINA RESULT:      -9.2      4.651      8.986
REMARK  Name = CHEMBL2369847
REMARK  19 active torsions:
REMARK  status: ('A' for Active; 'I' for Inactive)
REMARK    1  A    between atoms: C_2  and  C_4
REMARK    2  A    between atoms: C_4  and  N_5
REMARK    3  A    between atoms: C_6  and  C_8
REMARK    4  A    between atoms: C_8  and  C_9
REMARK    5  A    between atoms: C_8  and  N_16
REMARK    6  A    between atoms: C_9  and  C_10
REMARK    7  A    between atoms: C_10  and  C_11
REMARK    8  A    between atoms: C_11  and  N_12
REMARK    9  A    between atoms: C_17  and  C_19
REMARK   10  A    between atoms: C_24  and  C_26
REMARK   11  A    between atoms: C_35  and  C_36
REMARK   12  A    between atoms: C_36  and  C_37
REMARK   13  A    between atoms: C_40  and  O_41
REMARK   14  A    between atoms: C_47  and  C_48
REMARK   15  A    between atoms: C_48  and  C_49
REMARK   16  A    between atoms: C_58  and  C_59
REMARK   17  A    between atoms: C_59  and  C_60
REMARK   18  A    between atoms: C_69  and  C_70
REMARK   19  A    between atoms: C_70  and  C_71
REMARK                            x       y       z     vdW  Elec       q    Type
REMARK                         _______ _______ _______ _____ _____    ______ ____
ROOT
ATOM      1  C   UNL     1      -3.915   7.763 132.896  0.00  0.00    +0.000 C 
ATOM      2  C   UNL     1      -5.747   6.142 132.608  0.00  0.00    +0.000 C 
ATOM      3  S   UNL     1      -7.307   3.813 132.536  0.00  0.00    +0.000 S 
ATOM      4  S   UNL     1      -8.605   1.328 132.046  0.00  0.00    +0.000 S 
ATOM      5  C   UNL     1      -7.537  -0.460 132.148  0.00  0.00    +0.000 C 
ATOM      6  C   UNL     1      -7.170  -1.767 131.447  0.00  0.00    +0.000 C 
ATOM      7  C   UNL     1      -5.705  -2.251 131.557  0.00  0.00    +0.000 C 
ATOM      8  O   UNL     1      -5.383  -3.377 131.171  0.00  0.00    +0.000 OA
ATOM      9  N   UNL     1      -4.763  -1.384 132.043  0.00  0.00    +0.000 N 
ATOM     10  C   UNL     1      -5.023  -0.055 132.551  0.00  0.00    +0.000 C 
ATOM     11  C   UNL     1      -5.491   0.826 131.206  0.00  0.00    +0.000 C 
ATOM     12  O   UNL     1      -6.361   0.547 130.351  0.00  0.00    +0.000 OA
ATOM     13  N   UNL     1      -5.150   2.042 131.083  0.00  0.00    +0.000 N 
ATOM     14  C   UNL     1      -4.101   2.464 131.742  0.00  0.00    +0.000 C 
ATOM     15  C   UNL     1      -4.423   2.826 133.319  0.00  0.00    +0.000 C 
ATOM     16  O   UNL     1      -4.935   2.124 134.192  0.00  0.00    +0.000 OA
ATOM     17  N   UNL     1      -3.955   3.732 134.010  0.00  0.00    +0.000 N 
ATOM     18  C   UNL     1      -3.633   4.624 133.283  0.00  0.00    +0.000 C 
ATOM     19  C   UNL     1      -2.105   4.250 133.021  0.00  0.00    +0.000 C 
ATOM     20  O   UNL     1      -2.194   3.549 132.020  0.00  0.00    +0.000 OA
ATOM     21  N   UNL     1      -0.682   5.397 133.241  0.00  0.00    +0.000 N 
ATOM     22  C   UNL     1      -0.981   6.907 133.552  0.00  0.00    +0.000 C 
ATOM     23  C   UNL     1      -2.380   7.648 132.042  0.00  0.00    +0.000 C 
ATOM     24  O   UNL     1      -3.427   7.142 131.364  0.00  0.00    +0.000 OA
ATOM     25  N   UNL     1      -2.716   8.864 132.370  0.00  0.00    +0.000 N 
ATOM     26  H   UNL     1      -3.813  -1.704 132.209  0.00  0.00    +0.000 HD
ATOM     27  H   UNL     1      -5.391   2.545 130.260  0.00  0.00    +0.000 HD
ATOM     28  H   UNL     1      -4.166   4.103 134.867  0.00  0.00    +0.000 HD
ATOM     29  H   UNL     1       0.098   5.468 132.655  0.00  0.00    +0.000 HD
ATOM     30  H   UNL     1      -2.408   9.867 132.088  0.00  0.00    +0.000 HD
ENDROOT
BRANCH   1  36
ATOM     31  C   UNL     1      -0.290  11.259 135.172  0.00  0.00    +0.000 C 
ATOM     32  C   UNL     1      -0.171  12.799 134.743  0.00  0.00    +0.000 C 
ATOM     33  C   UNL     1       1.261  13.094 134.785  0.00  0.00    +0.000 C 
ATOM     34  C   UNL     1       1.596  11.241 134.226  0.00  0.00    +0.000 C 
ATOM     35  N   UNL     1       0.043   9.759 134.086  0.00  0.00    +0.000 N 
ATOM     36  C   UNL     1      -1.531   8.605 133.221  0.00  0.00    +0.000 C 
ATOM     37  O   UNL     1      -0.057   8.437 133.153  0.00  0.00    +0.000 OA
BRANCH  31  39
ATOM     38  N   UNL     1      -1.852   9.728 136.010  0.00  0.00    +0.000 N 
ATOM     39  C   UNL     1      -1.490  10.610 135.162  0.00  0.00    +0.000 C 
ATOM     40  O   UNL     1      -2.316  11.037 134.394  0.00  0.00    +0.000 OA
ATOM     41  H   UNL     1      -1.200   9.304 136.704  0.00  0.00    +0.000 HD
BRANCH  38  42
ATOM     42  C   UNL     1      -3.229   9.583 136.297  0.00  0.00    +0.000 C 
BRANCH  42  44
ATOM     43  N   UNL     1      -6.107  10.149 137.512  0.00  0.00    +0.000 N 
ATOM     44  C   UNL     1      -4.256  10.476 137.369  0.00  0.00    +0.000 C 
ATOM     45  O   UNL     1      -3.805  11.685 137.736  0.00  0.00    +0.000 OA
ATOM     46  H   UNL     1      -6.054   9.246 137.134  0.00  0.00    +0.000 HD
BRANCH  43  47
ATOM     47  C   UNL     1      -6.776  10.250 139.009  0.00  0.00    +0.000 C 
BRANCH  47  49
ATOM     48  N   UNL     1      -8.302   9.408 137.641  0.00  0.00    +0.000 N 
ATOM     49  C   UNL     1      -8.115  10.065 138.783  0.00  0.00    +0.000 C 
ATOM     50  O   UNL     1      -8.936  10.439 139.584  0.00  0.00    +0.000 OA
ATOM     51  H   UNL     1      -9.249   9.209 137.398  0.00  0.00    +0.000 HD
ATOM     52  H   UNL     1      -7.568   9.085 137.020  0.00  0.00    +0.000 HD
ENDBRANCH  47  49
ENDBRANCH  43  47
ENDBRANCH  42  44
BRANCH  42  53
ATOM     53  C   UNL     1      -2.774   8.490 136.776  0.00  0.00    +0.000 C 
BRANCH  53  54
ATOM     54  C   UNL     1      -2.533   8.056 138.755  0.00  0.00    +0.000 C 
BRANCH  54  55
ATOM     55  C   UNL     1      -1.325   9.180 139.379  0.00  0.00    +0.000 C 
BRANCH  55  56
ATOM     56  N   UNL     1      -0.194   8.845 138.723  0.00  0.00    +0.000 NA
ATOM     57  C   UNL     1       0.672   9.733 138.451  0.00  0.00    +0.000 C 
ATOM     58  N   UNL     1       0.622  11.075 138.733  0.00  0.00    +0.000 N 
ATOM     59  N   UNL     1       1.798   9.257 137.850  0.00  0.00    +0.000 N 
ATOM     60  H   UNL     1      -0.168  11.534 139.205  0.00  0.00    +0.000 HD
ATOM     61  H   UNL     1       1.295  11.750 138.450  0.00  0.00    +0.000 HD
ATOM     62  H   UNL     1       1.919   8.255 137.657  0.00  0.00    +0.000 HD
ATOM     63  H   UNL     1       2.573   9.831 137.566  0.00  0.00    +0.000 HD
ENDBRANCH  55  56
ENDBRANCH  54  55
ENDBRANCH  53  54
ENDBRANCH  42  53
ENDBRANCH  38  42
ENDBRANCH  31  39
ENDBRANCH   1  36
BRANCH  10  64
ATOM     64  C   UNL     1      -3.830   0.373 133.225  0.00  0.00    +0.000 C 
BRANCH  64  65
ATOM     65  C   UNL     1      -3.000  -0.409 134.051  0.00  0.00    +0.000 A 
ATOM     66  C   UNL     1      -1.807  -0.688 133.476  0.00  0.00    +0.000 A 
ATOM     67  C   UNL     1      -0.845  -1.342 134.168  0.00  0.00    +0.000 A 
ATOM     68  C   UNL     1      -1.106  -1.720 135.461  0.00  0.00    +0.000 A 
ATOM     69  C   UNL     1      -2.335  -1.459 136.035  0.00  0.00    +0.000 A 
ATOM     70  C   UNL     1      -3.300  -0.790 135.332  0.00  0.00    +0.000 A 
BRANCH  68  71
ATOM     71  O   UNL     1      -0.209  -2.369 136.246  0.00  0.00    +0.000 OA
ATOM     72  H   UNL     1       0.597  -1.869 136.445  0.00  0.00    +0.000 HD
ENDBRANCH  68  71
ENDBRANCH  64  65
ENDBRANCH  10  64
BRANCH  14  73
ATOM     73  C   UNL     1      -3.799   3.537 130.791  0.00  0.00    +0.000 C 
BRANCH  73  74
ATOM     74  C   UNL     1      -3.631   3.526 129.332  0.00  0.00    +0.000 A 
ATOM     75  C   UNL     1      -3.689   2.500 128.362  0.00  0.00    +0.000 A 
ATOM     76  C   UNL     1      -2.990   2.685 127.266  0.00  0.00    +0.000 A 
ATOM     77  C   UNL     1      -2.545   3.924 126.967  0.00  0.00    +0.000 A 
ATOM     78  C   UNL     1      -2.629   4.919 127.882  0.00  0.00    +0.000 A 
ATOM     79  C   UNL     1      -3.248   4.741 129.028  0.00  0.00    +0.000 A 
ENDBRANCH  73  74
ENDBRANCH  14  73
BRANCH  18  80
ATOM     80  C   UNL     1      -3.743   6.046 134.705  0.00  0.00    +0.000 C 
BRANCH  80  81
ATOM     81  C   UNL     1      -4.190   5.694 135.970  0.00  0.00    +0.000 A 
ATOM     82  C   UNL     1      -3.565   4.990 136.951  0.00  0.00    +0.000 A 
ATOM     83  C   UNL     1      -4.531   4.457 137.654  0.00  0.00    +0.000 A 
ATOM     84  C   UNL     1      -5.790   4.997 137.678  0.00  0.00    +0.000 A 
ATOM     85  C   UNL     1      -6.153   5.978 136.832  0.00  0.00    +0.000 A 
ATOM     86  C   UNL     1      -5.298   6.425 135.997  0.00  0.00    +0.000 A 
ENDBRANCH  80  81
ENDBRANCH  18  80
BRANCH  22  87
ATOM     87  C   UNL     1       0.221   7.392 134.223  0.00  0.00    +0.000 C 
BRANCH  87  88
ATOM     88  C   UNL     1       0.647   6.999 135.483  0.00  0.00    +0.000 C 
ATOM     89  N   UNL     1      -0.311   6.569 136.284  0.00  0.00    +0.000 N 
ATOM     90  O   UNL     1       1.811   6.935 135.792  0.00  0.00    +0.000 OA
ATOM     91  H   UNL     1      -1.290   6.570 136.214  0.00  0.00    +0.000 HD
ATOM     92  H   UNL     1      -0.215   6.424 137.243  0.00  0.00    +0.000 HD
ENDBRANCH  87  88
ENDBRANCH  22  87
TORSDOF 19
ENDMDL
MODEL 9
REMARK VINA RESULT:      -9.0      4.447      8.962
REMARK  Name = CHEMBL2369847
REMARK  19 active torsions:
REMARK  status: ('A' for Active; 'I' for Inactive)
REMARK    1  A    between atoms: C_2  and  C_4
REMARK    2  A    between atoms: C_4  and  N_5
REMARK    3  A    between atoms: C_6  and  C_8
REMARK    4  A    between atoms: C_8  and  C_9
REMARK    5  A    between atoms: C_8  and  N_16
REMARK    6  A    between atoms: C_9  and  C_10
REMARK    7  A    between atoms: C_10  and  C_11
REMARK    8  A    between atoms: C_11  and  N_12
REMARK    9  A    between atoms: C_17  and  C_19
REMARK   10  A    between atoms: C_24  and  C_26
REMARK   11  A    between atoms: C_35  and  C_36
REMARK   12  A    between atoms: C_36  and  C_37
REMARK   13  A    between atoms: C_40  and  O_41
REMARK   14  A    between atoms: C_47  and  C_48
REMARK   15  A    between atoms: C_48  and  C_49
REMARK   16  A    between atoms: C_58  and  C_59
REMARK   17  A    between atoms: C_59  and  C_60
REMARK   18  A    between atoms: C_69  and  C_70
REMARK   19  A    between atoms: C_70  and  C_71
REMARK                            x       y       z     vdW  Elec       q    Type
REMARK                         _______ _______ _______ _____ _____    ______ ____
ROOT
ATOM      1  C   UNL     1      -3.957   7.714 132.920  0.00  0.00    +0.000 C 
ATOM      2  C   UNL     1      -5.777   6.077 132.642  0.00  0.00    +0.000 C 
ATOM      3  S   UNL     1      -7.314   3.734 132.568  0.00  0.00    +0.000 S 
ATOM      4  S   UNL     1      -8.595   1.241 132.071  0.00  0.00    +0.000 S 
ATOM      5  C   UNL     1      -7.507  -0.538 132.140  0.00  0.00    +0.000 C 
ATOM      6  C   UNL     1      -7.138  -1.833 131.421  0.00  0.00    +0.000 C 
ATOM      7  C   UNL     1      -5.666  -2.304 131.505  0.00  0.00    +0.000 C 
ATOM      8  O   UNL     1      -5.339  -3.423 131.103  0.00  0.00    +0.000 OA
ATOM      9  N   UNL     1      -4.726  -1.432 131.986  0.00  0.00    +0.000 N 
ATOM     10  C   UNL     1      -4.992  -0.111 132.511  0.00  0.00    +0.000 C 
ATOM     11  C   UNL     1      -5.488   0.778 131.183  0.00  0.00    +0.000 C 
ATOM     12  O   UNL     1      -6.367   0.499 130.337  0.00  0.00    +0.000 OA
ATOM     13  N   UNL     1      -5.161   1.999 131.067  0.00  0.00    +0.000 N 
ATOM     14  C   UNL     1      -4.107   2.425 131.715  0.00  0.00    +0.000 C 
ATOM     15  C   UNL     1      -4.409   2.768 133.300  0.00  0.00    +0.000 C 
ATOM     16  O   UNL     1      -4.902   2.052 134.173  0.00  0.00    +0.000 OA
ATOM     17  N   UNL     1      -3.941   3.671 133.993  0.00  0.00    +0.000 N 
ATOM     18  C   UNL     1      -3.638   4.574 133.271  0.00  0.00    +0.000 C 
ATOM     19  C   UNL     1      -2.111   4.218 132.984  0.00  0.00    +0.000 C 
ATOM     20  O   UNL     1      -2.207   3.526 131.976  0.00  0.00    +0.000 OA
ATOM     21  N   UNL     1      -0.696   5.377 133.195  0.00  0.00    +0.000 N 
ATOM     22  C   UNL     1      -1.005   6.881 133.525  0.00  0.00    +0.000 C 
ATOM     23  C   UNL     1      -2.433   7.622 132.043  0.00  0.00    +0.000 C 
ATOM     24  O   UNL     1      -3.484   7.113 131.375  0.00  0.00    +0.000 OA
ATOM     25  N   UNL     1      -2.776   8.832 132.388  0.00  0.00    +0.000 N 
ATOM     26  H   UNL     1      -3.771  -1.744 132.136  0.00  0.00    +0.000 HD
ATOM     27  H   UNL     1      -5.418   2.508 130.253  0.00  0.00    +0.000 HD
ATOM     28  H   UNL     1      -4.144   4.032 134.857  0.00  0.00    +0.000 HD
ATOM     29  H   UNL     1       0.075   5.462 132.598  0.00  0.00    +0.000 HD
ATOM     30  H   UNL     1      -2.482   9.841 132.111  0.00  0.00    +0.000 HD
ENDROOT
BRANCH   1  36
ATOM     31  C   UNL     1      -0.323  11.168 135.244  0.00  0.00    +0.000 C 
ATOM     32  C   UNL     1      -0.236  12.726 134.875  0.00  0.00    +0.000 C 
ATOM     33  C   UNL     1       1.194  13.039 134.893  0.00  0.00    +0.000 C 
ATOM     34  C   UNL     1       1.539  11.215 134.252  0.00  0.00    +0.000 C 
ATOM     35  N   UNL     1       0.003   9.717 134.091  0.00  0.00    +0.000 N 
ATOM     36  C   UNL     1      -1.577   8.576 133.219  0.00  0.00    +0.000 C 
ATOM     37  O   UNL     1      -0.103   8.433 133.108  0.00  0.00    +0.000 OA
BRANCH  31  39
ATOM     38  N   UNL     1      -1.861   9.614 136.085  0.00  0.00    +0.000 N 
ATOM     39  C   UNL     1      -1.514  10.503 135.238  0.00  0.00    +0.000 C 
ATOM     40  O   UNL     1      -2.349  10.920 134.474  0.00  0.00    +0.000 OA
ATOM     41  H   UNL     1      -1.200   9.198 136.776  0.00  0.00    +0.000 HD
BRANCH  38  42
ATOM     42  C   UNL     1      -3.234   9.450 136.377  0.00  0.00    +0.000 C 
BRANCH  42  44
ATOM     43  N   UNL     1      -6.151  10.069 137.466  0.00  0.00    +0.000 N 
ATOM     44  C   UNL     1      -4.300  10.408 137.350  0.00  0.00    +0.000 C 
ATOM     45  O   UNL     1      -3.873  11.646 137.639  0.00  0.00    +0.000 OA
ATOM     46  H   UNL     1      -6.079   9.141 137.158  0.00  0.00    +0.000 HD
BRANCH  43  47
ATOM     47  C   UNL     1      -6.864  10.273 138.932  0.00  0.00    +0.000 C 
BRANCH  47  49
ATOM     48  N   UNL     1      -8.979  10.501 139.551  0.00  0.00    +0.000 N 
ATOM     49  C   UNL     1      -8.154   9.855 138.731  0.00  0.00    +0.000 C 
ATOM     50  O   UNL     1      -8.417   9.044 137.877  0.00  0.00    +0.000 OA
ATOM     51  H   UNL     1      -9.948  10.276 139.467  0.00  0.00    +0.000 HD
ATOM     52  H   UNL     1      -8.705  11.203 140.230  0.00  0.00    +0.000 HD
ENDBRANCH  47  49
ENDBRANCH  43  47
ENDBRANCH  42  44
BRANCH  42  53
ATOM     53  C   UNL     1      -2.746   8.426 136.965  0.00  0.00    +0.000 C 
BRANCH  53  54
ATOM     54  C   UNL     1      -3.137   7.842 138.880  0.00  0.00    +0.000 C 
BRANCH  54  55
ATOM     55  C   UNL     1      -1.587   7.416 139.607  0.00  0.00    +0.000 C 
BRANCH  55  56
ATOM     56  N   UNL     1      -1.306   6.200 139.094  0.00  0.00    +0.000 NA
ATOM     57  C   UNL     1      -0.570   5.390 139.738  0.00  0.00    +0.000 C 
ATOM     58  N   UNL     1       0.033   5.583 140.957  0.00  0.00    +0.000 N 
ATOM     59  N   UNL     1      -0.418   4.173 139.147  0.00  0.00    +0.000 N 
ATOM     60  H   UNL     1      -0.037   6.454 141.500  0.00  0.00    +0.000 HD
ATOM     61  H   UNL     1       0.652   4.947 141.402  0.00  0.00    +0.000 HD
ATOM     62  H   UNL     1      -0.884   3.947 138.259  0.00  0.00    +0.000 HD
ATOM     63  H   UNL     1       0.138   3.426 139.526  0.00  0.00    +0.000 HD
ENDBRANCH  55  56
ENDBRANCH  54  55
ENDBRANCH  53  54
ENDBRANCH  42  53
ENDBRANCH  38  42
ENDBRANCH  31  39
ENDBRANCH   1  36
BRANCH  10  64
ATOM     64  C   UNL     1      -3.794   0.322 133.172  0.00  0.00    +0.000 C 
BRANCH  64  65
ATOM     65  C   UNL     1      -2.967  -0.448 134.013  0.00  0.00    +0.000 A 
ATOM     66  C   UNL     1      -1.765  -0.721 133.454  0.00  0.00    +0.000 A 
ATOM     67  C   UNL     1      -0.807  -1.363 134.161  0.00  0.00    +0.000 A 
ATOM     68  C   UNL     1      -1.079  -1.736 135.453  0.00  0.00    +0.000 A 
ATOM     69  C   UNL     1      -2.317  -1.482 136.011  0.00  0.00    +0.000 A 
ATOM     70  C   UNL     1      -3.280  -0.824 135.292  0.00  0.00    +0.000 A 
BRANCH  68  71
ATOM     71  O   UNL     1      -0.187  -2.373 136.253  0.00  0.00    +0.000 OA
ATOM     72  H   UNL     1      -0.431  -2.409 137.190  0.00  0.00    +0.000 HD
ENDBRANCH  68  71
ENDBRANCH  64  65
ENDBRANCH  10  64
BRANCH  14  73
ATOM     73  C   UNL     1      -3.829   3.511 130.771  0.00  0.00    +0.000 C 
BRANCH  73  74
ATOM     74  C   UNL     1      -3.632   3.508 129.315  0.00  0.00    +0.000 A 
ATOM     75  C   UNL     1      -3.680   2.489 128.337  0.00  0.00    +0.000 A 
ATOM     76  C   UNL     1      -2.957   2.675 127.256  0.00  0.00    +0.000 A 
ATOM     77  C   UNL     1      -2.495   3.912 126.975  0.00  0.00    +0.000 A 
ATOM     78  C   UNL     1      -2.588   4.902 127.896  0.00  0.00    +0.000 A 
ATOM     79  C   UNL     1      -3.232   4.722 129.027  0.00  0.00    +0.000 A 
ENDBRANCH  73  74
ENDBRANCH  14  73
BRANCH  18  80
ATOM     80  C   UNL     1      -3.742   5.981 134.709  0.00  0.00    +0.000 C 
BRANCH  80  81
ATOM     81  C   UNL     1      -4.207   5.620 135.965  0.00  0.00    +0.000 A 
ATOM     82  C   UNL     1      -3.624   4.852 136.923  0.00  0.00    +0.000 A 
ATOM     83  C   UNL     1      -4.618   4.358 137.614  0.00  0.00    +0.000 A 
ATOM     84  C   UNL     1      -5.842   4.972 137.659  0.00  0.00    +0.000 A 
ATOM     85  C   UNL     1      -6.147   5.998 136.843  0.00  0.00    +0.000 A 
ATOM     86  C   UNL     1      -5.268   6.416 136.017  0.00  0.00    +0.000 A 
ENDBRANCH  80  81
ENDBRANCH  18  80
BRANCH  22  87
ATOM     87  C   UNL     1       0.201   7.371 134.184  0.00  0.00    +0.000 C 
BRANCH  87  88
ATOM     88  C   UNL     1       0.639   6.984 135.442  0.00  0.00    +0.000 C 
ATOM     89  N   UNL     1      -0.314   6.572 136.259  0.00  0.00    +0.000 N 
ATOM     90  O   UNL     1       1.806   6.908 135.736  0.00  0.00    +0.000 OA
ATOM     91  H   UNL     1      -1.294   6.585 136.202  0.00  0.00    +0.000 HD
ATOM     92  H   UNL     1      -0.206   6.435 137.218  0.00  0.00    +0.000 HD
ENDBRANCH  87  88
ENDBRANCH  22  87
TORSDOF 19
ENDMDL
