MODEL 1
REMARK VINA RESULT:      -8.5      0.000      0.000
REMARK  Name = CHEMBL2391300
REMARK  15 active torsions:
REMARK  status: ('A' for Active; 'I' for Inactive)
REMARK    1  A    between atoms: C_1  and  N_2
REMARK    2  A    between atoms: N_2  and  C_3
REMARK    3  A    between atoms: C_3  and  C_4
REMARK    4  A    between atoms: C_3  and  C_10
REMARK    5  A    between atoms: C_4  and  C_5
REMARK    6  A    between atoms: C_5  and  S_6
REMARK    7  A    between atoms: S_6  and  C_7
REMARK    8  A    between atoms: N_12  and  C_13
REMARK    9  A    between atoms: C_18  and  C_19
REMARK   10  A    between atoms: C_19  and  S_20
REMARK   11  A    between atoms: S_20  and  N_23
REMARK   12  A    between atoms: N_26  and  C_27
REMARK   13  A    between atoms: C_32  and  C_33
REMARK   14  A    between atoms: C_36  and  C_37
REMARK   15  A    between atoms: C_36  and  C_38
REMARK                            x       y       z     vdW  Elec       q    Type
REMARK                         _______ _______ _______ _____ _____    ______ ____
ROOT
ATOM      1  C   UNL     1      -6.966  -0.227 124.664  0.00  0.00    +0.000 C 
ATOM      2  C   UNL     1      -6.776  -0.697 123.310  0.00  0.00    +0.000 C 
ATOM      3  C   UNL     1      -6.760  -2.161 123.060  0.00  0.00    +0.000 C 
ATOM      4  C   UNL     1      -5.401  -2.622 123.477  0.00  0.00    +0.000 C 
ATOM      5  C   UNL     1      -5.582  -2.345 124.980  0.00  0.00    +0.000 C 
ATOM      6  C   UNL     1      -7.026  -1.660 125.155  0.00  0.00    +0.000 C 
ATOM      7  C   UNL     1      -7.707  -2.702 124.156  0.00  0.00    +0.000 C 
ATOM      8  C   UNL     1      -8.779  -2.568 123.479  0.00  0.00    +0.000 C 
ATOM      9  C   UNL     1      -9.480  -3.500 123.955  0.00  0.00    +0.000 C 
ENDROOT
BRANCH   1  12
ATOM     10  C   UNL     1      -6.176   2.008 125.434  0.00  0.00    +0.000 C 
ATOM     11  O   UNL     1      -5.279   2.707 125.905  0.00  0.00    +0.000 OA
ATOM     12  N   UNL     1      -5.874   0.719 124.897  0.00  0.00    +0.000 N 
ATOM     13  H   UNL     1      -4.892   0.444 124.766  0.00  0.00    +0.000 HD
BRANCH  10  14
ATOM     14  C   UNL     1      -7.793   2.460 125.440  0.00  0.00    +0.000 C 
BRANCH  14  16
ATOM     15  C   UNL     1      -8.494   1.872 127.621  0.00  0.00    +0.000 C 
ATOM     16  N   UNL     1      -8.220   2.996 126.736  0.00  0.00    +0.000 NA
ATOM     17  H   UNL     1      -7.453   3.556 127.114  0.00  0.00    +0.000 HD
ENDBRANCH  14  16
BRANCH  14  18
ATOM     18  C   UNL     1      -8.403   3.490 124.219  0.00  0.00    +0.000 C 
BRANCH  18  19
ATOM     19  C   UNL     1      -8.180   3.070 122.716  0.00  0.00    +0.000 C 
BRANCH  19  20
ATOM     20  S   UNL     1      -6.554   3.433 121.978  0.00  0.00    +0.000 S 
ATOM     21  C   UNL     1      -7.056   4.063 120.415  0.00  0.00    +0.000 C 
ATOM     22  O   UNL     1      -5.779   4.496 122.583  0.00  0.00    +0.000 OA
ATOM     23  O   UNL     1      -5.917   2.140 121.818  0.00  0.00    +0.000 OA
ENDBRANCH  19  20
ENDBRANCH  18  19
ENDBRANCH  14  18
ENDBRANCH  10  14
ENDBRANCH   1  12
BRANCH   6  24
ATOM     24  C   UNL     1      -7.727  -1.557 126.428  0.00  0.00    +0.000 C 
BRANCH  24  25
ATOM     25  S   UNL     1      -6.529  -1.602 127.704  0.00  0.00    +0.000 S 
ATOM     26  O   UNL     1      -5.835  -2.865 127.607  0.00  0.00    +0.000 OA
ATOM     27  O   UNL     1      -5.777  -0.371 127.651  0.00  0.00    +0.000 OA
BRANCH  25  28
ATOM     28  N   UNL     1      -7.482  -1.660 129.085  0.00  0.00    +0.000 NA
ATOM     29  C   UNL     1      -8.006  -3.013 129.507  0.00  0.00    +0.000 C 
ATOM     30  C   UNL     1      -6.870  -3.937 130.009  0.00  0.00    +0.000 C 
ATOM     31  N   UNL     1      -6.226  -3.264 131.110  0.00  0.00    +0.000 N 
ATOM     32  C   UNL     1      -5.619  -1.965 130.806  0.00  0.00    +0.000 C 
ATOM     33  C   UNL     1      -6.735  -1.029 130.248  0.00  0.00    +0.000 C 
BRANCH  31  34
ATOM     34  C   UNL     1      -5.942  -3.945 132.261  0.00  0.00    +0.000 A 
ATOM     35  C   UNL     1      -4.890  -4.869 132.323  0.00  0.00    +0.000 A 
ATOM     36  C   UNL     1      -4.612  -5.555 133.504  0.00  0.00    +0.000 A 
ATOM     37  C   UNL     1      -5.395  -5.334 134.630  0.00  0.00    +0.000 A 
ATOM     38  C   UNL     1      -6.469  -4.450 134.570  0.00  0.00    +0.000 A 
ATOM     39  C   UNL     1      -6.753  -3.755 133.392  0.00  0.00    +0.000 A 
ATOM     40  C   UNL     1      -7.965  -2.867 133.336  0.00  0.00    +0.000 C 
ENDBRANCH  31  34
ENDBRANCH  25  28
ENDBRANCH  24  25
ENDBRANCH   6  24
TORSDOF 10
ENDMDL
MODEL 2
REMARK VINA RESULT:      -8.1      5.948      7.965
REMARK  Name = CHEMBL2391300
REMARK  15 active torsions:
REMARK  status: ('A' for Active; 'I' for Inactive)
REMARK    1  A    between atoms: C_1  and  N_2
REMARK    2  A    between atoms: N_2  and  C_3
REMARK    3  A    between atoms: C_3  and  C_4
REMARK    4  A    between atoms: C_3  and  C_10
REMARK    5  A    between atoms: C_4  and  C_5
REMARK    6  A    between atoms: C_5  and  S_6
REMARK    7  A    between atoms: S_6  and  C_7
REMARK    8  A    between atoms: N_12  and  C_13
REMARK    9  A    between atoms: C_18  and  C_19
REMARK   10  A    between atoms: C_19  and  S_20
REMARK   11  A    between atoms: S_20  and  N_23
REMARK   12  A    between atoms: N_26  and  C_27
REMARK   13  A    between atoms: C_32  and  C_33
REMARK   14  A    between atoms: C_36  and  C_37
REMARK   15  A    between atoms: C_36  and  C_38
REMARK                            x       y       z     vdW  Elec       q    Type
REMARK                         _______ _______ _______ _____ _____    ______ ____
ROOT
ATOM      1  C   UNL     1      -7.332   5.955 131.090  0.00  0.00    +0.000 C 
ATOM      2  C   UNL     1      -6.287   6.956 131.096  0.00  0.00    +0.000 C 
ATOM      3  C   UNL     1      -4.896   6.532 131.401  0.00  0.00    +0.000 C 
ATOM      4  C   UNL     1      -4.843   6.375 132.885  0.00  0.00    +0.000 C 
ATOM      5  C   UNL     1      -5.792   5.166 132.963  0.00  0.00    +0.000 C 
ATOM      6  C   UNL     1      -6.318   4.893 131.469  0.00  0.00    +0.000 C 
ATOM      7  C   UNL     1      -4.857   5.085 130.856  0.00  0.00    +0.000 C 
ATOM      8  C   UNL     1      -4.531   5.404 129.665  0.00  0.00    +0.000 C 
ATOM      9  C   UNL     1      -3.878   4.385 129.315  0.00  0.00    +0.000 C 
ENDROOT
BRANCH   1  12
ATOM     10  C   UNL     1      -9.749   6.258 131.614  0.00  0.00    +0.000 C 
ATOM     11  O   UNL     1     -10.634   6.438 132.449  0.00  0.00    +0.000 OA
ATOM     12  N   UNL     1      -8.381   6.493 131.955  0.00  0.00    +0.000 N 
ATOM     13  H   UNL     1      -8.155   6.955 132.846  0.00  0.00    +0.000 HD
BRANCH  10  14
ATOM     14  C   UNL     1     -10.049   5.677 130.068  0.00  0.00    +0.000 C 
BRANCH  14  16
ATOM     15  C   UNL     1     -10.742   3.457 130.501  0.00  0.00    +0.000 C 
ATOM     16  N   UNL     1     -11.192   4.759 130.026  0.00  0.00    +0.000 NA
ATOM     17  H   UNL     1     -11.913   5.126 130.650  0.00  0.00    +0.000 HD
ENDBRANCH  14  16
BRANCH  14  18
ATOM     18  C   UNL     1     -10.198   6.761 128.754  0.00  0.00    +0.000 C 
BRANCH  18  19
ATOM     19  C   UNL     1     -10.931   8.134 129.006  0.00  0.00    +0.000 C 
BRANCH  19  20
ATOM     20  S   UNL     1     -12.728   8.080 129.300  0.00  0.00    +0.000 S 
ATOM     21  C   UNL     1     -13.257   7.242 127.847  0.00  0.00    +0.000 C 
ATOM     22  O   UNL     1     -13.191   7.258 130.399  0.00  0.00    +0.000 OA
ATOM     23  O   UNL     1     -13.157   9.465 129.266  0.00  0.00    +0.000 OA
ENDBRANCH  19  20
ENDBRANCH  18  19
ENDBRANCH  14  18
ENDBRANCH  10  14
ENDBRANCH   1  12
BRANCH   6  24
ATOM     24  C   UNL     1      -6.949   3.650 131.044  0.00  0.00    +0.000 C 
BRANCH  24  25
ATOM     25  S   UNL     1      -7.353   2.737 132.483  0.00  0.00    +0.000 S 
ATOM     26  O   UNL     1      -6.116   2.381 133.135  0.00  0.00    +0.000 OA
ATOM     27  O   UNL     1      -8.355   3.477 133.212  0.00  0.00    +0.000 OA
BRANCH  25  28
ATOM     28  N   UNL     1      -8.004   1.329 131.839  0.00  0.00    +0.000 NA
ATOM     29  C   UNL     1      -7.679   1.014 130.397  0.00  0.00    +0.000 C 
ATOM     30  C   UNL     1      -6.186   0.648 130.213  0.00  0.00    +0.000 C 
ATOM     31  N   UNL     1      -5.915  -0.484 131.064  0.00  0.00    +0.000 N 
ATOM     32  C   UNL     1      -6.131  -0.277 132.500  0.00  0.00    +0.000 C 
ATOM     33  C   UNL     1      -7.619   0.145 132.708  0.00  0.00    +0.000 C 
BRANCH  31  34
ATOM     34  C   UNL     1      -5.212  -1.554 130.584  0.00  0.00    +0.000 A 
ATOM     35  C   UNL     1      -3.838  -1.467 130.324  0.00  0.00    +0.000 A 
ATOM     36  C   UNL     1      -3.135  -2.567 129.835  0.00  0.00    +0.000 A 
ATOM     37  C   UNL     1      -3.805  -3.759 129.586  0.00  0.00    +0.000 A 
ATOM     38  C   UNL     1      -5.177  -3.845 129.802  0.00  0.00    +0.000 A 
ATOM     39  C   UNL     1      -5.890  -2.750 130.295  0.00  0.00    +0.000 A 
ATOM     40  C   UNL     1      -7.383  -2.849 130.444  0.00  0.00    +0.000 C 
ENDBRANCH  31  34
ENDBRANCH  25  28
ENDBRANCH  24  25
ENDBRANCH   6  24
TORSDOF 10
ENDMDL
MODEL 3
REMARK VINA RESULT:      -8.0      5.511      7.957
REMARK  Name = CHEMBL2391300
REMARK  15 active torsions:
REMARK  status: ('A' for Active; 'I' for Inactive)
REMARK    1  A    between atoms: C_1  and  N_2
REMARK    2  A    between atoms: N_2  and  C_3
REMARK    3  A    between atoms: C_3  and  C_4
REMARK    4  A    between atoms: C_3  and  C_10
REMARK    5  A    between atoms: C_4  and  C_5
REMARK    6  A    between atoms: C_5  and  S_6
REMARK    7  A    between atoms: S_6  and  C_7
REMARK    8  A    between atoms: N_12  and  C_13
REMARK    9  A    between atoms: C_18  and  C_19
REMARK   10  A    between atoms: C_19  and  S_20
REMARK   11  A    between atoms: S_20  and  N_23
REMARK   12  A    between atoms: N_26  and  C_27
REMARK   13  A    between atoms: C_32  and  C_33
REMARK   14  A    between atoms: C_36  and  C_37
REMARK   15  A    between atoms: C_36  and  C_38
REMARK                            x       y       z     vdW  Elec       q    Type
REMARK                         _______ _______ _______ _____ _____    ______ ____
ROOT
ATOM      1  C   UNL     1      -8.560   4.974 131.902  0.00  0.00    +0.000 C 
ATOM      2  C   UNL     1      -8.548   5.970 132.950  0.00  0.00    +0.000 C 
ATOM      3  C   UNL     1      -7.714   5.726 134.155  0.00  0.00    +0.000 C 
ATOM      4  C   UNL     1      -8.493   4.764 134.992  0.00  0.00    +0.000 C 
ATOM      5  C   UNL     1      -8.384   3.572 134.024  0.00  0.00    +0.000 C 
ATOM      6  C   UNL     1      -7.621   4.105 132.715  0.00  0.00    +0.000 C 
ATOM      7  C   UNL     1      -6.542   4.890 133.591  0.00  0.00    +0.000 C 
ATOM      8  C   UNL     1      -5.821   5.887 133.257  0.00  0.00    +0.000 C 
ATOM      9  C   UNL     1      -4.666   5.399 133.383  0.00  0.00    +0.000 C 
ENDROOT
BRANCH   1  12
ATOM     10  C   UNL     1     -10.531   5.071 130.380  0.00  0.00    +0.000 C 
ATOM     11  O   UNL     1     -11.616   4.611 130.026  0.00  0.00    +0.000 OA
ATOM     12  N   UNL     1      -9.976   4.707 131.645  0.00  0.00    +0.000 N 
ATOM     13  H   UNL     1     -10.551   4.184 132.318  0.00  0.00    +0.000 HD
BRANCH  10  14
ATOM     14  C   UNL     1      -9.603   6.083 129.415  0.00  0.00    +0.000 C 
BRANCH  14  16
ATOM     15  C   UNL     1      -8.242   4.431 128.407  0.00  0.00    +0.000 C 
ATOM     16  N   UNL     1      -9.238   5.460 128.138  0.00  0.00    +0.000 NA
ATOM     17  H   UNL     1     -10.078   5.035 127.744  0.00  0.00    +0.000 HD
ENDBRANCH  14  16
BRANCH  14  18
ATOM     18  C   UNL     1     -10.124   7.679 129.090  0.00  0.00    +0.000 C 
BRANCH  18  19
ATOM     19  C   UNL     1     -11.572   8.095 129.555  0.00  0.00    +0.000 C 
BRANCH  19  20
ATOM     20  S   UNL     1     -12.931   7.867 128.363  0.00  0.00    +0.000 S 
ATOM     21  C   UNL     1     -12.011   7.486 126.913  0.00  0.00    +0.000 C 
ATOM     22  O   UNL     1     -13.802   6.728 128.568  0.00  0.00    +0.000 OA
ATOM     23  O   UNL     1     -13.546   9.174 128.239  0.00  0.00    +0.000 OA
ENDBRANCH  19  20
ENDBRANCH  18  19
ENDBRANCH  14  18
ENDBRANCH  10  14
ENDBRANCH   1  12
BRANCH   6  24
ATOM     24  C   UNL     1      -7.011   3.234 131.718  0.00  0.00    +0.000 C 
BRANCH  24  25
ATOM     25  S   UNL     1      -7.852   1.698 131.766  0.00  0.00    +0.000 S 
ATOM     26  O   UNL     1      -7.674   1.145 133.088  0.00  0.00    +0.000 OA
ATOM     27  O   UNL     1      -9.185   1.905 131.254  0.00  0.00    +0.000 OA
BRANCH  25  28
ATOM     28  N   UNL     1      -6.945   0.763 130.707  0.00  0.00    +0.000 NA
ATOM     29  C   UNL     1      -5.598   0.278 131.192  0.00  0.00    +0.000 C 
ATOM     30  C   UNL     1      -5.739  -0.774 132.317  0.00  0.00    +0.000 C 
ATOM     31  N   UNL     1      -6.521  -1.864 131.789  0.00  0.00    +0.000 N 
ATOM     32  C   UNL     1      -7.878  -1.527 131.345  0.00  0.00    +0.000 C 
ATOM     33  C   UNL     1      -7.767  -0.428 130.244  0.00  0.00    +0.000 C 
BRANCH  31  34
ATOM     34  C   UNL     1      -6.124  -3.157 131.988  0.00  0.00    +0.000 A 
ATOM     35  C   UNL     1      -6.149  -3.741 133.261  0.00  0.00    +0.000 A 
ATOM     36  C   UNL     1      -5.742  -5.061 133.448  0.00  0.00    +0.000 A 
ATOM     37  C   UNL     1      -5.289  -5.803 132.364  0.00  0.00    +0.000 A 
ATOM     38  C   UNL     1      -5.220  -5.221 131.101  0.00  0.00    +0.000 A 
ATOM     39  C   UNL     1      -5.630  -3.900 130.903  0.00  0.00    +0.000 A 
ATOM     40  C   UNL     1      -5.470  -3.276 129.544  0.00  0.00    +0.000 C 
ENDBRANCH  31  34
ENDBRANCH  25  28
ENDBRANCH  24  25
ENDBRANCH   6  24
TORSDOF 10
ENDMDL
MODEL 4
REMARK VINA RESULT:      -8.0      4.581      8.266
REMARK  Name = CHEMBL2391300
REMARK  15 active torsions:
REMARK  status: ('A' for Active; 'I' for Inactive)
REMARK    1  A    between atoms: C_1  and  N_2
REMARK    2  A    between atoms: N_2  and  C_3
REMARK    3  A    between atoms: C_3  and  C_4
REMARK    4  A    between atoms: C_3  and  C_10
REMARK    5  A    between atoms: C_4  and  C_5
REMARK    6  A    between atoms: C_5  and  S_6
REMARK    7  A    between atoms: S_6  and  C_7
REMARK    8  A    between atoms: N_12  and  C_13
REMARK    9  A    between atoms: C_18  and  C_19
REMARK   10  A    between atoms: C_19  and  S_20
REMARK   11  A    between atoms: S_20  and  N_23
REMARK   12  A    between atoms: N_26  and  C_27
REMARK   13  A    between atoms: C_32  and  C_33
REMARK   14  A    between atoms: C_36  and  C_37
REMARK   15  A    between atoms: C_36  and  C_38
REMARK                            x       y       z     vdW  Elec       q    Type
REMARK                         _______ _______ _______ _____ _____    ______ ____
ROOT
ATOM      1  C   UNL     1      -7.497   3.521 131.290  0.00  0.00    +0.000 C 
ATOM      2  C   UNL     1      -7.296   3.881 132.676  0.00  0.00    +0.000 C 
ATOM      3  C   UNL     1      -6.215   3.204 133.439  0.00  0.00    +0.000 C 
ATOM      4  C   UNL     1      -6.763   1.862 133.801  0.00  0.00    +0.000 C 
ATOM      5  C   UNL     1      -6.821   1.310 132.365  0.00  0.00    +0.000 C 
ATOM      6  C   UNL     1      -6.375   2.507 131.390  0.00  0.00    +0.000 C 
ATOM      7  C   UNL     1      -5.162   2.912 132.345  0.00  0.00    +0.000 C 
ATOM      8  C   UNL     1      -4.565   4.035 132.438  0.00  0.00    +0.000 C 
ATOM      9  C   UNL     1      -3.393   3.710 132.107  0.00  0.00    +0.000 C 
ENDROOT
BRANCH   1  12
ATOM     10  C   UNL     1      -9.729   4.000 130.291  0.00  0.00    +0.000 C 
ATOM     11  O   UNL     1     -10.844   3.602 129.956  0.00  0.00    +0.000 OA
ATOM     12  N   UNL     1      -8.924   3.219 131.176  0.00  0.00    +0.000 N 
ATOM     13  H   UNL     1      -9.337   2.405 131.649  0.00  0.00    +0.000 HD
BRANCH  10  14
ATOM     14  C   UNL     1      -9.046   5.419 129.708  0.00  0.00    +0.000 C 
BRANCH  14  16
ATOM     15  C   UNL     1      -7.953   4.544 127.800  0.00  0.00    +0.000 C 
ATOM     16  N   UNL     1      -8.999   5.457 128.242  0.00  0.00    +0.000 NA
ATOM     17  H   UNL     1      -9.905   5.143 127.890  0.00  0.00    +0.000 HD
ENDBRANCH  14  16
BRANCH  14  18
ATOM     18  C   UNL     1      -9.613   6.936 130.255  0.00  0.00    +0.000 C 
BRANCH  18  19
ATOM     19  C   UNL     1     -11.156   7.238 130.131  0.00  0.00    +0.000 C 
BRANCH  19  20
ATOM     20  S   UNL     1     -11.691   8.308 128.757  0.00  0.00    +0.000 S 
ATOM     21  C   UNL     1     -12.554   7.137 127.769  0.00  0.00    +0.000 C 
ATOM     22  O   UNL     1     -12.665   9.335 129.063  0.00  0.00    +0.000 OA
ATOM     23  O   UNL     1     -10.465   8.715 128.098  0.00  0.00    +0.000 OA
ENDBRANCH  19  20
ENDBRANCH  18  19
ENDBRANCH  14  18
ENDBRANCH  10  14
ENDBRANCH   1  12
BRANCH   6  24
ATOM     24  C   UNL     1      -5.962   2.315 130.005  0.00  0.00    +0.000 C 
BRANCH  24  25
ATOM     25  S   UNL     1      -6.582   0.766 129.472  0.00  0.00    +0.000 S 
ATOM     26  O   UNL     1      -5.934  -0.256 130.258  0.00  0.00    +0.000 OA
ATOM     27  O   UNL     1      -8.023   0.846 129.456  0.00  0.00    +0.000 OA
BRANCH  25  28
ATOM     28  N   UNL     1      -5.974   0.659 127.910  0.00  0.00    +0.000 NA
ATOM     29  C   UNL     1      -5.555  -0.711 127.425  0.00  0.00    +0.000 C 
ATOM     30  C   UNL     1      -6.771  -1.648 127.232  0.00  0.00    +0.000 C 
ATOM     31  N   UNL     1      -7.655  -1.012 126.287  0.00  0.00    +0.000 N 
ATOM     32  C   UNL     1      -8.183   0.299 126.679  0.00  0.00    +0.000 C 
ATOM     33  C   UNL     1      -6.972   1.251 126.931  0.00  0.00    +0.000 C 
BRANCH  31  34
ATOM     34  C   UNL     1      -8.195  -1.730 125.257  0.00  0.00    +0.000 A 
ATOM     35  C   UNL     1      -9.102  -2.773 125.490  0.00  0.00    +0.000 A 
ATOM     36  C   UNL     1      -9.643  -3.497 124.429  0.00  0.00    +0.000 A 
ATOM     37  C   UNL     1      -9.269  -3.195 123.126  0.00  0.00    +0.000 A 
ATOM     38  C   UNL     1      -8.338  -2.190 122.884  0.00  0.00    +0.000 A 
ATOM     39  C   UNL     1      -7.791  -1.456 123.940  0.00  0.00    +0.000 A 
ATOM     40  C   UNL     1      -6.730  -0.430 123.653  0.00  0.00    +0.000 C 
ENDBRANCH  31  34
ENDBRANCH  25  28
ENDBRANCH  24  25
ENDBRANCH   6  24
TORSDOF 10
ENDMDL
MODEL 5
REMARK VINA RESULT:      -8.0      5.336      8.240
REMARK  Name = CHEMBL2391300
REMARK  15 active torsions:
REMARK  status: ('A' for Active; 'I' for Inactive)
REMARK    1  A    between atoms: C_1  and  N_2
REMARK    2  A    between atoms: N_2  and  C_3
REMARK    3  A    between atoms: C_3  and  C_4
REMARK    4  A    between atoms: C_3  and  C_10
REMARK    5  A    between atoms: C_4  and  C_5
REMARK    6  A    between atoms: C_5  and  S_6
REMARK    7  A    between atoms: S_6  and  C_7
REMARK    8  A    between atoms: N_12  and  C_13
REMARK    9  A    between atoms: C_18  and  C_19
REMARK   10  A    between atoms: C_19  and  S_20
REMARK   11  A    between atoms: S_20  and  N_23
REMARK   12  A    between atoms: N_26  and  C_27
REMARK   13  A    between atoms: C_32  and  C_33
REMARK   14  A    between atoms: C_36  and  C_37
REMARK   15  A    between atoms: C_36  and  C_38
REMARK                            x       y       z     vdW  Elec       q    Type
REMARK                         _______ _______ _______ _____ _____    ______ ____
ROOT
ATOM      1  C   UNL     1      -6.623   5.183 132.240  0.00  0.00    +0.000 C 
ATOM      2  C   UNL     1      -5.899   6.097 133.096  0.00  0.00    +0.000 C 
ATOM      3  C   UNL     1      -4.445   6.294 132.859  0.00  0.00    +0.000 C 
ATOM      4  C   UNL     1      -3.778   5.101 133.462  0.00  0.00    +0.000 C 
ATOM      5  C   UNL     1      -4.340   4.071 132.466  0.00  0.00    +0.000 C 
ATOM      6  C   UNL     1      -5.342   4.866 131.493  0.00  0.00    +0.000 C 
ATOM      7  C   UNL     1      -4.319   6.080 131.333  0.00  0.00    +0.000 C 
ATOM      8  C   UNL     1      -4.565   7.289 131.012  0.00  0.00    +0.000 C 
ATOM      9  C   UNL     1      -3.904   7.392 129.944  0.00  0.00    +0.000 C 
ENDROOT
BRANCH   1  12
ATOM     10  C   UNL     1      -8.663   3.879 132.828  0.00  0.00    +0.000 C 
ATOM     11  O   UNL     1      -9.175   2.921 133.405  0.00  0.00    +0.000 OA
ATOM     12  N   UNL     1      -7.333   4.287 133.153  0.00  0.00    +0.000 N 
ATOM     13  H   UNL     1      -6.865   3.877 133.971  0.00  0.00    +0.000 HD
BRANCH  10  14
ATOM     14  C   UNL     1      -9.431   4.728 131.599  0.00  0.00    +0.000 C 
BRANCH  14  16
ATOM     15  C   UNL     1     -10.590   3.031 130.427  0.00  0.00    +0.000 C 
ATOM     16  N   UNL     1     -10.761   4.190 131.293  0.00  0.00    +0.000 NA
ATOM     17  H   UNL     1     -11.195   3.906 132.172  0.00  0.00    +0.000 HD
ENDBRANCH  14  16
BRANCH  14  18
ATOM     18  C   UNL     1      -9.558   6.431 131.678  0.00  0.00    +0.000 C 
BRANCH  18  19
ATOM     19  C   UNL     1      -9.149   7.265 130.404  0.00  0.00    +0.000 C 
BRANCH  19  20
ATOM     20  S   UNL     1     -10.376   7.401 129.064  0.00  0.00    +0.000 S 
ATOM     21  C   UNL     1     -11.801   7.849 129.992  0.00  0.00    +0.000 C 
ATOM     22  O   UNL     1     -10.193   8.475 128.110  0.00  0.00    +0.000 OA
ATOM     23  O   UNL     1     -10.517   6.054 128.545  0.00  0.00    +0.000 OA
ENDBRANCH  19  20
ENDBRANCH  18  19
ENDBRANCH  14  18
ENDBRANCH  10  14
ENDBRANCH   1  12
BRANCH   6  24
ATOM     24  C   UNL     1      -5.811   4.351 130.213  0.00  0.00    +0.000 C 
BRANCH  24  25
ATOM     25  S   UNL     1      -5.443   2.639 130.159  0.00  0.00    +0.000 S 
ATOM     26  O   UNL     1      -4.010   2.498 130.250  0.00  0.00    +0.000 OA
ATOM     27  O   UNL     1      -6.287   1.973 131.122  0.00  0.00    +0.000 OA
BRANCH  25  28
ATOM     28  N   UNL     1      -5.888   2.229 128.593  0.00  0.00    +0.000 NA
ATOM     29  C   UNL     1      -5.230   1.012 127.983  0.00  0.00    +0.000 C 
ATOM     30  C   UNL     1      -5.693  -0.295 128.672  0.00  0.00    +0.000 C 
ATOM     31  N   UNL     1      -7.127  -0.362 128.542  0.00  0.00    +0.000 N 
ATOM     32  C   UNL     1      -7.882   0.736 129.155  0.00  0.00    +0.000 C 
ATOM     33  C   UNL     1      -7.397   2.073 128.514  0.00  0.00    +0.000 C 
BRANCH  31  34
ATOM     34  C   UNL     1      -7.730  -1.525 128.150  0.00  0.00    +0.000 A 
ATOM     35  C   UNL     1      -8.172  -1.711 126.833  0.00  0.00    +0.000 A 
ATOM     36  C   UNL     1      -8.784  -2.903 126.449  0.00  0.00    +0.000 A 
ATOM     37  C   UNL     1      -8.976  -3.913 127.384  0.00  0.00    +0.000 A 
ATOM     38  C   UNL     1      -8.579  -3.724 128.705  0.00  0.00    +0.000 A 
ATOM     39  C   UNL     1      -7.961  -2.534 129.099  0.00  0.00    +0.000 A 
ATOM     40  C   UNL     1      -7.615  -2.330 130.548  0.00  0.00    +0.000 C 
ENDBRANCH  31  34
ENDBRANCH  25  28
ENDBRANCH  24  25
ENDBRANCH   6  24
TORSDOF 10
ENDMDL
MODEL 6
REMARK VINA RESULT:      -7.9      4.678      7.735
REMARK  Name = CHEMBL2391300
REMARK  15 active torsions:
REMARK  status: ('A' for Active; 'I' for Inactive)
REMARK    1  A    between atoms: C_1  and  N_2
REMARK    2  A    between atoms: N_2  and  C_3
REMARK    3  A    between atoms: C_3  and  C_4
REMARK    4  A    between atoms: C_3  and  C_10
REMARK    5  A    between atoms: C_4  and  C_5
REMARK    6  A    between atoms: C_5  and  S_6
REMARK    7  A    between atoms: S_6  and  C_7
REMARK    8  A    between atoms: N_12  and  C_13
REMARK    9  A    between atoms: C_18  and  C_19
REMARK   10  A    between atoms: C_19  and  S_20
REMARK   11  A    between atoms: S_20  and  N_23
REMARK   12  A    between atoms: N_26  and  C_27
REMARK   13  A    between atoms: C_32  and  C_33
REMARK   14  A    between atoms: C_36  and  C_37
REMARK   15  A    between atoms: C_36  and  C_38
REMARK                            x       y       z     vdW  Elec       q    Type
REMARK                         _______ _______ _______ _____ _____    ______ ____
ROOT
ATOM      1  C   UNL     1      -6.257   4.099 131.468  0.00  0.00    +0.000 C 
ATOM      2  C   UNL     1      -5.109   4.968 131.605  0.00  0.00    +0.000 C 
ATOM      3  C   UNL     1      -3.820   4.544 130.999  0.00  0.00    +0.000 C 
ATOM      4  C   UNL     1      -3.248   3.536 131.942  0.00  0.00    +0.000 C 
ATOM      5  C   UNL     1      -4.321   2.457 131.707  0.00  0.00    +0.000 C 
ATOM      6  C   UNL     1      -5.410   3.095 130.712  0.00  0.00    +0.000 C 
ATOM      7  C   UNL     1      -4.277   3.716 129.776  0.00  0.00    +0.000 C 
ATOM      8  C   UNL     1      -4.362   4.705 128.975  0.00  0.00    +0.000 C 
ATOM      9  C   UNL     1      -4.105   4.146 127.876  0.00  0.00    +0.000 C 
ENDROOT
BRANCH   1  12
ATOM     10  C   UNL     1      -8.188   4.013 133.041  0.00  0.00    +0.000 C 
ATOM     11  O   UNL     1      -8.675   3.603 134.094  0.00  0.00    +0.000 OA
ATOM     12  N   UNL     1      -6.778   3.938 132.826  0.00  0.00    +0.000 N 
ATOM     13  H   UNL     1      -6.160   3.684 133.609  0.00  0.00    +0.000 HD
BRANCH  10  14
ATOM     14  C   UNL     1      -9.111   4.616 131.775  0.00  0.00    +0.000 C 
BRANCH  14  16
ATOM     15  C   UNL     1      -9.956   2.492 131.168  0.00  0.00    +0.000 C 
ATOM     16  N   UNL     1     -10.338   3.843 131.558  0.00  0.00    +0.000 NA
ATOM     17  H   UNL     1     -10.854   3.818 132.439  0.00  0.00    +0.000 HD
ENDBRANCH  14  16
BRANCH  14  18
ATOM     18  C   UNL     1      -9.519   6.276 131.722  0.00  0.00    +0.000 C 
BRANCH  18  19
ATOM     19  C   UNL     1      -9.246   7.064 130.385  0.00  0.00    +0.000 C 
BRANCH  19  20
ATOM     20  S   UNL     1     -10.466   6.884 129.044  0.00  0.00    +0.000 S 
ATOM     21  C   UNL     1     -11.612   8.139 129.495  0.00  0.00    +0.000 C 
ATOM     22  O   UNL     1     -10.031   7.232 127.707  0.00  0.00    +0.000 OA
ATOM     23  O   UNL     1     -11.053   5.573 129.243  0.00  0.00    +0.000 OA
ENDBRANCH  19  20
ENDBRANCH  18  19
ENDBRANCH  14  18
ENDBRANCH  10  14
ENDBRANCH   1  12
BRANCH   6  24
ATOM     24  C   UNL     1      -6.388   2.311 129.969  0.00  0.00    +0.000 C 
BRANCH  24  25
ATOM     25  S   UNL     1      -6.417   0.701 130.657  0.00  0.00    +0.000 S 
ATOM     26  O   UNL     1      -5.197   0.037 130.262  0.00  0.00    +0.000 OA
ATOM     27  O   UNL     1      -6.741   0.821 132.058  0.00  0.00    +0.000 OA
BRANCH  25  28
ATOM     28  N   UNL     1      -7.676  -0.024 129.814  0.00  0.00    +0.000 NA
ATOM     29  C   UNL     1      -7.964   0.493 128.423  0.00  0.00    +0.000 C 
ATOM     30  C   UNL     1      -6.829   0.137 127.433  0.00  0.00    +0.000 C 
ATOM     31  N   UNL     1      -6.694  -1.298 127.435  0.00  0.00    +0.000 N 
ATOM     32  C   UNL     1      -6.349  -1.912 128.721  0.00  0.00    +0.000 C 
ATOM     33  C   UNL     1      -7.453  -1.525 129.753  0.00  0.00    +0.000 C 
BRANCH  31  34
ATOM     34  C   UNL     1      -6.591  -1.982 126.255  0.00  0.00    +0.000 A 
ATOM     35  C   UNL     1      -5.456  -1.864 125.440  0.00  0.00    +0.000 A 
ATOM     36  C   UNL     1      -5.365  -2.568 124.240  0.00  0.00    +0.000 A 
ATOM     37  C   UNL     1      -6.416  -3.382 123.836  0.00  0.00    +0.000 A 
ATOM     38  C   UNL     1      -7.565  -3.475 124.616  0.00  0.00    +0.000 A 
ATOM     39  C   UNL     1      -7.665  -2.777 125.822  0.00  0.00    +0.000 A 
ATOM     40  C   UNL     1      -8.948  -2.836 126.603  0.00  0.00    +0.000 C 
ENDBRANCH  31  34
ENDBRANCH  25  28
ENDBRANCH  24  25
ENDBRANCH   6  24
TORSDOF 10
ENDMDL
MODEL 7
REMARK VINA RESULT:      -7.8      1.740      3.046
REMARK  Name = CHEMBL2391300
REMARK  15 active torsions:
REMARK  status: ('A' for Active; 'I' for Inactive)
REMARK    1  A    between atoms: C_1  and  N_2
REMARK    2  A    between atoms: N_2  and  C_3
REMARK    3  A    between atoms: C_3  and  C_4
REMARK    4  A    between atoms: C_3  and  C_10
REMARK    5  A    between atoms: C_4  and  C_5
REMARK    6  A    between atoms: C_5  and  S_6
REMARK    7  A    between atoms: S_6  and  C_7
REMARK    8  A    between atoms: N_12  and  C_13
REMARK    9  A    between atoms: C_18  and  C_19
REMARK   10  A    between atoms: C_19  and  S_20
REMARK   11  A    between atoms: S_20  and  N_23
REMARK   12  A    between atoms: N_26  and  C_27
REMARK   13  A    between atoms: C_32  and  C_33
REMARK   14  A    between atoms: C_36  and  C_37
REMARK   15  A    between atoms: C_36  and  C_38
REMARK                            x       y       z     vdW  Elec       q    Type
REMARK                         _______ _______ _______ _____ _____    ______ ____
ROOT
ATOM      1  C   UNL     1      -7.047  -0.128 124.546  0.00  0.00    +0.000 C 
ATOM      2  C   UNL     1      -6.889  -0.609 123.192  0.00  0.00    +0.000 C 
ATOM      3  C   UNL     1      -6.831  -2.076 122.959  0.00  0.00    +0.000 C 
ATOM      4  C   UNL     1      -5.444  -2.485 123.334  0.00  0.00    +0.000 C 
ATOM      5  C   UNL     1      -5.583  -2.194 124.840  0.00  0.00    +0.000 C 
ATOM      6  C   UNL     1      -7.041  -1.555 125.056  0.00  0.00    +0.000 C 
ATOM      7  C   UNL     1      -7.721  -2.633 124.094  0.00  0.00    +0.000 C 
ATOM      8  C   UNL     1      -8.819  -2.544 123.453  0.00  0.00    +0.000 C 
ATOM      9  C   UNL     1      -9.472  -3.493 123.965  0.00  0.00    +0.000 C 
ENDROOT
BRANCH   1  12
ATOM     10  C   UNL     1      -6.259   2.053 125.458  0.00  0.00    +0.000 C 
ATOM     11  O   UNL     1      -5.337   2.753 125.874  0.00  0.00    +0.000 OA
ATOM     12  N   UNL     1      -5.980   0.857 124.729  0.00  0.00    +0.000 N 
ATOM     13  H   UNL     1      -5.018   0.665 124.423  0.00  0.00    +0.000 HD
BRANCH  10  14
ATOM     14  C   UNL     1      -7.876   2.392 125.757  0.00  0.00    +0.000 C 
BRANCH  14  16
ATOM     15  C   UNL     1      -8.324   3.137 123.556  0.00  0.00    +0.000 C 
ATOM     16  N   UNL     1      -8.721   2.177 124.577  0.00  0.00    +0.000 NA
ATOM     17  H   UNL     1      -8.557   1.226 124.242  0.00  0.00    +0.000 HD
ENDBRANCH  14  16
BRANCH  14  18
ATOM     18  C   UNL     1      -8.667   1.697 127.104  0.00  0.00    +0.000 C 
BRANCH  18  19
ATOM     19  C   UNL     1      -8.159   2.088 128.544  0.00  0.00    +0.000 C 
BRANCH  19  20
ATOM     20  S   UNL     1      -8.694   3.696 129.212  0.00  0.00    +0.000 S 
ATOM     21  C   UNL     1      -7.484   3.929 130.467  0.00  0.00    +0.000 C 
ATOM     22  O   UNL     1      -8.562   4.846 128.342  0.00  0.00    +0.000 OA
ATOM     23  O   UNL     1      -9.992   3.443 129.807  0.00  0.00    +0.000 OA
ENDBRANCH  19  20
ENDBRANCH  18  19
ENDBRANCH  14  18
ENDBRANCH  10  14
ENDBRANCH   1  12
BRANCH   6  24
ATOM     24  C   UNL     1      -7.702  -1.460 126.351  0.00  0.00    +0.000 C 
BRANCH  24  25
ATOM     25  S   UNL     1      -6.464  -1.527 127.589  0.00  0.00    +0.000 S 
ATOM     26  O   UNL     1      -5.844  -2.828 127.514  0.00  0.00    +0.000 OA
ATOM     27  O   UNL     1      -5.650  -0.342 127.467  0.00  0.00    +0.000 OA
BRANCH  25  28
ATOM     28  N   UNL     1      -7.371  -1.485 129.001  0.00  0.00    +0.000 NA
ATOM     29  C   UNL     1      -8.008  -2.779 129.453  0.00  0.00    +0.000 C 
ATOM     30  C   UNL     1      -6.949  -3.805 129.925  0.00  0.00    +0.000 C 
ATOM     31  N   UNL     1      -6.207  -3.190 130.998  0.00  0.00    +0.000 N 
ATOM     32  C   UNL     1      -5.488  -1.957 130.662  0.00  0.00    +0.000 C 
ATOM     33  C   UNL     1      -6.529  -0.922 130.133  0.00  0.00    +0.000 C 
BRANCH  31  34
ATOM     34  C   UNL     1      -5.950  -3.888 132.145  0.00  0.00    +0.000 A 
ATOM     35  C   UNL     1      -4.944  -4.862 132.198  0.00  0.00    +0.000 A 
ATOM     36  C   UNL     1      -4.693  -5.565 133.375  0.00  0.00    +0.000 A 
ATOM     37  C   UNL     1      -5.460  -5.312 134.506  0.00  0.00    +0.000 A 
ATOM     38  C   UNL     1      -6.490  -4.377 134.455  0.00  0.00    +0.000 A 
ATOM     39  C   UNL     1      -6.746  -3.665 133.281  0.00  0.00    +0.000 A 
ATOM     40  C   UNL     1      -7.914  -2.719 133.233  0.00  0.00    +0.000 C 
ENDBRANCH  31  34
ENDBRANCH  25  28
ENDBRANCH  24  25
ENDBRANCH   6  24
TORSDOF 10
ENDMDL
MODEL 8
REMARK VINA RESULT:      -7.8      5.340      8.398
REMARK  Name = CHEMBL2391300
REMARK  15 active torsions:
REMARK  status: ('A' for Active; 'I' for Inactive)
REMARK    1  A    between atoms: C_1  and  N_2
REMARK    2  A    between atoms: N_2  and  C_3
REMARK    3  A    between atoms: C_3  and  C_4
REMARK    4  A    between atoms: C_3  and  C_10
REMARK    5  A    between atoms: C_4  and  C_5
REMARK    6  A    between atoms: C_5  and  S_6
REMARK    7  A    between atoms: S_6  and  C_7
REMARK    8  A    between atoms: N_12  and  C_13
REMARK    9  A    between atoms: C_18  and  C_19
REMARK   10  A    between atoms: C_19  and  S_20
REMARK   11  A    between atoms: S_20  and  N_23
REMARK   12  A    between atoms: N_26  and  C_27
REMARK   13  A    between atoms: C_32  and  C_33
REMARK   14  A    between atoms: C_36  and  C_37
REMARK   15  A    between atoms: C_36  and  C_38
REMARK                            x       y       z     vdW  Elec       q    Type
REMARK                         _______ _______ _______ _____ _____    ______ ____
ROOT
ATOM      1  C   UNL     1      -8.112   4.842 131.865  0.00  0.00    +0.000 C 
ATOM      2  C   UNL     1      -8.234   5.689 133.032  0.00  0.00    +0.000 C 
ATOM      3  C   UNL     1      -7.341   5.435 134.192  0.00  0.00    +0.000 C 
ATOM      4  C   UNL     1      -7.933   4.262 134.903  0.00  0.00    +0.000 C 
ATOM      5  C   UNL     1      -7.658   3.234 133.790  0.00  0.00    +0.000 C 
ATOM      6  C   UNL     1      -7.025   4.044 132.556  0.00  0.00    +0.000 C 
ATOM      7  C   UNL     1      -6.064   4.878 133.520  0.00  0.00    +0.000 C 
ATOM      8  C   UNL     1      -5.522   6.014 133.312  0.00  0.00    +0.000 C 
ATOM      9  C   UNL     1      -4.301   5.709 133.369  0.00  0.00    +0.000 C 
ENDROOT
BRANCH   1  12
ATOM     10  C   UNL     1     -10.086   4.749 130.347  0.00  0.00    +0.000 C 
ATOM     11  O   UNL     1     -11.090   4.156 129.955  0.00  0.00    +0.000 OA
ATOM     12  N   UNL     1      -9.472   4.382 131.584  0.00  0.00    +0.000 N 
ATOM     13  H   UNL     1      -9.957   3.730 132.214  0.00  0.00    +0.000 HD
BRANCH  10  14
ATOM     14  C   UNL     1      -9.329   5.959 129.462  0.00  0.00    +0.000 C 
BRANCH  14  16
ATOM     15  C   UNL     1      -8.100   4.496 128.068  0.00  0.00    +0.000 C 
ATOM     16  N   UNL     1      -9.087   5.567 128.070  0.00  0.00    +0.000 NA
ATOM     17  H   UNL     1      -9.968   5.228 127.680  0.00  0.00    +0.000 HD
ENDBRANCH  14  16
BRANCH  14  18
ATOM     18  C   UNL     1      -9.964   7.547 129.458  0.00  0.00    +0.000 C 
BRANCH  18  19
ATOM     19  C   UNL     1     -11.520   7.724 129.642  0.00  0.00    +0.000 C 
BRANCH  19  20
ATOM     20  S   UNL     1     -12.550   7.682 128.140  0.00  0.00    +0.000 S 
ATOM     21  C   UNL     1     -11.317   7.931 126.911  0.00  0.00    +0.000 C 
ATOM     22  O   UNL     1     -13.170   6.418 127.802  0.00  0.00    +0.000 OA
ATOM     23  O   UNL     1     -13.405   8.849 128.238  0.00  0.00    +0.000 OA
ENDBRANCH  19  20
ENDBRANCH  18  19
ENDBRANCH  14  18
ENDBRANCH  10  14
ENDBRANCH   1  12
BRANCH   6  24
ATOM     24  C   UNL     1      -6.308   3.416 131.454  0.00  0.00    +0.000 C 
BRANCH  24  25
ATOM     25  S   UNL     1      -6.723   1.714 131.449  0.00  0.00    +0.000 S 
ATOM     26  O   UNL     1      -6.261   1.149 132.695  0.00  0.00    +0.000 OA
ATOM     27  O   UNL     1      -8.114   1.596 131.085  0.00  0.00    +0.000 OA
BRANCH  25  28
ATOM     28  N   UNL     1      -5.736   1.111 130.231  0.00  0.00    +0.000 NA
ATOM     29  C   UNL     1      -5.440  -0.371 130.251  0.00  0.00    +0.000 C 
ATOM     30  C   UNL     1      -6.697  -1.212 129.926  0.00  0.00    +0.000 C 
ATOM     31  N   UNL     1      -7.166  -0.796 128.627  0.00  0.00    +0.000 N 
ATOM     32  C   UNL     1      -7.549   0.614 128.501  0.00  0.00    +0.000 C 
ATOM     33  C   UNL     1      -6.311   1.486 128.875  0.00  0.00    +0.000 C 
BRANCH  31  34
ATOM     34  C   UNL     1      -7.515  -1.728 127.690  0.00  0.00    +0.000 A 
ATOM     35  C   UNL     1      -8.500  -2.690 127.949  0.00  0.00    +0.000 A 
ATOM     36  C   UNL     1      -8.846  -3.634 126.983  0.00  0.00    +0.000 A 
ATOM     37  C   UNL     1      -8.197  -3.634 125.755  0.00  0.00    +0.000 A 
ATOM     38  C   UNL     1      -7.188  -2.710 125.501  0.00  0.00    +0.000 A 
ATOM     39  C   UNL     1      -6.836  -1.757 126.461  0.00  0.00    +0.000 A 
ATOM     40  C   UNL     1      -5.690  -0.823 126.186  0.00  0.00    +0.000 C 
ENDBRANCH  31  34
ENDBRANCH  25  28
ENDBRANCH  24  25
ENDBRANCH   6  24
TORSDOF 10
ENDMDL
MODEL 9
REMARK VINA RESULT:      -7.8      4.707      8.200
REMARK  Name = CHEMBL2391300
REMARK  15 active torsions:
REMARK  status: ('A' for Active; 'I' for Inactive)
REMARK    1  A    between atoms: C_1  and  N_2
REMARK    2  A    between atoms: N_2  and  C_3
REMARK    3  A    between atoms: C_3  and  C_4
REMARK    4  A    between atoms: C_3  and  C_10
REMARK    5  A    between atoms: C_4  and  C_5
REMARK    6  A    between atoms: C_5  and  S_6
REMARK    7  A    between atoms: S_6  and  C_7
REMARK    8  A    between atoms: N_12  and  C_13
REMARK    9  A    between atoms: C_18  and  C_19
REMARK   10  A    between atoms: C_19  and  S_20
REMARK   11  A    between atoms: S_20  and  N_23
REMARK   12  A    between atoms: N_26  and  C_27
REMARK   13  A    between atoms: C_32  and  C_33
REMARK   14  A    between atoms: C_36  and  C_37
REMARK   15  A    between atoms: C_36  and  C_38
REMARK                            x       y       z     vdW  Elec       q    Type
REMARK                         _______ _______ _______ _____ _____    ______ ____
ROOT
ATOM      1  C   UNL     1      -6.070   4.731 131.325  0.00  0.00    +0.000 C 
ATOM      2  C   UNL     1      -4.943   5.577 131.650  0.00  0.00    +0.000 C 
ATOM      3  C   UNL     1      -3.640   5.312 130.987  0.00  0.00    +0.000 C 
ATOM      4  C   UNL     1      -3.054   4.145 131.711  0.00  0.00    +0.000 C 
ATOM      5  C   UNL     1      -4.100   3.115 131.247  0.00  0.00    +0.000 C 
ATOM      6  C   UNL     1      -5.194   3.921 130.390  0.00  0.00    +0.000 C 
ATOM      7  C   UNL     1      -4.067   4.743 129.615  0.00  0.00    +0.000 C 
ATOM      8  C   UNL     1      -4.169   5.874 129.032  0.00  0.00    +0.000 C 
ATOM      9  C   UNL     1      -3.889   5.556 127.845  0.00  0.00    +0.000 C 
ENDROOT
BRANCH   1  12
ATOM     10  C   UNL     1      -8.003   4.063 132.748  0.00  0.00    +0.000 C 
ATOM     11  O   UNL     1      -8.440   3.424 133.705  0.00  0.00    +0.000 OA
ATOM     12  N   UNL     1      -6.598   4.285 132.614  0.00  0.00    +0.000 N 
ATOM     13  H   UNL     1      -5.972   4.044 133.393  0.00  0.00    +0.000 HD
BRANCH  10  14
ATOM     14  C   UNL     1      -8.979   4.655 131.517  0.00  0.00    +0.000 C 
BRANCH  14  16
ATOM     15  C   UNL     1      -9.797   2.840 130.238  0.00  0.00    +0.000 C 
ATOM     16  N   UNL     1     -10.149   3.806 131.271  0.00  0.00    +0.000 NA
ATOM     17  H   UNL     1     -10.372   3.318 132.141  0.00  0.00    +0.000 HD
ENDBRANCH  14  16
BRANCH  14  18
ATOM     18  C   UNL     1      -9.508   6.281 131.544  0.00  0.00    +0.000 C 
BRANCH  18  19
ATOM     19  C   UNL     1      -9.303   7.149 130.244  0.00  0.00    +0.000 C 
BRANCH  19  20
ATOM     20  S   UNL     1     -10.391   6.799 128.825  0.00  0.00    +0.000 S 
ATOM     21  C   UNL     1     -11.059   8.401 128.543  0.00  0.00    +0.000 C 
ATOM     22  O   UNL     1      -9.750   6.432 127.579  0.00  0.00    +0.000 OA
ATOM     23  O   UNL     1     -11.413   5.912 129.346  0.00  0.00    +0.000 OA
ENDBRANCH  19  20
ENDBRANCH  18  19
ENDBRANCH  14  18
ENDBRANCH  10  14
ENDBRANCH   1  12
BRANCH   6  24
ATOM     24  C   UNL     1      -6.149   3.286 129.490  0.00  0.00    +0.000 C 
BRANCH  24  25
ATOM     25  S   UNL     1      -5.367   1.888 128.782  0.00  0.00    +0.000 S 
ATOM     26  O   UNL     1      -3.941   2.100 128.859  0.00  0.00    +0.000 OA
ATOM     27  O   UNL     1      -5.944   0.707 129.377  0.00  0.00    +0.000 OA
BRANCH  25  28
ATOM     28  N   UNL     1      -5.805   2.016 127.166  0.00  0.00    +0.000 NA
ATOM     29  C   UNL     1      -5.170   1.042 126.198  0.00  0.00    +0.000 C 
ATOM     30  C   UNL     1      -5.672  -0.404 126.428  0.00  0.00    +0.000 C 
ATOM     31  N   UNL     1      -7.106  -0.388 126.281  0.00  0.00    +0.000 N 
ATOM     32  C   UNL     1      -7.841   0.473 127.213  0.00  0.00    +0.000 C 
ATOM     33  C   UNL     1      -7.316   1.932 127.038  0.00  0.00    +0.000 C 
BRANCH  31  34
ATOM     34  C   UNL     1      -7.732  -1.347 125.535  0.00  0.00    +0.000 A 
ATOM     35  C   UNL     1      -7.973  -2.629 126.046  0.00  0.00    +0.000 A 
ATOM     36  C   UNL     1      -8.613  -3.596 125.273  0.00  0.00    +0.000 A 
ATOM     37  C   UNL     1      -9.002  -3.294 123.974  0.00  0.00    +0.000 A 
ATOM     38  C   UNL     1      -8.732  -2.038 123.440  0.00  0.00    +0.000 A 
ATOM     39  C   UNL     1      -8.094  -1.060 124.208  0.00  0.00    +0.000 A 
ATOM     40  C   UNL     1      -7.746   0.260 123.578  0.00  0.00    +0.000 C 
ENDBRANCH  31  34
ENDBRANCH  25  28
ENDBRANCH  24  25
ENDBRANCH   6  24
TORSDOF 10
ENDMDL
