MODEL 1
REMARK VINA RESULT:      -9.0      0.000      0.000
REMARK  Name = CHEMBL377414
REMARK  10 active torsions:
REMARK  status: ('A' for Active; 'I' for Inactive)
REMARK    1  A    between atoms: CD1_1  and  CG_2
REMARK    2  A    between atoms: CG_2  and  CD2_3
REMARK    3  A    between atoms: CG_2  and  CB_4
REMARK    4  A    between atoms: CB_4  and  CA_5
REMARK    5  A    between atoms: C_9  and  C_10
REMARK    6  A    between atoms: N_21  and  C_22
REMARK    7  A    between atoms: C_22  and  C_23
REMARK    8  A    between atoms: C_22  and  C_28
REMARK    9  A    between atoms: N_25  and  C_26
REMARK   10  A    between atoms: N_25  and  C_27
REMARK                            x       y       z     vdW  Elec       q    Type
REMARK                         _______ _______ _______ _____ _____    ______ ____
ROOT
ATOM      1  CA  LEU A   2      -8.253   2.628 128.857  0.00  0.00    +0.000 C 
ATOM      2  C   LEU A   2      -7.936   4.075 128.360  0.00  0.00    +0.000 C 
ATOM      3  O   LEU A   2      -7.248   4.429 127.429  0.00  0.00    +0.000 OA
ATOM      4  N   UNK A   1      -8.549   5.008 129.107  0.00  0.00    +0.000 N 
ATOM      5  C   UNK A   1      -9.394   4.659 130.214  0.00  0.00    +0.000 C 
ATOM      6  C   UNK A   1      -8.688   3.619 131.090  0.00  0.00    +0.000 C 
ATOM      7  O   UNK A   1      -8.885   3.667 132.289  0.00  0.00    +0.000 OA
ATOM      8  N   LEU A   2      -7.933   2.650 130.388  0.00  0.00    +0.000 N 
ATOM      9  H   UNK A   1      -8.374   5.946 128.775  0.00  0.00    +0.000 HD
ENDROOT
BRANCH   5  10
ATOM     10  C   UNK A   1      -9.689   5.877 131.100  0.00  0.00    +0.000 C 
ATOM     11  C   UNK A   1     -11.204   5.996 131.303  0.00  0.00    +0.000 C 
ATOM     12  C   UNK A   1     -11.578   6.889 130.155  0.00  0.00    +0.000 A 
ATOM     13  C   UNK A   1     -12.791   6.929 129.492  0.00  0.00    +0.000 A 
ATOM     14  C   UNK A   1     -12.881   7.695 128.327  0.00  0.00    +0.000 A 
ATOM     15  C   UNK A   1     -11.764   8.385 127.829  0.00  0.00    +0.000 A 
ATOM     16  C   UNK A   1     -10.531   8.311 128.480  0.00  0.00    +0.000 A 
ATOM     17  C   UNK A   1     -10.457   7.567 129.646  0.00  0.00    +0.000 A 
ATOM     18  C   UNK A   1      -9.226   7.202 130.421  0.00  0.00    +0.000 C 
ENDBRANCH   5  10
BRANCH   1  19
ATOM     19  CB  LEU A   2      -7.393   1.804 127.947  0.00  0.00    +0.000 C 
BRANCH  19  21
ATOM     20  CD1 LEU A   2      -9.097   0.599 126.102  0.00  0.00    +0.000 C 
ATOM     21  CG  LEU A   2      -7.917   0.517 127.172  0.00  0.00    +0.000 C 
ATOM     22  CD2 LEU A   2      -6.805  -0.248 126.458  0.00  0.00    +0.000 C 
ENDBRANCH  19  21
ENDBRANCH   1  19
BRANCH   8  23
ATOM     23  C   UNK A   0      -6.829   1.807 131.171  0.00  0.00    +0.000 C 
BRANCH  23  24
ATOM     24  C   UNK A   0      -6.844   0.250 130.770  0.00  0.00    +0.000 A 
ATOM     25  C   UNK A   0      -5.670  -0.402 130.282  0.00  0.00    +0.000 A 
ATOM     26  C   UNK A   0      -5.735  -1.687 129.692  0.00  0.00    +0.000 A 
ATOM     27  C   UNK A   0      -6.922  -2.401 129.706  0.00  0.00    +0.000 A 
ATOM     28  F   UNK A   0      -7.008  -3.619 129.160  0.00  0.00    +0.000 F 
ATOM     29  C   UNK A   0      -8.037  -1.854 130.271  0.00  0.00    +0.000 A 
ATOM     30  C   UNK A   0      -7.994  -0.563 130.761  0.00  0.00    +0.000 A 
ATOM     31  F   UNK A   0      -9.194  -0.216 131.194  0.00  0.00    +0.000 F 
ENDBRANCH  23  24
BRANCH  23  32
ATOM     32  C   UNK A   0      -6.577   2.025 132.871  0.00  0.00    +0.000 C 
ATOM     33  O   UNK A   0      -7.102   1.312 133.719  0.00  0.00    +0.000 OA
ATOM     34  N   UNK A   0      -5.776   2.969 133.490  0.00  0.00    +0.000 N 
ATOM     35  C   UNK A   0      -5.133   4.023 132.895  0.00  0.00    +0.000 C 
ATOM     36  C   UNK A   0      -5.820   3.274 134.886  0.00  0.00    +0.000 C 
ENDBRANCH  23  32
ENDBRANCH   8  23
TORSDOF 6
ENDMDL
MODEL 2
REMARK VINA RESULT:      -8.9      2.873      4.681
REMARK  Name = CHEMBL377414
REMARK  10 active torsions:
REMARK  status: ('A' for Active; 'I' for Inactive)
REMARK    1  A    between atoms: CD1_1  and  CG_2
REMARK    2  A    between atoms: CG_2  and  CD2_3
REMARK    3  A    between atoms: CG_2  and  CB_4
REMARK    4  A    between atoms: CB_4  and  CA_5
REMARK    5  A    between atoms: C_9  and  C_10
REMARK    6  A    between atoms: N_21  and  C_22
REMARK    7  A    between atoms: C_22  and  C_23
REMARK    8  A    between atoms: C_22  and  C_28
REMARK    9  A    between atoms: N_25  and  C_26
REMARK   10  A    between atoms: N_25  and  C_27
REMARK                            x       y       z     vdW  Elec       q    Type
REMARK                         _______ _______ _______ _____ _____    ______ ____
ROOT
ATOM      1  CA  LEU A   2      -8.906   3.394 130.621  0.00  0.00    +0.000 C 
ATOM      2  C   LEU A   2      -8.782   4.246 129.317  0.00  0.00    +0.000 C 
ATOM      3  O   LEU A   2      -8.185   3.994 128.294  0.00  0.00    +0.000 OA
ATOM      4  N   UNK A   1      -9.463   5.400 129.403  0.00  0.00    +0.000 N 
ATOM      5  C   UNK A   1     -10.208   5.755 130.579  0.00  0.00    +0.000 C 
ATOM      6  C   UNK A   1      -9.346   5.520 131.823  0.00  0.00    +0.000 C 
ATOM      7  O   UNK A   1      -9.490   6.284 132.759  0.00  0.00    +0.000 OA
ATOM      8  N   LEU A   2      -8.517   4.374 131.778  0.00  0.00    +0.000 N 
ATOM      9  H   UNK A   1      -9.414   5.944 128.554  0.00  0.00    +0.000 HD
ENDROOT
BRANCH   5  10
ATOM     10  C   UNK A   1     -10.600   7.239 130.568  0.00  0.00    +0.000 C 
ATOM     11  C   UNK A   1     -12.128   7.356 130.531  0.00  0.00    +0.000 C 
ATOM     12  C   UNK A   1     -12.377   7.400 129.050  0.00  0.00    +0.000 A 
ATOM     13  C   UNK A   1     -13.511   6.975 128.383  0.00  0.00    +0.000 A 
ATOM     14  C   UNK A   1     -13.474   6.925 126.987  0.00  0.00    +0.000 A 
ATOM     15  C   UNK A   1     -12.311   7.273 126.282  0.00  0.00    +0.000 A 
ATOM     16  C   UNK A   1     -11.157   7.666 126.961  0.00  0.00    +0.000 A 
ATOM     17  C   UNK A   1     -11.208   7.733 128.344  0.00  0.00    +0.000 A 
ATOM     18  C   UNK A   1     -10.068   7.959 129.291  0.00  0.00    +0.000 C 
ENDBRANCH   5  10
BRANCH   1  19
ATOM     19  CB  LEU A   2      -8.000   2.241 130.313  0.00  0.00    +0.000 C 
BRANCH  19  21
ATOM     20  CD1 LEU A   2      -7.315  -0.441 130.631  0.00  0.00    +0.000 C 
ATOM     21  CG  LEU A   2      -8.406   0.720 130.550  0.00  0.00    +0.000 C 
ATOM     22  CD2 LEU A   2      -9.274   0.517 131.789  0.00  0.00    +0.000 C 
ENDBRANCH  19  21
ENDBRANCH   1  19
BRANCH   8  23
ATOM     23  C   UNK A   0      -7.287   4.262 132.785  0.00  0.00    +0.000 C 
BRANCH  23  24
ATOM     24  C   UNK A   0      -6.158   5.371 132.504  0.00  0.00    +0.000 A 
ATOM     25  C   UNK A   0      -6.027   5.987 131.221  0.00  0.00    +0.000 A 
ATOM     26  C   UNK A   0      -4.891   6.765 130.892  0.00  0.00    +0.000 A 
ATOM     27  C   UNK A   0      -3.946   7.063 131.861  0.00  0.00    +0.000 A 
ATOM     28  F   UNK A   0      -2.866   7.799 131.578  0.00  0.00    +0.000 F 
ATOM     29  C   UNK A   0      -4.101   6.587 133.130  0.00  0.00    +0.000 A 
ATOM     30  C   UNK A   0      -5.162   5.751 133.424  0.00  0.00    +0.000 A 
ATOM     31  F   UNK A   0      -5.076   5.357 134.683  0.00  0.00    +0.000 F 
ENDBRANCH  23  24
BRANCH  23  32
ATOM     32  C   UNK A   0      -6.588   2.726 133.175  0.00  0.00    +0.000 C 
ATOM     33  O   UNK A   0      -7.020   2.002 134.066  0.00  0.00    +0.000 OA
ATOM     34  N   UNK A   0      -5.509   2.111 132.561  0.00  0.00    +0.000 N 
ATOM     35  C   UNK A   0      -4.677   2.655 131.618  0.00  0.00    +0.000 C 
ATOM     36  C   UNK A   0      -4.812   0.983 133.095  0.00  0.00    +0.000 C 
ENDBRANCH  23  32
ENDBRANCH   8  23
TORSDOF 6
ENDMDL
MODEL 3
REMARK VINA RESULT:      -8.9      3.312      4.397
REMARK  Name = CHEMBL377414
REMARK  10 active torsions:
REMARK  status: ('A' for Active; 'I' for Inactive)
REMARK    1  A    between atoms: CD1_1  and  CG_2
REMARK    2  A    between atoms: CG_2  and  CD2_3
REMARK    3  A    between atoms: CG_2  and  CB_4
REMARK    4  A    between atoms: CB_4  and  CA_5
REMARK    5  A    between atoms: C_9  and  C_10
REMARK    6  A    between atoms: N_21  and  C_22
REMARK    7  A    between atoms: C_22  and  C_23
REMARK    8  A    between atoms: C_22  and  C_28
REMARK    9  A    between atoms: N_25  and  C_26
REMARK   10  A    between atoms: N_25  and  C_27
REMARK                            x       y       z     vdW  Elec       q    Type
REMARK                         _______ _______ _______ _____ _____    ______ ____
ROOT
ATOM      1  CA  LEU A   2      -7.693   3.336 129.703  0.00  0.00    +0.000 C 
ATOM      2  C   LEU A   2      -8.224   4.300 128.594  0.00  0.00    +0.000 C 
ATOM      3  O   LEU A   2      -8.062   4.248 127.395  0.00  0.00    +0.000 OA
ATOM      4  N   UNK A   1      -8.961   5.299 129.107  0.00  0.00    +0.000 N 
ATOM      5  C   UNK A   1      -9.209   5.411 130.517  0.00  0.00    +0.000 C 
ATOM      6  C   UNK A   1      -7.895   5.238 131.285  0.00  0.00    +0.000 C 
ATOM      7  O   UNK A   1      -7.751   5.882 132.306  0.00  0.00    +0.000 OA
ATOM      8  N   LEU A   2      -7.008   4.271 130.754  0.00  0.00    +0.000 N 
ATOM      9  H   UNK A   1      -9.334   5.910 128.395  0.00  0.00    +0.000 HD
ENDROOT
BRANCH   5  10
ATOM     10  C   UNK A   1      -9.770   6.794 130.879  0.00  0.00    +0.000 C 
ATOM     11  C   UNK A   1     -11.290   6.691 131.050  0.00  0.00    +0.000 C 
ATOM     12  C   UNK A   1     -11.757   6.997 129.656  0.00  0.00    +0.000 A 
ATOM     13  C   UNK A   1     -12.919   6.554 129.051  0.00  0.00    +0.000 A 
ATOM     14  C   UNK A   1     -13.082   6.792 127.684  0.00  0.00    +0.000 A 
ATOM     15  C   UNK A   1     -12.084   7.442 126.939  0.00  0.00    +0.000 A 
ATOM     16  C   UNK A   1     -10.897   7.853 127.546  0.00  0.00    +0.000 A 
ATOM     17  C   UNK A   1     -10.752   7.632 128.906  0.00  0.00    +0.000 A 
ATOM     18  C   UNK A   1      -9.519   7.827 129.738  0.00  0.00    +0.000 C 
ENDBRANCH   5  10
BRANCH   1  19
ATOM     19  CB  LEU A   2      -6.841   2.398 128.902  0.00  0.00    +0.000 C 
BRANCH  19  21
ATOM     20  CD1 LEU A   2      -8.132   0.608 127.202  0.00  0.00    +0.000 C 
ATOM     21  CG  LEU A   2      -7.287   0.919 128.518  0.00  0.00    +0.000 C 
ATOM     22  CD2 LEU A   2      -6.121  -0.064 128.466  0.00  0.00    +0.000 C 
ENDBRANCH  19  21
ENDBRANCH   1  19
BRANCH   8  23
ATOM     23  C   UNK A   0      -5.473   4.304 131.183  0.00  0.00    +0.000 C 
BRANCH  23  24
ATOM     24  C   UNK A   0      -4.553   5.085 130.120  0.00  0.00    +0.000 A 
ATOM     25  C   UNK A   0      -3.631   4.385 129.282  0.00  0.00    +0.000 A 
ATOM     26  C   UNK A   0      -2.647   5.076 128.535  0.00  0.00    +0.000 A 
ATOM     27  C   UNK A   0      -2.650   6.461 128.492  0.00  0.00    +0.000 A 
ATOM     28  F   UNK A   0      -1.734   7.138 127.790  0.00  0.00    +0.000 F 
ATOM     29  C   UNK A   0      -3.592   7.161 129.188  0.00  0.00    +0.000 A 
ATOM     30  C   UNK A   0      -4.492   6.486 129.990  0.00  0.00    +0.000 A 
ATOM     31  F   UNK A   0      -5.260   7.359 130.621  0.00  0.00    +0.000 F 
ENDBRANCH  23  24
BRANCH  23  32
ATOM     32  C   UNK A   0      -4.682   2.886 131.788  0.00  0.00    +0.000 C 
ATOM     33  O   UNK A   0      -5.078   1.750 131.552  0.00  0.00    +0.000 OA
ATOM     34  N   UNK A   0      -3.539   2.827 132.567  0.00  0.00    +0.000 N 
ATOM     35  C   UNK A   0      -2.880   3.879 133.147  0.00  0.00    +0.000 C 
ATOM     36  C   UNK A   0      -3.093   1.657 133.257  0.00  0.00    +0.000 C 
ENDBRANCH  23  32
ENDBRANCH   8  23
TORSDOF 6
ENDMDL
MODEL 4
REMARK VINA RESULT:      -8.9      2.979      8.280
REMARK  Name = CHEMBL377414
REMARK  10 active torsions:
REMARK  status: ('A' for Active; 'I' for Inactive)
REMARK    1  A    between atoms: CD1_1  and  CG_2
REMARK    2  A    between atoms: CG_2  and  CD2_3
REMARK    3  A    between atoms: CG_2  and  CB_4
REMARK    4  A    between atoms: CB_4  and  CA_5
REMARK    5  A    between atoms: C_9  and  C_10
REMARK    6  A    between atoms: N_21  and  C_22
REMARK    7  A    between atoms: C_22  and  C_23
REMARK    8  A    between atoms: C_22  and  C_28
REMARK    9  A    between atoms: N_25  and  C_26
REMARK   10  A    between atoms: N_25  and  C_27
REMARK                            x       y       z     vdW  Elec       q    Type
REMARK                         _______ _______ _______ _____ _____    ______ ____
ROOT
ATOM      1  CA  LEU A   2      -7.208   1.876 131.690  0.00  0.00    +0.000 C 
ATOM      2  C   LEU A   2      -5.903   1.067 131.398  0.00  0.00    +0.000 C 
ATOM      3  O   LEU A   2      -4.816   1.157 131.923  0.00  0.00    +0.000 OA
ATOM      4  N   UNK A   1      -6.083   0.157 130.427  0.00  0.00    +0.000 N 
ATOM      5  C   UNK A   1      -7.351  -0.016 129.775  0.00  0.00    +0.000 C 
ATOM      6  C   UNK A   1      -7.910   1.351 129.369  0.00  0.00    +0.000 C 
ATOM      7  O   UNK A   1      -8.553   1.411 128.338  0.00  0.00    +0.000 OA
ATOM      8  N   LEU A   2      -7.678   2.398 130.292  0.00  0.00    +0.000 N 
ATOM      9  H   UNK A   1      -5.253  -0.392 130.252  0.00  0.00    +0.000 HD
ENDROOT
BRANCH   5  10
ATOM     10  C   UNK A   1      -7.212  -0.852 128.495  0.00  0.00    +0.000 C 
ATOM     11  C   UNK A   1      -7.794  -2.249 128.742  0.00  0.00    +0.000 C 
ATOM     12  C   UNK A   1      -6.576  -2.988 129.215  0.00  0.00    +0.000 A 
ATOM     13  C   UNK A   1      -6.540  -4.075 130.069  0.00  0.00    +0.000 A 
ATOM     14  C   UNK A   1      -5.296  -4.503 130.540  0.00  0.00    +0.000 A 
ATOM     15  C   UNK A   1      -4.117  -3.833 130.175  0.00  0.00    +0.000 A 
ATOM     16  C   UNK A   1      -4.161  -2.714 129.343  0.00  0.00    +0.000 A 
ATOM     17  C   UNK A   1      -5.396  -2.309 128.864  0.00  0.00    +0.000 A 
ATOM     18  C   UNK A   1      -5.716  -1.056 128.106  0.00  0.00    +0.000 C 
ENDBRANCH   5  10
BRANCH   1  19
ATOM     19  CB  LEU A   2      -6.727   2.864 132.709  0.00  0.00    +0.000 C 
BRANCH  19  21
ATOM     20  CD1 LEU A   2      -7.571   5.006 134.277  0.00  0.00    +0.000 C 
ATOM     21  CG  LEU A   2      -7.656   3.473 133.849  0.00  0.00    +0.000 C 
ATOM     22  CD2 LEU A   2      -9.143   3.225 133.606  0.00  0.00    +0.000 C 
ENDBRANCH  19  21
ENDBRANCH   1  19
BRANCH   8  23
ATOM     23  C   UNK A   0      -7.814   3.910 129.805  0.00  0.00    +0.000 C 
BRANCH  23  24
ATOM     24  C   UNK A   0      -9.139   4.622 130.372  0.00  0.00    +0.000 A 
ATOM     25  C   UNK A   0     -10.432   4.043 130.182  0.00  0.00    +0.000 A 
ATOM     26  C   UNK A   0     -11.612   4.778 130.448  0.00  0.00    +0.000 A 
ATOM     27  C   UNK A   0     -11.536   6.030 131.036  0.00  0.00    +0.000 A 
ATOM     28  F   UNK A   0     -12.636   6.743 131.302  0.00  0.00    +0.000 F 
ATOM     29  C   UNK A   0     -10.318   6.565 131.339  0.00  0.00    +0.000 A 
ATOM     30  C   UNK A   0      -9.166   5.886 130.993  0.00  0.00    +0.000 A 
ATOM     31  F   UNK A   0      -8.111   6.615 131.315  0.00  0.00    +0.000 F 
ENDBRANCH  23  24
BRANCH  23  32
ATOM     32  C   UNK A   0      -7.511   4.348 128.157  0.00  0.00    +0.000 C 
ATOM     33  O   UNK A   0      -8.352   4.886 127.444  0.00  0.00    +0.000 OA
ATOM     34  N   UNK A   0      -6.335   4.186 127.444  0.00  0.00    +0.000 N 
ATOM     35  C   UNK A   0      -5.214   3.508 127.846  0.00  0.00    +0.000 C 
ATOM     36  C   UNK A   0      -6.228   4.313 126.024  0.00  0.00    +0.000 C 
ENDBRANCH  23  32
ENDBRANCH   8  23
TORSDOF 6
ENDMDL
MODEL 5
REMARK VINA RESULT:      -8.9      2.523      3.972
REMARK  Name = CHEMBL377414
REMARK  10 active torsions:
REMARK  status: ('A' for Active; 'I' for Inactive)
REMARK    1  A    between atoms: CD1_1  and  CG_2
REMARK    2  A    between atoms: CG_2  and  CD2_3
REMARK    3  A    between atoms: CG_2  and  CB_4
REMARK    4  A    between atoms: CB_4  and  CA_5
REMARK    5  A    between atoms: C_9  and  C_10
REMARK    6  A    between atoms: N_21  and  C_22
REMARK    7  A    between atoms: C_22  and  C_23
REMARK    8  A    between atoms: C_22  and  C_28
REMARK    9  A    between atoms: N_25  and  C_26
REMARK   10  A    between atoms: N_25  and  C_27
REMARK                            x       y       z     vdW  Elec       q    Type
REMARK                         _______ _______ _______ _____ _____    ______ ____
ROOT
ATOM      1  CA  LEU A   2      -8.224   2.657 128.761  0.00  0.00    +0.000 C 
ATOM      2  C   LEU A   2      -8.123   4.094 128.158  0.00  0.00    +0.000 C 
ATOM      3  O   LEU A   2      -7.701   4.441 127.078  0.00  0.00    +0.000 OA
ATOM      4  N   UNK A   1      -8.594   5.028 129.001  0.00  0.00    +0.000 N 
ATOM      5  C   UNK A   1      -9.127   4.686 130.291  0.00  0.00    +0.000 C 
ATOM      6  C   UNK A   1      -8.170   3.723 131.002  0.00  0.00    +0.000 C 
ATOM      7  O   UNK A   1      -8.076   3.815 132.211  0.00  0.00    +0.000 OA
ATOM      8  N   LEU A   2      -7.548   2.763 130.168  0.00  0.00    +0.000 N 
ATOM      9  H   UNK A   1      -8.561   5.957 128.608  0.00  0.00    +0.000 HD
ENDROOT
BRANCH   5  10
ATOM     10  C   UNK A   1      -9.273   5.927 131.183  0.00  0.00    +0.000 C 
ATOM     11  C   UNK A   1     -10.733   6.051 131.634  0.00  0.00    +0.000 C 
ATOM     12  C   UNK A   1     -11.298   6.915 130.544  0.00  0.00    +0.000 A 
ATOM     13  C   UNK A   1     -12.605   6.939 130.094  0.00  0.00    +0.000 A 
ATOM     14  C   UNK A   1     -12.892   7.675 128.941  0.00  0.00    +0.000 A 
ATOM     15  C   UNK A   1     -11.877   8.352 128.245  0.00  0.00    +0.000 A 
ATOM     16  C   UNK A   1     -10.553   8.294 128.682  0.00  0.00    +0.000 A 
ATOM     17  C   UNK A   1     -10.281   7.579 129.837  0.00  0.00    +0.000 A 
ATOM     18  C   UNK A   1      -8.936   7.233 130.403  0.00  0.00    +0.000 C 
ENDBRANCH   5  10
BRANCH   1  19
ATOM     19  CB  LEU A   2      -7.559   1.837 127.697  0.00  0.00    +0.000 C 
BRANCH  19  21
ATOM     20  CD1 LEU A   2      -9.379   0.735 125.899  0.00  0.00    +0.000 C 
ATOM     21  CG  LEU A   2      -8.242   0.577 127.006  0.00  0.00    +0.000 C 
ATOM     22  CD2 LEU A   2      -7.233  -0.385 126.384  0.00  0.00    +0.000 C 
ENDBRANCH  19  21
ENDBRANCH   1  19
BRANCH   8  23
ATOM     23  C   UNK A   0      -6.240   2.014 130.687  0.00  0.00    +0.000 C 
BRANCH  23  24
ATOM     24  C   UNK A   0      -4.931   2.946 130.626  0.00  0.00    +0.000 A 
ATOM     25  C   UNK A   0      -4.230   3.317 131.814  0.00  0.00    +0.000 A 
ATOM     26  C   UNK A   0      -3.242   4.331 131.798  0.00  0.00    +0.000 A 
ATOM     27  C   UNK A   0      -2.835   4.888 130.596  0.00  0.00    +0.000 A 
ATOM     28  F   UNK A   0      -1.901   5.845 130.553  0.00  0.00    +0.000 F 
ATOM     29  C   UNK A   0      -3.403   4.472 129.427  0.00  0.00    +0.000 A 
ATOM     30  C   UNK A   0      -4.432   3.550 129.456  0.00  0.00    +0.000 A 
ATOM     31  F   UNK A   0      -4.875   3.347 128.227  0.00  0.00    +0.000 F 
ENDBRANCH  23  24
BRANCH  23  32
ATOM     32  C   UNK A   0      -5.887   0.389 130.198  0.00  0.00    +0.000 C 
ATOM     33  O   UNK A   0      -4.808   0.055 129.723  0.00  0.00    +0.000 OA
ATOM     34  N   UNK A   0      -6.718  -0.715 130.285  0.00  0.00    +0.000 N 
ATOM     35  C   UNK A   0      -8.043  -0.726 130.635  0.00  0.00    +0.000 C 
ATOM     36  C   UNK A   0      -6.478  -1.959 129.622  0.00  0.00    +0.000 C 
ENDBRANCH  23  32
ENDBRANCH   8  23
TORSDOF 6
ENDMDL
MODEL 6
REMARK VINA RESULT:      -8.8      3.934      6.796
REMARK  Name = CHEMBL377414
REMARK  10 active torsions:
REMARK  status: ('A' for Active; 'I' for Inactive)
REMARK    1  A    between atoms: CD1_1  and  CG_2
REMARK    2  A    between atoms: CG_2  and  CD2_3
REMARK    3  A    between atoms: CG_2  and  CB_4
REMARK    4  A    between atoms: CB_4  and  CA_5
REMARK    5  A    between atoms: C_9  and  C_10
REMARK    6  A    between atoms: N_21  and  C_22
REMARK    7  A    between atoms: C_22  and  C_23
REMARK    8  A    between atoms: C_22  and  C_28
REMARK    9  A    between atoms: N_25  and  C_26
REMARK   10  A    between atoms: N_25  and  C_27
REMARK                            x       y       z     vdW  Elec       q    Type
REMARK                         _______ _______ _______ _____ _____    ______ ____
ROOT
ATOM      1  CA  LEU A   2      -5.527   2.611 128.115  0.00  0.00    +0.000 C 
ATOM      2  C   LEU A   2      -5.415   1.903 129.503  0.00  0.00    +0.000 C 
ATOM      3  O   LEU A   2      -4.452   1.379 130.018  0.00  0.00    +0.000 OA
ATOM      4  N   UNK A   1      -6.580   1.919 130.171  0.00  0.00    +0.000 N 
ATOM      5  C   UNK A   1      -7.757   2.538 129.628  0.00  0.00    +0.000 C 
ATOM      6  C   UNK A   1      -7.952   2.087 128.177  0.00  0.00    +0.000 C 
ATOM      7  O   UNK A   1      -9.093   1.954 127.778  0.00  0.00    +0.000 OA
ATOM      8  N   LEU A   2      -6.763   1.946 127.423  0.00  0.00    +0.000 N 
ATOM      9  H   UNK A   1      -6.510   1.489 131.083  0.00  0.00    +0.000 HD
ENDROOT
BRANCH   5  10
ATOM     10  C   UNK A   1      -9.015   2.128 130.407  0.00  0.00    +0.000 C 
ATOM     11  C   UNK A   1      -9.865   3.374 130.680  0.00  0.00    +0.000 C 
ATOM     12  C   UNK A   1      -9.324   3.804 132.014  0.00  0.00    +0.000 A 
ATOM     13  C   UNK A   1      -9.285   5.090 132.522  0.00  0.00    +0.000 A 
ATOM     14  C   UNK A   1      -8.570   5.311 133.701  0.00  0.00    +0.000 A 
ATOM     15  C   UNK A   1      -7.888   4.262 134.340  0.00  0.00    +0.000 A 
ATOM     16  C   UNK A   1      -7.899   2.974 133.804  0.00  0.00    +0.000 A 
ATOM     17  C   UNK A   1      -8.628   2.759 132.645  0.00  0.00    +0.000 A 
ATOM     18  C   UNK A   1      -8.654   1.522 131.797  0.00  0.00    +0.000 C 
ENDBRANCH   5  10
BRANCH   1  19
ATOM     19  CB  LEU A   2      -4.161   2.373 127.546  0.00  0.00    +0.000 C 
BRANCH  19  21
ATOM     20  CD1 LEU A   2      -2.780   4.718 128.138  0.00  0.00    +0.000 C 
ATOM     21  CG  LEU A   2      -3.167   3.544 127.131  0.00  0.00    +0.000 C 
ATOM     22  CD2 LEU A   2      -1.828   3.035 126.604  0.00  0.00    +0.000 C 
ENDBRANCH  19  21
ENDBRANCH   1  19
BRANCH   8  23
ATOM     23  C   UNK A   0      -6.790   1.087 126.080  0.00  0.00    +0.000 C 
BRANCH  23  24
ATOM     24  C   UNK A   0      -7.389   1.909 124.836  0.00  0.00    +0.000 A 
ATOM     25  C   UNK A   0      -8.715   1.670 124.359  0.00  0.00    +0.000 A 
ATOM     26  C   UNK A   0      -9.157   2.197 123.121  0.00  0.00    +0.000 A 
ATOM     27  C   UNK A   0      -8.355   3.078 122.413  0.00  0.00    +0.000 A 
ATOM     28  F   UNK A   0      -8.750   3.593 121.244  0.00  0.00    +0.000 F 
ATOM     29  C   UNK A   0      -7.127   3.420 122.899  0.00  0.00    +0.000 A 
ATOM     30  C   UNK A   0      -6.661   2.832 124.060  0.00  0.00    +0.000 A 
ATOM     31  F   UNK A   0      -5.432   3.253 124.305  0.00  0.00    +0.000 F 
ENDBRANCH  23  24
BRANCH  23  32
ATOM     32  C   UNK A   0      -7.339  -0.556 126.081  0.00  0.00    +0.000 C 
ATOM     33  O   UNK A   0      -8.098  -1.005 126.932  0.00  0.00    +0.000 OA
ATOM     34  N   UNK A   0      -7.035  -1.546 125.162  0.00  0.00    +0.000 N 
ATOM     35  C   UNK A   0      -6.119  -1.475 124.146  0.00  0.00    +0.000 C 
ATOM     36  C   UNK A   0      -7.292  -2.938 125.361  0.00  0.00    +0.000 C 
ENDBRANCH  23  32
ENDBRANCH   8  23
TORSDOF 6
ENDMDL
MODEL 7
REMARK VINA RESULT:      -8.8      3.205      5.269
REMARK  Name = CHEMBL377414
REMARK  10 active torsions:
REMARK  status: ('A' for Active; 'I' for Inactive)
REMARK    1  A    between atoms: CD1_1  and  CG_2
REMARK    2  A    between atoms: CG_2  and  CD2_3
REMARK    3  A    between atoms: CG_2  and  CB_4
REMARK    4  A    between atoms: CB_4  and  CA_5
REMARK    5  A    between atoms: C_9  and  C_10
REMARK    6  A    between atoms: N_21  and  C_22
REMARK    7  A    between atoms: C_22  and  C_23
REMARK    8  A    between atoms: C_22  and  C_28
REMARK    9  A    between atoms: N_25  and  C_26
REMARK   10  A    between atoms: N_25  and  C_27
REMARK                            x       y       z     vdW  Elec       q    Type
REMARK                         _______ _______ _______ _____ _____    ______ ____
ROOT
ATOM      1  CA  LEU A   2      -7.156   6.270 131.285  0.00  0.00    +0.000 C 
ATOM      2  C   LEU A   2      -8.414   6.201 132.208  0.00  0.00    +0.000 C 
ATOM      3  O   LEU A   2      -8.477   6.217 133.417  0.00  0.00    +0.000 OA
ATOM      4  N   UNK A   1      -9.553   6.124 131.500  0.00  0.00    +0.000 N 
ATOM      5  C   UNK A   1      -9.555   6.120 130.064  0.00  0.00    +0.000 C 
ATOM      6  C   UNK A   1      -8.511   5.121 129.553  0.00  0.00    +0.000 C 
ATOM      7  O   UNK A   1      -8.764   4.520 128.526  0.00  0.00    +0.000 OA
ATOM      8  N   LEU A   2      -7.312   5.063 130.302  0.00  0.00    +0.000 N 
ATOM      9  H   UNK A   1     -10.374   6.110 132.088  0.00  0.00    +0.000 HD
ENDROOT
BRANCH   5  10
ATOM     10  C   UNK A   1     -10.917   5.682 129.506  0.00  0.00    +0.000 C 
ATOM     11  C   UNK A   1     -11.307   6.608 128.349  0.00  0.00    +0.000 C 
ATOM     12  C   UNK A   1     -12.079   7.670 129.077  0.00  0.00    +0.000 A 
ATOM     13  C   UNK A   1     -12.222   8.996 128.710  0.00  0.00    +0.000 A 
ATOM     14  C   UNK A   1     -12.822   9.870 129.620  0.00  0.00    +0.000 A 
ATOM     15  C   UNK A   1     -13.245   9.422 130.882  0.00  0.00    +0.000 A 
ATOM     16  C   UNK A   1     -13.064   8.092 131.263  0.00  0.00    +0.000 A 
ATOM     17  C   UNK A   1     -12.488   7.226 130.347  0.00  0.00    +0.000 A 
ATOM     18  C   UNK A   1     -12.041   5.814 130.579  0.00  0.00    +0.000 C 
ENDBRANCH   5  10
BRANCH   1  19
ATOM     19  CB  LEU A   2      -6.045   6.248 132.290  0.00  0.00    +0.000 C 
BRANCH  19  21
ATOM     20  CD1 LEU A   2      -4.067   7.539 130.813  0.00  0.00    +0.000 C 
ATOM     21  CG  LEU A   2      -4.515   6.476 131.913  0.00  0.00    +0.000 C 
ATOM     22  CD2 LEU A   2      -3.639   6.785 133.125  0.00  0.00    +0.000 C 
ENDBRANCH  19  21
ENDBRANCH   1  19
BRANCH   8  23
ATOM     23  C   UNK A   0      -6.358   3.796 130.146  0.00  0.00    +0.000 C 
BRANCH  23  24
ATOM     24  C   UNK A   0      -5.268   3.985 128.979  0.00  0.00    +0.000 A 
ATOM     25  C   UNK A   0      -5.663   4.123 127.612  0.00  0.00    +0.000 A 
ATOM     26  C   UNK A   0      -4.717   4.034 126.562  0.00  0.00    +0.000 A 
ATOM     27  C   UNK A   0      -3.363   3.953 126.849  0.00  0.00    +0.000 A 
ATOM     28  F   UNK A   0      -2.450   3.873 125.875  0.00  0.00    +0.000 F 
ATOM     29  C   UNK A   0      -2.943   3.938 128.147  0.00  0.00    +0.000 A 
ATOM     30  C   UNK A   0      -3.874   3.931 129.168  0.00  0.00    +0.000 A 
ATOM     31  F   UNK A   0      -3.251   3.844 130.331  0.00  0.00    +0.000 F 
ENDBRANCH  23  24
BRANCH  23  32
ATOM     32  C   UNK A   0      -6.999   2.186 130.163  0.00  0.00    +0.000 C 
ATOM     33  O   UNK A   0      -8.019   1.868 129.563  0.00  0.00    +0.000 OA
ATOM     34  N   UNK A   0      -6.473   1.077 130.804  0.00  0.00    +0.000 N 
ATOM     35  C   UNK A   0      -5.420   1.053 131.681  0.00  0.00    +0.000 C 
ATOM     36  C   UNK A   0      -7.181  -0.148 131.009  0.00  0.00    +0.000 C 
ENDBRANCH  23  32
ENDBRANCH   8  23
TORSDOF 6
ENDMDL
MODEL 8
REMARK VINA RESULT:      -8.7      2.804      3.885
REMARK  Name = CHEMBL377414
REMARK  10 active torsions:
REMARK  status: ('A' for Active; 'I' for Inactive)
REMARK    1  A    between atoms: CD1_1  and  CG_2
REMARK    2  A    between atoms: CG_2  and  CD2_3
REMARK    3  A    between atoms: CG_2  and  CB_4
REMARK    4  A    between atoms: CB_4  and  CA_5
REMARK    5  A    between atoms: C_9  and  C_10
REMARK    6  A    between atoms: N_21  and  C_22
REMARK    7  A    between atoms: C_22  and  C_23
REMARK    8  A    between atoms: C_22  and  C_28
REMARK    9  A    between atoms: N_25  and  C_26
REMARK   10  A    between atoms: N_25  and  C_27
REMARK                            x       y       z     vdW  Elec       q    Type
REMARK                         _______ _______ _______ _____ _____    ______ ____
ROOT
ATOM      1  CA  LEU A   2      -7.436   2.648 126.425  0.00  0.00    +0.000 C 
ATOM      2  C   LEU A   2      -6.978   3.956 127.147  0.00  0.00    +0.000 C 
ATOM      3  O   LEU A   2      -6.189   4.796 126.776  0.00  0.00    +0.000 OA
ATOM      4  N   UNK A   1      -7.587   4.115 128.333  0.00  0.00    +0.000 N 
ATOM      5  C   UNK A   1      -8.548   3.168 128.826  0.00  0.00    +0.000 C 
ATOM      6  C   UNK A   1      -7.994   1.748 128.669  0.00  0.00    +0.000 C 
ATOM      7  O   UNK A   1      -8.291   0.932 129.521  0.00  0.00    +0.000 OA
ATOM      8  N   LEU A   2      -7.249   1.516 127.488  0.00  0.00    +0.000 N 
ATOM      9  H   UNK A   1      -7.320   4.973 128.794  0.00  0.00    +0.000 HD
ENDROOT
BRANCH   5  10
ATOM     10  C   UNK A   1      -8.833   3.384 130.319  0.00  0.00    +0.000 C 
ATOM     11  C   UNK A   1     -10.349   3.436 130.538  0.00  0.00    +0.000 C 
ATOM     12  C   UNK A   1     -10.610   4.908 130.396  0.00  0.00    +0.000 A 
ATOM     13  C   UNK A   1     -11.778   5.510 129.964  0.00  0.00    +0.000 A 
ATOM     14  C   UNK A   1     -11.760   6.885 129.719  0.00  0.00    +0.000 A 
ATOM     15  C   UNK A   1     -10.582   7.632 129.883  0.00  0.00    +0.000 A 
ATOM     16  C   UNK A   1      -9.396   7.015 130.282  0.00  0.00    +0.000 A 
ATOM     17  C   UNK A   1      -9.427   5.655 130.543  0.00  0.00    +0.000 A 
ATOM     18  C   UNK A   1      -8.265   4.748 130.816  0.00  0.00    +0.000 C 
ENDBRANCH   5  10
BRANCH   1  19
ATOM     19  CB  LEU A   2      -6.560   2.654 125.209  0.00  0.00    +0.000 C 
BRANCH  19  21
ATOM     20  CD1 LEU A   2      -7.132   0.810 123.201  0.00  0.00    +0.000 C 
ATOM     21  CG  LEU A   2      -7.085   2.307 123.747  0.00  0.00    +0.000 C 
ATOM     22  CD2 LEU A   2      -8.478   2.863 123.463  0.00  0.00    +0.000 C 
ENDBRANCH  19  21
ENDBRANCH   1  19
BRANCH   8  23
ATOM     23  C   UNK A   0      -6.279   0.254 127.415  0.00  0.00    +0.000 C 
BRANCH  23  24
ATOM     24  C   UNK A   0      -6.893  -0.946 126.539  0.00  0.00    +0.000 A 
ATOM     25  C   UNK A   0      -8.206  -1.452 126.791  0.00  0.00    +0.000 A 
ATOM     26  C   UNK A   0      -8.653  -2.660 126.204  0.00  0.00    +0.000 A 
ATOM     27  C   UNK A   0      -7.873  -3.304 125.257  0.00  0.00    +0.000 A 
ATOM     28  F   UNK A   0      -8.274  -4.445 124.684  0.00  0.00    +0.000 F 
ATOM     29  C   UNK A   0      -6.662  -2.784 124.905  0.00  0.00    +0.000 A 
ATOM     30  C   UNK A   0      -6.188  -1.657 125.548  0.00  0.00    +0.000 A 
ATOM     31  F   UNK A   0      -4.976  -1.372 125.103  0.00  0.00    +0.000 F 
ENDBRANCH  23  24
BRANCH  23  32
ATOM     32  C   UNK A   0      -5.476  -0.340 128.832  0.00  0.00    +0.000 C 
ATOM     33  O   UNK A   0      -5.628  -1.480 129.256  0.00  0.00    +0.000 OA
ATOM     34  N   UNK A   0      -4.579   0.340 129.638  0.00  0.00    +0.000 N 
ATOM     35  C   UNK A   0      -4.253   1.669 129.572  0.00  0.00    +0.000 C 
ATOM     36  C   UNK A   0      -4.163  -0.102 130.933  0.00  0.00    +0.000 C 
ENDBRANCH  23  32
ENDBRANCH   8  23
TORSDOF 6
ENDMDL
MODEL 9
REMARK VINA RESULT:      -8.6      2.957      7.272
REMARK  Name = CHEMBL377414
REMARK  10 active torsions:
REMARK  status: ('A' for Active; 'I' for Inactive)
REMARK    1  A    between atoms: CD1_1  and  CG_2
REMARK    2  A    between atoms: CG_2  and  CD2_3
REMARK    3  A    between atoms: CG_2  and  CB_4
REMARK    4  A    between atoms: CB_4  and  CA_5
REMARK    5  A    between atoms: C_9  and  C_10
REMARK    6  A    between atoms: N_21  and  C_22
REMARK    7  A    between atoms: C_22  and  C_23
REMARK    8  A    between atoms: C_22  and  C_28
REMARK    9  A    between atoms: N_25  and  C_26
REMARK   10  A    between atoms: N_25  and  C_27
REMARK                            x       y       z     vdW  Elec       q    Type
REMARK                         _______ _______ _______ _____ _____    ______ ____
ROOT
ATOM      1  CA  LEU A   2      -5.173   3.177 130.227  0.00  0.00    +0.000 C 
ATOM      2  C   LEU A   2      -6.159   2.317 129.373  0.00  0.00    +0.000 C 
ATOM      3  O   LEU A   2      -6.389   2.371 128.186  0.00  0.00    +0.000 OA
ATOM      4  N   UNK A   1      -6.803   1.403 130.118  0.00  0.00    +0.000 N 
ATOM      5  C   UNK A   1      -6.566   1.270 131.528  0.00  0.00    +0.000 C 
ATOM      6  C   UNK A   1      -6.602   2.653 132.187  0.00  0.00    +0.000 C 
ATOM      7  O   UNK A   1      -7.047   2.726 133.316  0.00  0.00    +0.000 OA
ATOM      8  N   LEU A   2      -6.031   3.701 131.426  0.00  0.00    +0.000 N 
ATOM      9  H   UNK A   1      -7.421   0.822 129.569  0.00  0.00    +0.000 HD
ENDROOT
BRANCH   5  10
ATOM     10  C   UNK A   1      -7.650   0.415 132.201  0.00  0.00    +0.000 C 
ATOM     11  C   UNK A   1      -6.983  -0.748 132.943  0.00  0.00    +0.000 C 
ATOM     12  C   UNK A   1      -6.979  -1.805 131.875  0.00  0.00    +0.000 A 
ATOM     13  C   UNK A   1      -6.078  -2.845 131.737  0.00  0.00    +0.000 A 
ATOM     14  C   UNK A   1      -6.131  -3.611 130.569  0.00  0.00    +0.000 A 
ATOM     15  C   UNK A   1      -7.056  -3.318 129.554  0.00  0.00    +0.000 A 
ATOM     16  C   UNK A   1      -7.938  -2.244 129.682  0.00  0.00    +0.000 A 
ATOM     17  C   UNK A   1      -7.893  -1.502 130.851  0.00  0.00    +0.000 A 
ATOM     18  C   UNK A   1      -8.610  -0.219 131.148  0.00  0.00    +0.000 C 
ENDBRANCH   5  10
BRANCH   1  19
ATOM     19  CB  LEU A   2      -4.673   4.158 129.210  0.00  0.00    +0.000 C 
BRANCH  19  21
ATOM     20  CD1 LEU A   2      -2.612   3.316 127.536  0.00  0.00    +0.000 C 
ATOM     21  CG  LEU A   2      -3.158   4.225 128.727  0.00  0.00    +0.000 C 
ATOM     22  CD2 LEU A   2      -2.705   5.638 128.369  0.00  0.00    +0.000 C 
ENDBRANCH  19  21
ENDBRANCH   1  19
BRANCH   8  23
ATOM     23  C   UNK A   0      -6.388   5.211 131.790  0.00  0.00    +0.000 C 
BRANCH  23  24
ATOM     24  C   UNK A   0      -7.933   5.562 131.514  0.00  0.00    +0.000 A 
ATOM     25  C   UNK A   0      -8.793   6.001 132.567  0.00  0.00    +0.000 A 
ATOM     26  C   UNK A   0     -10.196   6.066 132.391  0.00  0.00    +0.000 A 
ATOM     27  C   UNK A   0     -10.753   5.839 131.142  0.00  0.00    +0.000 A 
ATOM     28  F   UNK A   0     -12.075   5.899 130.948  0.00  0.00    +0.000 F 
ATOM     29  C   UNK A   0      -9.947   5.532 130.085  0.00  0.00    +0.000 A 
ATOM     30  C   UNK A   0      -8.588   5.378 130.281  0.00  0.00    +0.000 A 
ATOM     31  F   UNK A   0      -8.018   5.014 129.145  0.00  0.00    +0.000 F 
ENDBRANCH  23  24
BRANCH  23  32
ATOM     32  C   UNK A   0      -5.346   6.514 131.323  0.00  0.00    +0.000 C 
ATOM     33  O   UNK A   0      -5.578   7.243 130.365  0.00  0.00    +0.000 OA
ATOM     34  N   UNK A   0      -4.173   6.916 131.939  0.00  0.00    +0.000 N 
ATOM     35  C   UNK A   0      -3.513   6.275 132.954  0.00  0.00    +0.000 C 
ATOM     36  C   UNK A   0      -3.222   7.811 131.357  0.00  0.00    +0.000 C 
ENDBRANCH  23  32
ENDBRANCH   8  23
TORSDOF 6
ENDMDL
