MODEL 1
REMARK VINA RESULT:      -9.2      0.000      0.000
REMARK  Name = CHEMBL2370343
REMARK  44 active torsions:
REMARK  status: ('A' for Active; 'I' for Inactive)
REMARK    1  A    between atoms: C_1  and  C_2
REMARK    2  A    between atoms: C_2  and  C_3
REMARK    3  A    between atoms: C_3  and  C_4
REMARK    4  A    between atoms: C_3  and  C_5
REMARK    5  A    between atoms: C_5  and  N_6
REMARK    6  A    between atoms: C_5  and  C_35
REMARK    7  A    between atoms: C_7  and  C_9
REMARK    8  A    between atoms: C_9  and  C_10
REMARK    9  A    between atoms: C_9  and  N_19
REMARK   10  A    between atoms: C_10  and  C_11
REMARK   11  A    between atoms: C_14  and  O_15
REMARK   12  A    between atoms: O_15  and  C_16
REMARK   13  A    between atoms: C_20  and  C_22
REMARK   14  A    between atoms: C_22  and  C_23
REMARK   15  A    between atoms: C_23  and  S_24
REMARK   16  A    between atoms: S_24  and  C_25
REMARK   17  A    between atoms: C_25  and  C_26
REMARK   18  A    between atoms: C_26  and  C_27
REMARK   19  A    between atoms: N_37  and  C_38
REMARK   20  A    between atoms: C_38  and  C_39
REMARK   21  A    between atoms: C_38  and  C_83
REMARK   22  A    between atoms: N_41  and  C_42
REMARK   23  A    between atoms: C_42  and  C_43
REMARK   24  A    between atoms: C_42  and  C_47
REMARK   25  A    between atoms: C_43  and  C_44
REMARK   26  A    between atoms: N_49  and  C_50
REMARK   27  A    between atoms: C_50  and  C_51
REMARK   28  A    between atoms: C_50  and  C_53
REMARK   29  A    between atoms: C_51  and  S_52
REMARK   30  A    between atoms: N_55  and  C_56
REMARK   31  A    between atoms: C_56  and  C_57
REMARK   32  A    between atoms: N_59  and  C_60
REMARK   33  A    between atoms: C_60  and  C_61
REMARK   34  A    between atoms: C_60  and  C_65
REMARK   35  A    between atoms: C_61  and  C_62
REMARK   36  A    between atoms: C_62  and  C_63
REMARK   37  A    between atoms: C_63  and  N_64
REMARK   38  A    between atoms: N_67  and  C_68
REMARK   39  A    between atoms: C_68  and  C_69
REMARK   40  A    between atoms: C_68  and  C_80
REMARK   41  A    between atoms: C_69  and  C_70
REMARK   42  A    between atoms: C_73  and  N_74
REMARK   43  A    between atoms: C_83  and  C_84
REMARK   44  A    between atoms: C_83  and  O_85
REMARK                            x       y       z     vdW  Elec       q    Type
REMARK                         _______ _______ _______ _____ _____    ______ ____
ROOT
ATOM      1  C   UNL     1      -5.353   4.202 126.570  0.00  0.00    +0.000 C 
ENDROOT
BRANCH   1   4
ATOM      2  C   UNL     1      -6.711   3.559 128.535  0.00  0.00    +0.000 C 
ATOM      3  O   UNL     1      -5.784   4.316 128.864  0.00  0.00    +0.000 OA
ATOM      4  N   UNL     1      -6.482   3.376 127.245  0.00  0.00    +0.000 N 
ATOM      5  H   UNL     1      -7.266   3.155 126.636  0.00  0.00    +0.000 HD
BRANCH   2   6
ATOM      6  C   UNL     1      -7.492   3.012 129.715  0.00  0.00    +0.000 C 
BRANCH   6   9
ATOM      7  C   UNL     1     -10.032   3.776 130.301  0.00  0.00    +0.000 C 
ATOM      8  O   UNL     1     -11.210   3.612 129.962  0.00  0.00    +0.000 OA
ATOM      9  N   UNL     1      -9.022   3.180 129.511  0.00  0.00    +0.000 N 
ATOM     10  H   UNL     1      -9.452   2.449 128.946  0.00  0.00    +0.000 HD
BRANCH   7  11
ATOM     11  C   UNL     1      -9.716   4.629 131.577  0.00  0.00    +0.000 C 
BRANCH  11  12
ATOM     12  N   UNL     1      -8.468   4.585 132.272  0.00  0.00    +0.000 N 
ATOM     13  C   UNL     1      -8.323   3.951 133.490  0.00  0.00    +0.000 C 
ATOM     14  O   UNL     1      -9.097   3.064 133.858  0.00  0.00    +0.000 OA
ATOM     15  H   UNL     1      -7.768   5.237 131.953  0.00  0.00    +0.000 HD
BRANCH  13  16
ATOM     16  C   UNL     1      -7.110   4.394 134.357  0.00  0.00    +0.000 C 
BRANCH  16  17
ATOM     17  N   UNL     1      -5.842   4.320 133.601  0.00  0.00    +0.000 N 
ATOM     18  C   UNL     1      -4.917   3.390 134.003  0.00  0.00    +0.000 C 
ATOM     19  O   UNL     1      -5.178   2.608 134.912  0.00  0.00    +0.000 OA
ATOM     20  H   UNL     1      -5.535   5.129 133.077  0.00  0.00    +0.000 HD
BRANCH  18  21
ATOM     21  C   UNL     1      -3.591   3.327 133.310  0.00  0.00    +0.000 C 
BRANCH  21  22
ATOM     22  C   UNL     1      -3.015   4.770 133.047  0.00  0.00    +0.000 C 
ATOM     23  C   UNL     1      -3.178   5.678 134.304  0.00  0.00    +0.000 C 
ATOM     24  C   UNL     1      -2.418   6.994 134.241  0.00  0.00    +0.000 C 
ATOM     25  C   UNL     1      -0.976   6.839 133.787  0.00  0.00    +0.000 C 
ATOM     26  C   UNL     1      -0.753   5.885 132.613  0.00  0.00    +0.000 C 
ATOM     27  C   UNL     1      -1.511   4.581 132.769  0.00  0.00    +0.000 C 
BRANCH  22  28
ATOM     28  S   UNL     1      -3.889   5.391 131.456  0.00  0.00    +0.000 S 
BRANCH  28  29
ATOM     29  C   UNL     1      -4.244   7.141 131.725  0.00  0.00    +0.000 C 
BRANCH  29  30
ATOM     30  C   UNL     1      -3.319   8.085 131.023  0.00  0.00    +0.000 C 
BRANCH  30  31
ATOM     31  C   UNL     1      -3.888   8.501 129.669  0.00  0.00    +0.000 C 
ATOM     32  N   UNL     1      -4.142   9.820 129.401  0.00  0.00    +0.000 N 
ATOM     33  O   UNL     1      -4.118   7.665 128.798  0.00  0.00    +0.000 OA
ATOM     34  H   UNL     1      -4.034  10.599 130.037  0.00  0.00    +0.000 HD
ATOM     35  H   UNL     1      -4.524  10.044 128.491  0.00  0.00    +0.000 HD
ENDBRANCH  30  31
ENDBRANCH  29  30
ENDBRANCH  28  29
ENDBRANCH  22  28
ENDBRANCH  21  22
ENDBRANCH  18  21
ENDBRANCH  16  17
BRANCH  16  36
ATOM     36  C   UNL     1      -7.387   5.797 134.937  0.00  0.00    +0.000 C 
BRANCH  36  37
ATOM     37  C   UNL     1      -7.053   5.913 136.419  0.00  0.00    +0.000 A 
ATOM     38  C   UNL     1      -5.921   5.291 136.988  0.00  0.00    +0.000 A 
ATOM     39  C   UNL     1      -5.796   5.118 138.357  0.00  0.00    +0.000 A 
ATOM     40  C   UNL     1      -6.674   5.772 139.202  0.00  0.00    +0.000 A 
ATOM     41  C   UNL     1      -7.766   6.456 138.660  0.00  0.00    +0.000 A 
ATOM     42  C   UNL     1      -7.969   6.510 137.278  0.00  0.00    +0.000 A 
BRANCH  40  43
ATOM     43  O   UNL     1      -6.350   5.702 140.527  0.00  0.00    +0.000 OA
ATOM     44  C   UNL     1      -4.981   5.450 140.802  0.00  0.00    +0.000 C 
ENDBRANCH  40  43
ENDBRANCH  36  37
ENDBRANCH  16  36
ENDBRANCH  13  16
ENDBRANCH  11  12
BRANCH  11  45
ATOM     45  C   UNL     1     -10.119   6.259 131.332  0.00  0.00    +0.000 C 
ATOM     46  C   UNL     1     -11.679   6.503 132.066  0.00  0.00    +0.000 C 
BRANCH  45  48
ATOM     47  C   UNL     1     -10.376   8.030 128.515  0.00  0.00    +0.000 C 
ATOM     48  C   UNL     1      -9.638   6.858 129.620  0.00  0.00    +0.000 C 
ENDBRANCH  45  48
ENDBRANCH  11  45
ENDBRANCH   7  11
ENDBRANCH   6   9
BRANCH   6  49
ATOM     49  C   UNL     1      -6.945   1.647 129.978  0.00  0.00    +0.000 C 
ATOM     50  C   UNL     1      -8.056   0.617 129.667  0.00  0.00    +0.000 C 
BRANCH  49  51
ATOM     51  O   UNL     1      -5.836   1.387 129.118  0.00  0.00    +0.000 OA
ATOM     52  H   UNL     1      -6.162   1.327 128.201  0.00  0.00    +0.000 HD
ENDBRANCH  49  51
ENDBRANCH   6  49
ENDBRANCH   2   6
ENDBRANCH   1   4
BRANCH   1  53
ATOM     53  C   UNL     1      -5.972   4.503 125.247  0.00  0.00    +0.000 C 
ATOM     54  O   UNL     1      -6.350   5.655 125.023  0.00  0.00    +0.000 OA
ATOM     55  N   UNL     1      -6.166   3.466 124.380  0.00  0.00    +0.000 N 
ATOM     56  H   UNL     1      -5.974   2.494 124.634  0.00  0.00    +0.000 HD
BRANCH  55  57
ATOM     57  C   UNL     1      -6.746   3.728 123.067  0.00  0.00    +0.000 C 
BRANCH  57  58
ATOM     58  C   UNL     1      -8.039   2.859 122.900  0.00  0.00    +0.000 C 
ATOM     59  O   UNL     1      -8.958   3.194 122.151  0.00  0.00    +0.000 OA
ATOM     60  N   UNL     1      -8.102   1.684 123.614  0.00  0.00    +0.000 N 
ATOM     61  H   UNL     1      -7.321   1.361 124.184  0.00  0.00    +0.000 HD
BRANCH  60  62
ATOM     62  C   UNL     1      -9.233   0.744 123.521  0.00  0.00    +0.000 C 
BRANCH  62  63
ATOM     63  C   UNL     1      -8.768  -0.596 124.120  0.00  0.00    +0.000 C 
ATOM     64  O   UNL     1      -9.360  -1.633 123.805  0.00  0.00    +0.000 OA
ATOM     65  N   UNL     1      -7.703  -0.607 124.990  0.00  0.00    +0.000 N 
ATOM     66  H   UNL     1      -7.268   0.270 125.280  0.00  0.00    +0.000 HD
BRANCH  65  67
ATOM     67  C   UNL     1      -6.971  -1.850 125.462  0.00  0.00    +0.000 C 
BRANCH  67  68
ATOM     68  C   UNL     1      -6.454  -1.548 126.840  0.00  0.00    +0.000 C 
ATOM     69  O   UNL     1      -5.932  -0.435 126.836  0.00  0.00    +0.000 OA
ATOM     70  N   UNL     1      -6.336  -2.521 127.826  0.00  0.00    +0.000 N 
ATOM     71  H   UNL     1      -6.293  -3.462 127.476  0.00  0.00    +0.000 HD
BRANCH  70  72
ATOM     72  C   UNL     1      -5.898  -2.367 129.284  0.00  0.00    +0.000 C 
BRANCH  72  73
ATOM     73  C   UNL     1      -4.431  -1.881 129.508  0.00  0.00    +0.000 C 
ATOM     74  N   UNL     1      -3.414  -2.732 129.191  0.00  0.00    +0.000 N 
ATOM     75  O   UNL     1      -4.151  -0.759 129.928  0.00  0.00    +0.000 OA
ATOM     76  H   UNL     1      -3.511  -3.661 128.830  0.00  0.00    +0.000 HD
ATOM     77  H   UNL     1      -2.469  -2.400 129.348  0.00  0.00    +0.000 HD
ENDBRANCH  72  73
BRANCH  72  78
ATOM     78  C   UNL     1      -6.052  -3.702 130.091  0.00  0.00    +0.000 C 
BRANCH  78  79
ATOM     79  C   UNL     1      -6.407  -3.523 131.548  0.00  0.00    +0.000 A 
ATOM     80  C   UNL     1      -7.051  -2.388 131.983  0.00  0.00    +0.000 A 
ATOM     81  C   UNL     1      -7.755  -2.330 133.188  0.00  0.00    +0.000 A 
ATOM     82  C   UNL     1      -7.501  -3.234 134.194  0.00  0.00    +0.000 A 
ATOM     83  C   UNL     1      -6.503  -4.182 133.888  0.00  0.00    +0.000 A 
ATOM     84  I   UNL     1      -5.354  -5.239 135.286  0.00  0.00    +0.000 I 
ATOM     85  C   UNL     1      -6.039  -4.381 132.558  0.00  0.00    +0.000 A 
BRANCH  82  86
ATOM     86  N   UNL     1      -8.262  -2.996 135.354  0.00  0.00    +0.000 NA
ATOM     87  N   UNL     1      -7.736  -2.383 136.289  0.00  0.00    +0.000 NA
ATOM     88  N   UNL     1      -7.293  -1.816 137.173  0.00  0.00    +0.000 NA
ENDBRANCH  82  86
ENDBRANCH  78  79
ENDBRANCH  72  78
ENDBRANCH  70  72
ENDBRANCH  67  68
BRANCH  67  89
ATOM     89  C   UNL     1      -5.615  -2.002 124.766  0.00  0.00    +0.000 C 
BRANCH  89  90
ATOM     90  C   UNL     1      -5.562  -3.348 124.132  0.00  0.00    +0.000 C 
BRANCH  90  91
ATOM     91  C   UNL     1      -4.232  -3.678 123.545  0.00  0.00    +0.000 C 
BRANCH  91  92
ATOM     92  N   UNL     1      -4.232  -5.118 123.386  0.00  0.00    +0.000 NA
ATOM     93  H   UNL     1      -4.415  -5.362 122.412  0.00  0.00    +0.000 HD
ATOM     94  H   UNL     1      -4.960  -5.530 123.956  0.00  0.00    +0.000 HD
ENDBRANCH  91  92
ENDBRANCH  90  91
ENDBRANCH  89  90
ENDBRANCH  67  89
ENDBRANCH  65  67
ENDBRANCH  62  63
ENDBRANCH  60  62
ENDBRANCH  57  58
BRANCH  57  95
ATOM     95  C   UNL     1      -5.754   3.411 121.925  0.00  0.00    +0.000 C 
BRANCH  95  96
ATOM     96  S   UNL     1      -5.624   4.463 120.425  0.00  0.00    +0.000 S 
ATOM     97  H   UNL     1      -6.748   5.184 120.629  0.00  0.00    +0.000 HD
ENDBRANCH  95  96
ENDBRANCH  57  95
ENDBRANCH  55  57
ENDBRANCH   1  53
BRANCH   1  98
ATOM     98  C   UNL     1      -3.985   3.496 126.176  0.00  0.00    +0.000 C 
BRANCH  98  99
ATOM     99  C   UNL     1      -2.686   3.518 126.919  0.00  0.00    +0.000 C 
ATOM    100  N   UNL     1      -2.800   4.162 128.030  0.00  0.00    +0.000 N 
ATOM    101  O   UNL     1      -1.587   3.062 126.672  0.00  0.00    +0.000 OA
ATOM    102  H   UNL     1      -3.680   4.658 128.174  0.00  0.00    +0.000 HD
ATOM    103  H   UNL     1      -2.002   4.427 128.585  0.00  0.00    +0.000 HD
ENDBRANCH  98  99
ENDBRANCH   1  98
TORSDOF 40
ENDMDL
MODEL 2
REMARK VINA RESULT:      -8.8      1.339      2.124
REMARK  Name = CHEMBL2370343
REMARK  44 active torsions:
REMARK  status: ('A' for Active; 'I' for Inactive)
REMARK    1  A    between atoms: C_1  and  C_2
REMARK    2  A    between atoms: C_2  and  C_3
REMARK    3  A    between atoms: C_3  and  C_4
REMARK    4  A    between atoms: C_3  and  C_5
REMARK    5  A    between atoms: C_5  and  N_6
REMARK    6  A    between atoms: C_5  and  C_35
REMARK    7  A    between atoms: C_7  and  C_9
REMARK    8  A    between atoms: C_9  and  C_10
REMARK    9  A    between atoms: C_9  and  N_19
REMARK   10  A    between atoms: C_10  and  C_11
REMARK   11  A    between atoms: C_14  and  O_15
REMARK   12  A    between atoms: O_15  and  C_16
REMARK   13  A    between atoms: C_20  and  C_22
REMARK   14  A    between atoms: C_22  and  C_23
REMARK   15  A    between atoms: C_23  and  S_24
REMARK   16  A    between atoms: S_24  and  C_25
REMARK   17  A    between atoms: C_25  and  C_26
REMARK   18  A    between atoms: C_26  and  C_27
REMARK   19  A    between atoms: N_37  and  C_38
REMARK   20  A    between atoms: C_38  and  C_39
REMARK   21  A    between atoms: C_38  and  C_83
REMARK   22  A    between atoms: N_41  and  C_42
REMARK   23  A    between atoms: C_42  and  C_43
REMARK   24  A    between atoms: C_42  and  C_47
REMARK   25  A    between atoms: C_43  and  C_44
REMARK   26  A    between atoms: N_49  and  C_50
REMARK   27  A    between atoms: C_50  and  C_51
REMARK   28  A    between atoms: C_50  and  C_53
REMARK   29  A    between atoms: C_51  and  S_52
REMARK   30  A    between atoms: N_55  and  C_56
REMARK   31  A    between atoms: C_56  and  C_57
REMARK   32  A    between atoms: N_59  and  C_60
REMARK   33  A    between atoms: C_60  and  C_61
REMARK   34  A    between atoms: C_60  and  C_65
REMARK   35  A    between atoms: C_61  and  C_62
REMARK   36  A    between atoms: C_62  and  C_63
REMARK   37  A    between atoms: C_63  and  N_64
REMARK   38  A    between atoms: N_67  and  C_68
REMARK   39  A    between atoms: C_68  and  C_69
REMARK   40  A    between atoms: C_68  and  C_80
REMARK   41  A    between atoms: C_69  and  C_70
REMARK   42  A    between atoms: C_73  and  N_74
REMARK   43  A    between atoms: C_83  and  C_84
REMARK   44  A    between atoms: C_83  and  O_85
REMARK                            x       y       z     vdW  Elec       q    Type
REMARK                         _______ _______ _______ _____ _____    ______ ____
ROOT
ATOM      1  C   UNL     1      -5.503   4.252 126.698  0.00  0.00    +0.000 C 
ENDROOT
BRANCH   1   4
ATOM      2  C   UNL     1      -6.894   3.700 128.666  0.00  0.00    +0.000 C 
ATOM      3  O   UNL     1      -5.914   4.387 128.994  0.00  0.00    +0.000 OA
ATOM      4  N   UNL     1      -6.686   3.508 127.375  0.00  0.00    +0.000 N 
ATOM      5  H   UNL     1      -7.486   3.348 126.769  0.00  0.00    +0.000 HD
BRANCH   2   6
ATOM      6  C   UNL     1      -7.708   3.207 129.848  0.00  0.00    +0.000 C 
BRANCH   6   9
ATOM      7  C   UNL     1     -10.263   4.024 130.272  0.00  0.00    +0.000 C 
ATOM      8  O   UNL     1     -11.431   3.815 129.924  0.00  0.00    +0.000 OA
ATOM      9  N   UNL     1      -9.232   3.342 129.586  0.00  0.00    +0.000 N 
ATOM     10  H   UNL     1      -9.646   2.546 129.102  0.00  0.00    +0.000 HD
BRANCH   7  11
ATOM     11  C   UNL     1      -9.982   5.027 131.443  0.00  0.00    +0.000 C 
BRANCH  11  12
ATOM     12  N   UNL     1      -8.727   5.125 132.119  0.00  0.00    +0.000 N 
ATOM     13  C   UNL     1      -8.478   4.475 133.311  0.00  0.00    +0.000 C 
ATOM     14  O   UNL     1      -9.121   3.481 133.658  0.00  0.00    +0.000 OA
ATOM     15  H   UNL     1      -8.124   5.875 131.814  0.00  0.00    +0.000 HD
BRANCH  13  16
ATOM     16  C   UNL     1      -7.318   5.045 134.177  0.00  0.00    +0.000 C 
BRANCH  16  17
ATOM     17  N   UNL     1      -6.434   5.931 133.392  0.00  0.00    +0.000 N 
ATOM     18  C   UNL     1      -5.574   5.341 132.501  0.00  0.00    +0.000 C 
ATOM     19  O   UNL     1      -5.601   4.126 132.323  0.00  0.00    +0.000 OA
ATOM     20  H   UNL     1      -6.222   6.854 133.748  0.00  0.00    +0.000 HD
BRANCH  18  21
ATOM     21  C   UNL     1      -4.611   6.194 131.734  0.00  0.00    +0.000 C 
BRANCH  21  22
ATOM     22  C   UNL     1      -3.194   6.215 132.422  0.00  0.00    +0.000 C 
ATOM     23  C   UNL     1      -2.053   6.178 131.360  0.00  0.00    +0.000 C 
ATOM     24  C   UNL     1      -0.663   6.464 131.909  0.00  0.00    +0.000 C 
ATOM     25  C   UNL     1      -0.609   7.682 132.816  0.00  0.00    +0.000 C 
ATOM     26  C   UNL     1      -1.759   7.812 133.816  0.00  0.00    +0.000 C 
ATOM     27  C   UNL     1      -3.113   7.553 133.184  0.00  0.00    +0.000 C 
BRANCH  22  28
ATOM     28  S   UNL     1      -3.207   4.763 133.676  0.00  0.00    +0.000 S 
BRANCH  28  29
ATOM     29  C   UNL     1      -2.289   3.416 132.899  0.00  0.00    +0.000 C 
BRANCH  29  30
ATOM     30  C   UNL     1      -2.738   2.043 133.290  0.00  0.00    +0.000 C 
BRANCH  30  31
ATOM     31  C   UNL     1      -3.903   1.580 132.420  0.00  0.00    +0.000 C 
ATOM     32  N   UNL     1      -5.062   1.132 132.996  0.00  0.00    +0.000 N 
ATOM     33  O   UNL     1      -3.824   1.610 131.194  0.00  0.00    +0.000 OA
ATOM     34  H   UNL     1      -5.243   1.021 133.985  0.00  0.00    +0.000 HD
ATOM     35  H   UNL     1      -5.802   0.831 132.377  0.00  0.00    +0.000 HD
ENDBRANCH  30  31
ENDBRANCH  29  30
ENDBRANCH  28  29
ENDBRANCH  22  28
ENDBRANCH  21  22
ENDBRANCH  18  21
ENDBRANCH  16  17
BRANCH  16  36
ATOM     36  C   UNL     1      -7.909   5.733 135.426  0.00  0.00    +0.000 C 
BRANCH  36  37
ATOM     37  C   UNL     1      -6.980   5.692 136.633  0.00  0.00    +0.000 A 
ATOM     38  C   UNL     1      -5.846   4.854 136.684  0.00  0.00    +0.000 A 
ATOM     39  C   UNL     1      -5.201   4.572 137.878  0.00  0.00    +0.000 A 
ATOM     40  C   UNL     1      -5.522   5.305 139.006  0.00  0.00    +0.000 A 
ATOM     41  C   UNL     1      -6.599   6.195 138.963  0.00  0.00    +0.000 A 
ATOM     42  C   UNL     1      -7.339   6.375 137.791  0.00  0.00    +0.000 A 
BRANCH  40  43
ATOM     43  O   UNL     1      -4.699   5.093 140.075  0.00  0.00    +0.000 OA
ATOM     44  C   UNL     1      -3.670   4.138 139.868  0.00  0.00    +0.000 C 
ENDBRANCH  40  43
ENDBRANCH  36  37
ENDBRANCH  16  36
ENDBRANCH  13  16
ENDBRANCH  11  12
BRANCH  11  45
ATOM     45  C   UNL     1     -10.475   6.597 131.029  0.00  0.00    +0.000 C 
ATOM     46  C   UNL     1     -12.088   6.794 131.654  0.00  0.00    +0.000 C 
BRANCH  45  48
ATOM     47  C   UNL     1     -10.483   8.338 128.181  0.00  0.00    +0.000 C 
ATOM     48  C   UNL     1      -9.933   7.076 129.297  0.00  0.00    +0.000 C 
ENDBRANCH  45  48
ENDBRANCH  11  45
ENDBRANCH   7  11
ENDBRANCH   6   9
BRANCH   6  49
ATOM     49  C   UNL     1      -7.153   1.865 130.202  0.00  0.00    +0.000 C 
ATOM     50  C   UNL     1      -8.282   0.821 130.039  0.00  0.00    +0.000 C 
BRANCH  49  51
ATOM     51  O   UNL     1      -6.091   1.522 129.313  0.00  0.00    +0.000 OA
ATOM     52  H   UNL     1      -6.478   1.200 128.477  0.00  0.00    +0.000 HD
ENDBRANCH  49  51
ENDBRANCH   6  49
ENDBRANCH   2   6
ENDBRANCH   1   4
BRANCH   1  53
ATOM     53  C   UNL     1      -6.097   4.584 125.370  0.00  0.00    +0.000 C 
ATOM     54  O   UNL     1      -6.438   5.749 125.153  0.00  0.00    +0.000 OA
ATOM     55  N   UNL     1      -6.310   3.562 124.490  0.00  0.00    +0.000 N 
ATOM     56  H   UNL     1      -6.149   2.582 124.738  0.00  0.00    +0.000 HD
BRANCH  55  57
ATOM     57  C   UNL     1      -6.866   3.854 123.173  0.00  0.00    +0.000 C 
BRANCH  57  58
ATOM     58  C   UNL     1      -8.104   2.924 122.928  0.00  0.00    +0.000 C 
ATOM     59  O   UNL     1      -8.921   3.149 122.034  0.00  0.00    +0.000 OA
ATOM     60  N   UNL     1      -8.235   1.823 123.745  0.00  0.00    +0.000 N 
ATOM     61  H   UNL     1      -7.531   1.588 124.442  0.00  0.00    +0.000 HD
BRANCH  60  62
ATOM     62  C   UNL     1      -9.320   0.837 123.600  0.00  0.00    +0.000 C 
BRANCH  62  63
ATOM     63  C   UNL     1      -8.790  -0.510 124.126  0.00  0.00    +0.000 C 
ATOM     64  O   UNL     1      -9.397  -1.547 123.841  0.00  0.00    +0.000 OA
ATOM     65  N   UNL     1      -7.653  -0.526 124.898  0.00  0.00    +0.000 N 
ATOM     66  H   UNL     1      -7.202   0.350 125.168  0.00  0.00    +0.000 HD
BRANCH  65  67
ATOM     67  C   UNL     1      -6.869  -1.770 125.277  0.00  0.00    +0.000 C 
BRANCH  67  68
ATOM     68  C   UNL     1      -6.441  -1.591 126.705  0.00  0.00    +0.000 C 
ATOM     69  O   UNL     1      -6.058  -0.434 126.866  0.00  0.00    +0.000 OA
ATOM     70  N   UNL     1      -6.241  -2.664 127.567  0.00  0.00    +0.000 N 
ATOM     71  H   UNL     1      -6.071  -3.540 127.105  0.00  0.00    +0.000 HD
BRANCH  70  72
ATOM     72  C   UNL     1      -5.875  -2.651 129.053  0.00  0.00    +0.000 C 
BRANCH  72  73
ATOM     73  C   UNL     1      -4.425  -2.185 129.395  0.00  0.00    +0.000 C 
ATOM     74  N   UNL     1      -4.206  -0.855 129.601  0.00  0.00    +0.000 N 
ATOM     75  O   UNL     1      -3.479  -2.963 129.515  0.00  0.00    +0.000 OA
ATOM     76  H   UNL     1      -4.893  -0.127 129.546  0.00  0.00    +0.000 HD
ATOM     77  H   UNL     1      -3.256  -0.572 129.816  0.00  0.00    +0.000 HD
ENDBRANCH  72  73
BRANCH  72  78
ATOM     78  C   UNL     1      -6.060  -4.058 129.718  0.00  0.00    +0.000 C 
BRANCH  78  79
ATOM     79  C   UNL     1      -6.007  -4.055 131.228  0.00  0.00    +0.000 A 
ATOM     80  C   UNL     1      -6.737  -3.146 131.958  0.00  0.00    +0.000 A 
ATOM     81  C   UNL     1      -7.056  -3.335 133.305  0.00  0.00    +0.000 A 
ATOM     82  C   UNL     1      -6.322  -4.200 134.084  0.00  0.00    +0.000 A 
ATOM     83  C   UNL     1      -5.268  -4.846 133.407  0.00  0.00    +0.000 A 
ATOM     84  I   UNL     1      -3.554  -5.653 134.303  0.00  0.00    +0.000 I 
ATOM     85  C   UNL     1      -5.177  -4.847 131.988  0.00  0.00    +0.000 A 
BRANCH  82  86
ATOM     86  N   UNL     1      -6.747  -4.227 135.426  0.00  0.00    +0.000 NA
ATOM     87  N   UNL     1      -7.735  -3.558 135.746  0.00  0.00    +0.000 NA
ATOM     88  N   UNL     1      -8.646  -2.960 136.083  0.00  0.00    +0.000 NA
ENDBRANCH  82  86
ENDBRANCH  78  79
ENDBRANCH  72  78
ENDBRANCH  70  72
ENDBRANCH  67  68
BRANCH  67  89
ATOM     89  C   UNL     1      -5.473  -1.769 124.645  0.00  0.00    +0.000 C 
BRANCH  89  90
ATOM     90  C   UNL     1      -5.436  -2.812 123.585  0.00  0.00    +0.000 C 
BRANCH  90  91
ATOM     91  C   UNL     1      -5.205  -4.188 124.110  0.00  0.00    +0.000 C 
BRANCH  91  92
ATOM     92  N   UNL     1      -4.071  -4.695 123.363  0.00  0.00    +0.000 NA
ATOM     93  H   UNL     1      -4.153  -4.430 122.380  0.00  0.00    +0.000 HD
ATOM     94  H   UNL     1      -4.045  -5.706 123.416  0.00  0.00    +0.000 HD
ENDBRANCH  91  92
ENDBRANCH  90  91
ENDBRANCH  89  90
ENDBRANCH  67  89
ENDBRANCH  65  67
ENDBRANCH  62  63
ENDBRANCH  60  62
ENDBRANCH  57  58
BRANCH  57  95
ATOM     95  C   UNL     1      -5.827   3.645 122.050  0.00  0.00    +0.000 C 
BRANCH  95  96
ATOM     96  S   UNL     1      -6.102   4.255 120.339  0.00  0.00    +0.000 S 
ATOM     97  H   UNL     1      -4.893   3.910 119.843  0.00  0.00    +0.000 HD
ENDBRANCH  95  96
ENDBRANCH  57  95
ENDBRANCH  55  57
ENDBRANCH   1  53
BRANCH   1  98
ATOM     98  C   UNL     1      -4.183   3.455 126.313  0.00  0.00    +0.000 C 
BRANCH  98  99
ATOM     99  C   UNL     1      -3.058   3.043 127.209  0.00  0.00    +0.000 C 
ATOM    100  N   UNL     1      -3.496   2.389 128.230  0.00  0.00    +0.000 N 
ATOM    101  O   UNL     1      -1.856   3.210 127.153  0.00  0.00    +0.000 OA
ATOM    102  H   UNL     1      -4.510   2.366 128.349  0.00  0.00    +0.000 HD
ATOM    103  H   UNL     1      -2.915   2.175 129.025  0.00  0.00    +0.000 HD
ENDBRANCH  98  99
ENDBRANCH   1  98
TORSDOF 40
ENDMDL
MODEL 3
REMARK VINA RESULT:      -8.6      2.068      4.731
REMARK  Name = CHEMBL2370343
REMARK  44 active torsions:
REMARK  status: ('A' for Active; 'I' for Inactive)
REMARK    1  A    between atoms: C_1  and  C_2
REMARK    2  A    between atoms: C_2  and  C_3
REMARK    3  A    between atoms: C_3  and  C_4
REMARK    4  A    between atoms: C_3  and  C_5
REMARK    5  A    between atoms: C_5  and  N_6
REMARK    6  A    between atoms: C_5  and  C_35
REMARK    7  A    between atoms: C_7  and  C_9
REMARK    8  A    between atoms: C_9  and  C_10
REMARK    9  A    between atoms: C_9  and  N_19
REMARK   10  A    between atoms: C_10  and  C_11
REMARK   11  A    between atoms: C_14  and  O_15
REMARK   12  A    between atoms: O_15  and  C_16
REMARK   13  A    between atoms: C_20  and  C_22
REMARK   14  A    between atoms: C_22  and  C_23
REMARK   15  A    between atoms: C_23  and  S_24
REMARK   16  A    between atoms: S_24  and  C_25
REMARK   17  A    between atoms: C_25  and  C_26
REMARK   18  A    between atoms: C_26  and  C_27
REMARK   19  A    between atoms: N_37  and  C_38
REMARK   20  A    between atoms: C_38  and  C_39
REMARK   21  A    between atoms: C_38  and  C_83
REMARK   22  A    between atoms: N_41  and  C_42
REMARK   23  A    between atoms: C_42  and  C_43
REMARK   24  A    between atoms: C_42  and  C_47
REMARK   25  A    between atoms: C_43  and  C_44
REMARK   26  A    between atoms: N_49  and  C_50
REMARK   27  A    between atoms: C_50  and  C_51
REMARK   28  A    between atoms: C_50  and  C_53
REMARK   29  A    between atoms: C_51  and  S_52
REMARK   30  A    between atoms: N_55  and  C_56
REMARK   31  A    between atoms: C_56  and  C_57
REMARK   32  A    between atoms: N_59  and  C_60
REMARK   33  A    between atoms: C_60  and  C_61
REMARK   34  A    between atoms: C_60  and  C_65
REMARK   35  A    between atoms: C_61  and  C_62
REMARK   36  A    between atoms: C_62  and  C_63
REMARK   37  A    between atoms: C_63  and  N_64
REMARK   38  A    between atoms: N_67  and  C_68
REMARK   39  A    between atoms: C_68  and  C_69
REMARK   40  A    between atoms: C_68  and  C_80
REMARK   41  A    between atoms: C_69  and  C_70
REMARK   42  A    between atoms: C_73  and  N_74
REMARK   43  A    between atoms: C_83  and  C_84
REMARK   44  A    between atoms: C_83  and  O_85
REMARK                            x       y       z     vdW  Elec       q    Type
REMARK                         _______ _______ _______ _____ _____    ______ ____
ROOT
ATOM      1  C   UNL     1      -4.115   4.124 126.783  0.00  0.00    +0.000 C 
ENDROOT
BRANCH   1   4
ATOM      2  C   UNL     1      -3.689   5.164 128.986  0.00  0.00    +0.000 C 
ATOM      3  O   UNL     1      -2.648   4.682 128.513  0.00  0.00    +0.000 OA
ATOM      4  N   UNL     1      -4.596   4.812 128.090  0.00  0.00    +0.000 N 
ATOM      5  H   UNL     1      -5.427   5.386 127.984  0.00  0.00    +0.000 HD
BRANCH   2   6
ATOM      6  C   UNL     1      -3.524   5.688 130.401  0.00  0.00    +0.000 C 
BRANCH   6   9
ATOM      7  C   UNL     1      -3.106   4.449 132.781  0.00  0.00    +0.000 C 
ATOM      8  O   UNL     1      -2.507   3.502 133.303  0.00  0.00    +0.000 OA
ATOM      9  N   UNL     1      -3.065   4.568 131.372  0.00  0.00    +0.000 N 
ATOM     10  H   UNL     1      -2.284   4.009 131.030  0.00  0.00    +0.000 HD
BRANCH   7  11
ATOM     11  C   UNL     1      -3.877   5.462 133.695  0.00  0.00    +0.000 C 
BRANCH  11  12
ATOM     12  N   UNL     1      -5.204   5.244 134.178  0.00  0.00    +0.000 N 
ATOM     13  C   UNL     1      -6.306   5.849 133.607  0.00  0.00    +0.000 C 
ATOM     14  O   UNL     1      -6.291   6.266 132.447  0.00  0.00    +0.000 OA
ATOM     15  H   UNL     1      -5.272   4.825 135.093  0.00  0.00    +0.000 HD
BRANCH  13  16
ATOM     16  C   UNL     1      -7.577   5.944 134.498  0.00  0.00    +0.000 C 
BRANCH  16  17
ATOM     17  N   UNL     1      -8.686   5.130 133.958  0.00  0.00    +0.000 N 
ATOM     18  C   UNL     1      -8.496   3.774 133.877  0.00  0.00    +0.000 C 
ATOM     19  O   UNL     1      -7.466   3.265 134.309  0.00  0.00    +0.000 OA
ATOM     20  H   UNL     1      -9.372   5.571 133.358  0.00  0.00    +0.000 HD
BRANCH  18  21
ATOM     21  C   UNL     1      -9.565   2.918 133.271  0.00  0.00    +0.000 C 
BRANCH  21  22
ATOM     22  C   UNL     1      -9.152   2.420 131.834  0.00  0.00    +0.000 C 
ATOM     23  C   UNL     1      -7.715   2.900 131.464  0.00  0.00    +0.000 C 
ATOM     24  C   UNL     1      -7.127   2.251 130.221  0.00  0.00    +0.000 C 
ATOM     25  C   UNL     1      -7.288   0.740 130.193  0.00  0.00    +0.000 C 
ATOM     26  C   UNL     1      -8.653   0.214 130.637  0.00  0.00    +0.000 C 
ATOM     27  C   UNL     1      -9.152   0.880 131.904  0.00  0.00    +0.000 C 
BRANCH  22  28
ATOM     28  S   UNL     1     -10.551   3.009 130.661  0.00  0.00    +0.000 S 
BRANCH  28  29
ATOM     29  C   UNL     1     -10.244   4.760 130.347  0.00  0.00    +0.000 C 
BRANCH  29  30
ATOM     30  C   UNL     1     -11.474   5.608 130.262  0.00  0.00    +0.000 C 
BRANCH  30  31
ATOM     31  C   UNL     1     -11.609   6.501 131.493  0.00  0.00    +0.000 C 
ATOM     32  N   UNL     1     -12.667   7.362 131.611  0.00  0.00    +0.000 N 
ATOM     33  O   UNL     1     -10.778   6.456 132.398  0.00  0.00    +0.000 OA
ATOM     34  H   UNL     1     -13.395   7.524 130.928  0.00  0.00    +0.000 HD
ATOM     35  H   UNL     1     -12.708   7.937 132.442  0.00  0.00    +0.000 HD
ENDBRANCH  30  31
ENDBRANCH  29  30
ENDBRANCH  28  29
ENDBRANCH  22  28
ENDBRANCH  21  22
ENDBRANCH  18  21
ENDBRANCH  16  17
BRANCH  16  36
ATOM     36  C   UNL     1      -7.208   5.575 135.950  0.00  0.00    +0.000 C 
BRANCH  36  37
ATOM     37  C   UNL     1      -7.317   6.747 136.917  0.00  0.00    +0.000 A 
ATOM     38  C   UNL     1      -8.549   7.153 137.474  0.00  0.00    +0.000 A 
ATOM     39  C   UNL     1      -8.704   8.391 138.076  0.00  0.00    +0.000 A 
ATOM     40  C   UNL     1      -7.582   9.152 138.351  0.00  0.00    +0.000 A 
ATOM     41  C   UNL     1      -6.337   8.736 137.870  0.00  0.00    +0.000 A 
ATOM     42  C   UNL     1      -6.205   7.553 137.139  0.00  0.00    +0.000 A 
BRANCH  40  43
ATOM     43  O   UNL     1      -7.816  10.256 139.119  0.00  0.00    +0.000 OA
ATOM     44  C   UNL     1      -6.823  11.267 139.046  0.00  0.00    +0.000 C 
ENDBRANCH  40  43
ENDBRANCH  36  37
ENDBRANCH  16  36
ENDBRANCH  13  16
ENDBRANCH  11  12
BRANCH  11  45
ATOM     45  C   UNL     1      -2.917   5.946 135.008  0.00  0.00    +0.000 C 
ATOM     46  C   UNL     1      -3.463   5.033 136.387  0.00  0.00    +0.000 C 
BRANCH  45  48
ATOM     47  C   UNL     1      -1.417   8.803 134.154  0.00  0.00    +0.000 C 
ATOM     48  C   UNL     1      -2.598   7.795 135.009  0.00  0.00    +0.000 C 
ENDBRANCH  45  48
ENDBRANCH  11  45
ENDBRANCH   7  11
ENDBRANCH   6   9
BRANCH   6  49
ATOM     49  C   UNL     1      -2.698   6.929 130.290  0.00  0.00    +0.000 C 
ATOM     50  C   UNL     1      -3.333   8.010 131.194  0.00  0.00    +0.000 C 
BRANCH  49  51
ATOM     51  O   UNL     1      -1.370   6.679 130.751  0.00  0.00    +0.000 OA
ATOM     52  H   UNL     1      -1.063   7.460 131.247  0.00  0.00    +0.000 HD
ENDBRANCH  49  51
ENDBRANCH   6  49
ENDBRANCH   2   6
ENDBRANCH   1   4
BRANCH   1  53
ATOM     53  C   UNL     1      -5.278   4.378 125.883  0.00  0.00    +0.000 C 
ATOM     54  O   UNL     1      -5.942   5.402 126.055  0.00  0.00    +0.000 OA
ATOM     55  N   UNL     1      -5.599   3.418 124.966  0.00  0.00    +0.000 N 
ATOM     56  H   UNL     1      -5.123   2.514 124.928  0.00  0.00    +0.000 HD
BRANCH  55  57
ATOM     57  C   UNL     1      -6.715   3.645 124.053  0.00  0.00    +0.000 C 
BRANCH  57  58
ATOM     58  C   UNL     1      -8.008   3.006 124.665  0.00  0.00    +0.000 C 
ATOM     59  O   UNL     1      -8.918   3.694 125.130  0.00  0.00    +0.000 OA
ATOM     60  N   UNL     1      -8.100   1.632 124.648  0.00  0.00    +0.000 N 
ATOM     61  H   UNL     1      -7.386   1.054 124.206  0.00  0.00    +0.000 HD
BRANCH  60  62
ATOM     62  C   UNL     1      -9.275   0.896 125.144  0.00  0.00    +0.000 C 
BRANCH  62  63
ATOM     63  C   UNL     1      -8.881  -0.589 125.243  0.00  0.00    +0.000 C 
ATOM     64  O   UNL     1      -9.346  -1.389 124.426  0.00  0.00    +0.000 OA
ATOM     65  N   UNL     1      -8.017  -0.988 126.235  0.00  0.00    +0.000 N 
ATOM     66  H   UNL     1      -7.693  -0.318 126.934  0.00  0.00    +0.000 HD
BRANCH  65  67
ATOM     67  C   UNL     1      -7.340  -2.344 126.314  0.00  0.00    +0.000 C 
BRANCH  67  68
ATOM     68  C   UNL     1      -6.866  -2.507 127.730  0.00  0.00    +0.000 C 
ATOM     69  O   UNL     1      -7.795  -2.256 128.495  0.00  0.00    +0.000 OA
ATOM     70  N   UNL     1      -5.520  -2.618 128.061  0.00  0.00    +0.000 N 
ATOM     71  H   UNL     1      -4.891  -2.254 127.367  0.00  0.00    +0.000 HD
BRANCH  70  72
ATOM     72  C   UNL     1      -4.880  -2.856 129.431  0.00  0.00    +0.000 C 
BRANCH  72  73
ATOM     73  C   UNL     1      -3.328  -3.023 129.439  0.00  0.00    +0.000 C 
ATOM     74  N   UNL     1      -2.787  -4.054 128.730  0.00  0.00    +0.000 N 
ATOM     75  O   UNL     1      -2.572  -2.254 130.031  0.00  0.00    +0.000 OA
ATOM     76  H   UNL     1      -3.293  -4.737 128.199  0.00  0.00    +0.000 HD
ATOM     77  H   UNL     1      -1.778  -4.150 128.753  0.00  0.00    +0.000 HD
ENDBRANCH  72  73
BRANCH  72  78
ATOM     78  C   UNL     1      -5.469  -4.120 130.146  0.00  0.00    +0.000 C 
BRANCH  78  79
ATOM     79  C   UNL     1      -6.007  -3.867 131.534  0.00  0.00    +0.000 A 
ATOM     80  C   UNL     1      -6.648  -2.689 131.840  0.00  0.00    +0.000 A 
ATOM     81  C   UNL     1      -7.504  -2.552 132.936  0.00  0.00    +0.000 A 
ATOM     82  C   UNL     1      -7.431  -3.426 133.996  0.00  0.00    +0.000 A 
ATOM     83  C   UNL     1      -6.448  -4.428 133.861  0.00  0.00    +0.000 A 
ATOM     84  I   UNL     1      -5.549  -5.476 135.437  0.00  0.00    +0.000 I 
ATOM     85  C   UNL     1      -5.819  -4.699 132.614  0.00  0.00    +0.000 A 
BRANCH  82  86
ATOM     86  N   UNL     1      -8.328  -3.109 135.034  0.00  0.00    +0.000 NA
ATOM     87  N   UNL     1      -7.882  -2.586 136.060  0.00  0.00    +0.000 NA
ATOM     88  N   UNL     1      -7.515  -2.098 137.023  0.00  0.00    +0.000 NA
ENDBRANCH  82  86
ENDBRANCH  78  79
ENDBRANCH  72  78
ENDBRANCH  70  72
ENDBRANCH  67  68
BRANCH  67  89
ATOM     89  C   UNL     1      -5.964  -2.326 125.640  0.00  0.00    +0.000 C 
BRANCH  89  90
ATOM     90  C   UNL     1      -6.043  -3.131 124.391  0.00  0.00    +0.000 C 
BRANCH  90  91
ATOM     91  C   UNL     1      -4.754  -3.202 123.646  0.00  0.00    +0.000 C 
BRANCH  91  92
ATOM     92  N   UNL     1      -4.421  -4.612 123.594  0.00  0.00    +0.000 NA
ATOM     93  H   UNL     1      -4.994  -5.080 122.891  0.00  0.00    +0.000 HD
ATOM     94  H   UNL     1      -4.604  -5.045 124.490  0.00  0.00    +0.000 HD
ENDBRANCH  91  92
ENDBRANCH  90  91
ENDBRANCH  89  90
ENDBRANCH  67  89
ENDBRANCH  65  67
ENDBRANCH  62  63
ENDBRANCH  60  62
ENDBRANCH  57  58
BRANCH  57  95
ATOM     95  C   UNL     1      -6.447   3.042 122.656  0.00  0.00    +0.000 C 
BRANCH  95  96
ATOM     96  S   UNL     1      -5.597   3.988 121.331  0.00  0.00    +0.000 S 
ATOM     97  H   UNL     1      -5.934   5.222 121.765  0.00  0.00    +0.000 HD
ENDBRANCH  95  96
ENDBRANCH  57  95
ENDBRANCH  55  57
ENDBRANCH   1  53
BRANCH   1  98
ATOM     98  C   UNL     1      -3.958   2.544 126.732  0.00  0.00    +0.000 C 
BRANCH  98  99
ATOM     99  C   UNL     1      -4.336   1.544 127.779  0.00  0.00    +0.000 C 
ATOM    100  N   UNL     1      -5.176   0.683 127.316  0.00  0.00    +0.000 N 
ATOM    101  O   UNL     1      -4.009   1.404 128.941  0.00  0.00    +0.000 OA
ATOM    102  H   UNL     1      -5.553   0.878 126.388  0.00  0.00    +0.000 HD
ATOM    103  H   UNL     1      -5.672   0.038 127.910  0.00  0.00    +0.000 HD
ENDBRANCH  98  99
ENDBRANCH   1  98
TORSDOF 40
ENDMDL
MODEL 4
REMARK VINA RESULT:      -8.5      1.475      2.125
REMARK  Name = CHEMBL2370343
REMARK  44 active torsions:
REMARK  status: ('A' for Active; 'I' for Inactive)
REMARK    1  A    between atoms: C_1  and  C_2
REMARK    2  A    between atoms: C_2  and  C_3
REMARK    3  A    between atoms: C_3  and  C_4
REMARK    4  A    between atoms: C_3  and  C_5
REMARK    5  A    between atoms: C_5  and  N_6
REMARK    6  A    between atoms: C_5  and  C_35
REMARK    7  A    between atoms: C_7  and  C_9
REMARK    8  A    between atoms: C_9  and  C_10
REMARK    9  A    between atoms: C_9  and  N_19
REMARK   10  A    between atoms: C_10  and  C_11
REMARK   11  A    between atoms: C_14  and  O_15
REMARK   12  A    between atoms: O_15  and  C_16
REMARK   13  A    between atoms: C_20  and  C_22
REMARK   14  A    between atoms: C_22  and  C_23
REMARK   15  A    between atoms: C_23  and  S_24
REMARK   16  A    between atoms: S_24  and  C_25
REMARK   17  A    between atoms: C_25  and  C_26
REMARK   18  A    between atoms: C_26  and  C_27
REMARK   19  A    between atoms: N_37  and  C_38
REMARK   20  A    between atoms: C_38  and  C_39
REMARK   21  A    between atoms: C_38  and  C_83
REMARK   22  A    between atoms: N_41  and  C_42
REMARK   23  A    between atoms: C_42  and  C_43
REMARK   24  A    between atoms: C_42  and  C_47
REMARK   25  A    between atoms: C_43  and  C_44
REMARK   26  A    between atoms: N_49  and  C_50
REMARK   27  A    between atoms: C_50  and  C_51
REMARK   28  A    between atoms: C_50  and  C_53
REMARK   29  A    between atoms: C_51  and  S_52
REMARK   30  A    between atoms: N_55  and  C_56
REMARK   31  A    between atoms: C_56  and  C_57
REMARK   32  A    between atoms: N_59  and  C_60
REMARK   33  A    between atoms: C_60  and  C_61
REMARK   34  A    between atoms: C_60  and  C_65
REMARK   35  A    between atoms: C_61  and  C_62
REMARK   36  A    between atoms: C_62  and  C_63
REMARK   37  A    between atoms: C_63  and  N_64
REMARK   38  A    between atoms: N_67  and  C_68
REMARK   39  A    between atoms: C_68  and  C_69
REMARK   40  A    between atoms: C_68  and  C_80
REMARK   41  A    between atoms: C_69  and  C_70
REMARK   42  A    between atoms: C_73  and  N_74
REMARK   43  A    between atoms: C_83  and  C_84
REMARK   44  A    between atoms: C_83  and  O_85
REMARK                            x       y       z     vdW  Elec       q    Type
REMARK                         _______ _______ _______ _____ _____    ______ ____
ROOT
ATOM      1  C   UNL     1      -5.201   4.285 126.537  0.00  0.00    +0.000 C 
ENDROOT
BRANCH   1   4
ATOM      2  C   UNL     1      -6.533   3.694 128.536  0.00  0.00    +0.000 C 
ATOM      3  O   UNL     1      -5.684   4.558 128.807  0.00  0.00    +0.000 OA
ATOM      4  N   UNL     1      -6.265   3.423 127.269  0.00  0.00    +0.000 N 
ATOM      5  H   UNL     1      -7.015   3.081 126.674  0.00  0.00    +0.000 HD
BRANCH   2   6
ATOM      6  C   UNL     1      -7.285   3.184 129.751  0.00  0.00    +0.000 C 
BRANCH   6   9
ATOM      7  C   UNL     1      -9.864   3.858 130.272  0.00  0.00    +0.000 C 
ATOM      8  O   UNL     1     -11.030   3.599 129.954  0.00  0.00    +0.000 OA
ATOM      9  N   UNL     1      -8.821   3.247 129.537  0.00  0.00    +0.000 N 
ATOM     10  H   UNL     1      -9.209   2.445 129.044  0.00  0.00    +0.000 HD
BRANCH   7  11
ATOM     11  C   UNL     1      -9.597   4.842 131.463  0.00  0.00    +0.000 C 
BRANCH  11  12
ATOM     12  N   UNL     1      -8.333   4.972 132.117  0.00  0.00    +0.000 N 
ATOM     13  C   UNL     1      -8.082   4.415 133.355  0.00  0.00    +0.000 C 
ATOM     14  O   UNL     1      -8.740   3.464 133.787  0.00  0.00    +0.000 OA
ATOM     15  H   UNL     1      -7.720   5.683 131.747  0.00  0.00    +0.000 HD
BRANCH  13  16
ATOM     16  C   UNL     1      -6.904   5.031 134.162  0.00  0.00    +0.000 C 
BRANCH  16  17
ATOM     17  N   UNL     1      -5.827   5.515 133.273  0.00  0.00    +0.000 N 
ATOM     18  C   UNL     1      -4.696   4.746 133.171  0.00  0.00    +0.000 C 
ATOM     19  O   UNL     1      -4.626   3.665 133.747  0.00  0.00    +0.000 OA
ATOM     20  H   UNL     1      -5.777   6.501 133.055  0.00  0.00    +0.000 HD
BRANCH  18  21
ATOM     21  C   UNL     1      -3.551   5.232 132.336  0.00  0.00    +0.000 C 
BRANCH  21  22
ATOM     22  C   UNL     1      -2.637   6.229 133.145  0.00  0.00    +0.000 C 
ATOM     23  C   UNL     1      -1.129   5.992 132.828  0.00  0.00    +0.000 C 
ATOM     24  C   UNL     1      -0.192   7.071 133.349  0.00  0.00    +0.000 C 
ATOM     25  C   UNL     1      -0.664   8.483 133.041  0.00  0.00    +0.000 C 
ATOM     26  C   UNL     1      -2.157   8.740 133.249  0.00  0.00    +0.000 C 
ATOM     27  C   UNL     1      -3.025   7.642 132.667  0.00  0.00    +0.000 C 
BRANCH  22  28
ATOM     28  S   UNL     1      -3.140   6.013 134.984  0.00  0.00    +0.000 S 
BRANCH  28  29
ATOM     29  C   UNL     1      -3.281   7.678 135.669  0.00  0.00    +0.000 C 
BRANCH  29  30
ATOM     30  C   UNL     1      -2.628   7.866 137.002  0.00  0.00    +0.000 C 
BRANCH  30  31
ATOM     31  C   UNL     1      -1.110   7.758 136.887  0.00  0.00    +0.000 C 
ATOM     32  N   UNL     1      -0.480   6.568 137.138  0.00  0.00    +0.000 N 
ATOM     33  O   UNL     1      -0.432   8.730 136.560  0.00  0.00    +0.000 OA
ATOM     34  H   UNL     1      -0.912   5.708 137.449  0.00  0.00    +0.000 HD
ATOM     35  H   UNL     1       0.528   6.550 137.053  0.00  0.00    +0.000 HD
ENDBRANCH  30  31
ENDBRANCH  29  30
ENDBRANCH  28  29
ENDBRANCH  22  28
ENDBRANCH  21  22
ENDBRANCH  18  21
ENDBRANCH  16  17
BRANCH  16  36
ATOM     36  C   UNL     1      -7.451   6.127 135.101  0.00  0.00    +0.000 C 
BRANCH  36  37
ATOM     37  C   UNL     1      -7.163   5.859 136.573  0.00  0.00    +0.000 A 
ATOM     38  C   UNL     1      -7.899   6.471 137.610  0.00  0.00    +0.000 A 
ATOM     39  C   UNL     1      -7.439   6.491 138.916  0.00  0.00    +0.000 A 
ATOM     40  C   UNL     1      -6.360   5.697 139.263  0.00  0.00    +0.000 A 
ATOM     41  C   UNL     1      -5.655   5.023 138.262  0.00  0.00    +0.000 A 
ATOM     42  C   UNL     1      -6.038   5.118 136.922  0.00  0.00    +0.000 A 
BRANCH  40  43
ATOM     43  O   UNL     1      -6.109   5.632 140.604  0.00  0.00    +0.000 OA
ATOM     44  C   UNL     1      -6.375   4.376 141.210  0.00  0.00    +0.000 C 
ENDBRANCH  40  43
ENDBRANCH  36  37
ENDBRANCH  16  36
ENDBRANCH  13  16
ENDBRANCH  11  12
BRANCH  11  45
ATOM     45  C   UNL     1     -10.156   6.402 131.097  0.00  0.00    +0.000 C 
ATOM     46  C   UNL     1     -11.718   6.560 131.849  0.00  0.00    +0.000 C 
BRANCH  45  48
ATOM     47  C   UNL     1     -10.480   8.101 128.242  0.00  0.00    +0.000 C 
ATOM     48  C   UNL     1      -9.764   6.899 129.331  0.00  0.00    +0.000 C 
ENDBRANCH  45  48
ENDBRANCH  11  45
ENDBRANCH   7  11
ENDBRANCH   6   9
BRANCH   6  49
ATOM     49  C   UNL     1      -6.660   1.873 130.104  0.00  0.00    +0.000 C 
ATOM     50  C   UNL     1      -7.706   0.761 129.858  0.00  0.00    +0.000 C 
BRANCH  49  51
ATOM     51  O   UNL     1      -5.532   1.623 129.266  0.00  0.00    +0.000 OA
ATOM     52  H   UNL     1      -5.852   1.298 128.404  0.00  0.00    +0.000 HD
ENDBRANCH  49  51
ENDBRANCH   6  49
ENDBRANCH   2   6
ENDBRANCH   1   4
BRANCH   1  53
ATOM     53  C   UNL     1      -5.914   4.598 125.264  0.00  0.00    +0.000 C 
ATOM     54  O   UNL     1      -6.371   5.732 125.109  0.00  0.00    +0.000 OA
ATOM     55  N   UNL     1      -6.097   3.584 124.368  0.00  0.00    +0.000 N 
ATOM     56  H   UNL     1      -5.833   2.617 124.571  0.00  0.00    +0.000 HD
BRANCH  55  57
ATOM     57  C   UNL     1      -6.768   3.860 123.102  0.00  0.00    +0.000 C 
BRANCH  57  58
ATOM     58  C   UNL     1      -8.012   2.916 122.971  0.00  0.00    +0.000 C 
ATOM     59  O   UNL     1      -8.880   3.095 122.114  0.00  0.00    +0.000 OA
ATOM     60  N   UNL     1      -8.091   1.855 123.845  0.00  0.00    +0.000 N 
ATOM     61  H   UNL     1      -7.348   1.655 124.512  0.00  0.00    +0.000 HD
BRANCH  60  62
ATOM     62  C   UNL     1      -9.177   0.860 123.808  0.00  0.00    +0.000 C 
BRANCH  62  63
ATOM     63  C   UNL     1      -8.666  -0.404 124.525  0.00  0.00    +0.000 C 
ATOM     64  O   UNL     1      -9.462  -1.313 124.780  0.00  0.00    +0.000 OA
ATOM     65  N   UNL     1      -7.336  -0.492 124.860  0.00  0.00    +0.000 N 
ATOM     66  H   UNL     1      -6.710   0.297 124.691  0.00  0.00    +0.000 HD
BRANCH  65  67
ATOM     67  C   UNL     1      -6.634  -1.752 125.333  0.00  0.00    +0.000 C 
BRANCH  67  68
ATOM     68  C   UNL     1      -6.193  -1.496 126.746  0.00  0.00    +0.000 C 
ATOM     69  O   UNL     1      -5.740  -0.356 126.823  0.00  0.00    +0.000 OA
ATOM     70  N   UNL     1      -6.057  -2.513 127.684  0.00  0.00    +0.000 N 
ATOM     71  H   UNL     1      -5.942  -3.429 127.288  0.00  0.00    +0.000 HD
BRANCH  70  72
ATOM     72  C   UNL     1      -5.689  -2.414 129.166  0.00  0.00    +0.000 C 
BRANCH  72  73
ATOM     73  C   UNL     1      -4.199  -2.064 129.477  0.00  0.00    +0.000 C 
ATOM     74  N   UNL     1      -3.847  -0.749 129.552  0.00  0.00    +0.000 N 
ATOM     75  O   UNL     1      -3.337  -2.918 129.686  0.00  0.00    +0.000 OA
ATOM     76  H   UNL     1      -4.456   0.035 129.417  0.00  0.00    +0.000 HD
ATOM     77  H   UNL     1      -2.874  -0.543 129.749  0.00  0.00    +0.000 HD
ENDBRANCH  72  73
BRANCH  72  78
ATOM     78  C   UNL     1      -6.008  -3.737 129.943  0.00  0.00    +0.000 C 
BRANCH  78  79
ATOM     79  C   UNL     1      -6.376  -3.544 131.395  0.00  0.00    +0.000 A 
ATOM     80  C   UNL     1      -7.041  -2.414 131.810  0.00  0.00    +0.000 A 
ATOM     81  C   UNL     1      -7.756  -2.351 133.010  0.00  0.00    +0.000 A 
ATOM     82  C   UNL     1      -7.495  -3.238 134.029  0.00  0.00    +0.000 A 
ATOM     83  C   UNL     1      -6.481  -4.174 133.743  0.00  0.00    +0.000 A 
ATOM     84  I   UNL     1      -5.326  -5.194 135.164  0.00  0.00    +0.000 I 
ATOM     85  C   UNL     1      -6.003  -4.383 132.420  0.00  0.00    +0.000 A 
BRANCH  82  86
ATOM     86  N   UNL     1      -8.269  -2.997 135.180  0.00  0.00    +0.000 NA
ATOM     87  N   UNL     1      -7.745  -2.405 136.129  0.00  0.00    +0.000 NA
ATOM     88  N   UNL     1      -7.303  -1.858 137.027  0.00  0.00    +0.000 NA
ENDBRANCH  82  86
ENDBRANCH  78  79
ENDBRANCH  72  78
ENDBRANCH  70  72
ENDBRANCH  67  68
BRANCH  67  89
ATOM     89  C   UNL     1      -5.241  -1.887 124.708  0.00  0.00    +0.000 C 
BRANCH  89  90
ATOM     90  C   UNL     1      -5.334  -2.820 123.552  0.00  0.00    +0.000 C 
BRANCH  90  91
ATOM     91  C   UNL     1      -5.136  -4.250 123.923  0.00  0.00    +0.000 C 
BRANCH  91  92
ATOM     92  N   UNL     1      -3.792  -4.574 123.488  0.00  0.00    +0.000 NA
ATOM     93  H   UNL     1      -3.610  -4.157 122.574  0.00  0.00    +0.000 HD
ATOM     94  H   UNL     1      -3.687  -5.578 123.403  0.00  0.00    +0.000 HD
ENDBRANCH  91  92
ENDBRANCH  90  91
ENDBRANCH  89  90
ENDBRANCH  67  89
ENDBRANCH  65  67
ENDBRANCH  62  63
ENDBRANCH  60  62
ENDBRANCH  57  58
BRANCH  57  95
ATOM     95  C   UNL     1      -5.827   3.652 121.894  0.00  0.00    +0.000 C 
BRANCH  95  96
ATOM     96  S   UNL     1      -6.217   4.316 120.227  0.00  0.00    +0.000 S 
ATOM     97  H   UNL     1      -5.062   3.951 119.628  0.00  0.00    +0.000 HD
ENDBRANCH  95  96
ENDBRANCH  57  95
ENDBRANCH  55  57
ENDBRANCH   1  53
BRANCH   1  98
ATOM     98  C   UNL     1      -3.848   3.617 126.038  0.00  0.00    +0.000 C 
BRANCH  98  99
ATOM     99  C   UNL     1      -2.713   3.101 126.865  0.00  0.00    +0.000 C 
ATOM    100  N   UNL     1      -3.092   2.863 128.074  0.00  0.00    +0.000 N 
ATOM    101  O   UNL     1      -1.545   2.878 126.614  0.00  0.00    +0.000 OA
ATOM    102  H   UNL     1      -4.032   3.176 128.320  0.00  0.00    +0.000 HD
ATOM    103  H   UNL     1      -2.439   2.671 128.817  0.00  0.00    +0.000 HD
ENDBRANCH  98  99
ENDBRANCH   1  98
TORSDOF 40
ENDMDL
MODEL 5
REMARK VINA RESULT:      -8.4      2.928      6.471
REMARK  Name = CHEMBL2370343
REMARK  44 active torsions:
REMARK  status: ('A' for Active; 'I' for Inactive)
REMARK    1  A    between atoms: C_1  and  C_2
REMARK    2  A    between atoms: C_2  and  C_3
REMARK    3  A    between atoms: C_3  and  C_4
REMARK    4  A    between atoms: C_3  and  C_5
REMARK    5  A    between atoms: C_5  and  N_6
REMARK    6  A    between atoms: C_5  and  C_35
REMARK    7  A    between atoms: C_7  and  C_9
REMARK    8  A    between atoms: C_9  and  C_10
REMARK    9  A    between atoms: C_9  and  N_19
REMARK   10  A    between atoms: C_10  and  C_11
REMARK   11  A    between atoms: C_14  and  O_15
REMARK   12  A    between atoms: O_15  and  C_16
REMARK   13  A    between atoms: C_20  and  C_22
REMARK   14  A    between atoms: C_22  and  C_23
REMARK   15  A    between atoms: C_23  and  S_24
REMARK   16  A    between atoms: S_24  and  C_25
REMARK   17  A    between atoms: C_25  and  C_26
REMARK   18  A    between atoms: C_26  and  C_27
REMARK   19  A    between atoms: N_37  and  C_38
REMARK   20  A    between atoms: C_38  and  C_39
REMARK   21  A    between atoms: C_38  and  C_83
REMARK   22  A    between atoms: N_41  and  C_42
REMARK   23  A    between atoms: C_42  and  C_43
REMARK   24  A    between atoms: C_42  and  C_47
REMARK   25  A    between atoms: C_43  and  C_44
REMARK   26  A    between atoms: N_49  and  C_50
REMARK   27  A    between atoms: C_50  and  C_51
REMARK   28  A    between atoms: C_50  and  C_53
REMARK   29  A    between atoms: C_51  and  S_52
REMARK   30  A    between atoms: N_55  and  C_56
REMARK   31  A    between atoms: C_56  and  C_57
REMARK   32  A    between atoms: N_59  and  C_60
REMARK   33  A    between atoms: C_60  and  C_61
REMARK   34  A    between atoms: C_60  and  C_65
REMARK   35  A    between atoms: C_61  and  C_62
REMARK   36  A    between atoms: C_62  and  C_63
REMARK   37  A    between atoms: C_63  and  N_64
REMARK   38  A    between atoms: N_67  and  C_68
REMARK   39  A    between atoms: C_68  and  C_69
REMARK   40  A    between atoms: C_68  and  C_80
REMARK   41  A    between atoms: C_69  and  C_70
REMARK   42  A    between atoms: C_73  and  N_74
REMARK   43  A    between atoms: C_83  and  C_84
REMARK   44  A    between atoms: C_83  and  O_85
REMARK                            x       y       z     vdW  Elec       q    Type
REMARK                         _______ _______ _______ _____ _____    ______ ____
ROOT
ATOM      1  C   UNL     1      -4.457   1.118 130.718  0.00  0.00    +0.000 C 
ENDROOT
BRANCH   1   4
ATOM      2  C   UNL     1      -3.782  -0.124 132.748  0.00  0.00    +0.000 C 
ATOM      3  O   UNL     1      -3.313  -0.652 131.727  0.00  0.00    +0.000 OA
ATOM      4  N   UNL     1      -4.522   0.851 132.247  0.00  0.00    +0.000 N 
ATOM      5  H   UNL     1      -4.689   1.679 132.813  0.00  0.00    +0.000 HD
BRANCH   2   6
ATOM      6  C   UNL     1      -3.525  -0.921 134.013  0.00  0.00    +0.000 C 
BRANCH   6   9
ATOM      7  C   UNL     1      -5.243  -0.276 136.015  0.00  0.00    +0.000 C 
ATOM      8  O   UNL     1      -6.234  -0.686 136.629  0.00  0.00    +0.000 OA
ATOM      9  N   UNL     1      -4.799  -1.015 134.894  0.00  0.00    +0.000 N 
ATOM     10  H   UNL     1      -5.200  -1.951 134.954  0.00  0.00    +0.000 HD
BRANCH   7  11
ATOM     11  C   UNL     1      -4.532   1.034 136.501  0.00  0.00    +0.000 C 
BRANCH  11  12
ATOM     12  N   UNL     1      -5.137   2.329 136.456  0.00  0.00    +0.000 N 
ATOM     13  C   UNL     1      -5.721   2.831 135.311  0.00  0.00    +0.000 C 
ATOM     14  O   UNL     1      -6.122   2.094 134.407  0.00  0.00    +0.000 OA
ATOM     15  H   UNL     1      -4.905   2.945 137.221  0.00  0.00    +0.000 HD
BRANCH  13  16
ATOM     16  C   UNL     1      -5.874   4.378 135.239  0.00  0.00    +0.000 C 
BRANCH  16  17
ATOM     17  N   UNL     1      -7.194   4.772 134.705  0.00  0.00    +0.000 N 
ATOM     18  C   UNL     1      -7.217   5.498 133.541  0.00  0.00    +0.000 C 
ATOM     19  O   UNL     1      -6.174   5.741 132.941  0.00  0.00    +0.000 OA
ATOM     20  H   UNL     1      -7.984   4.822 135.335  0.00  0.00    +0.000 HD
BRANCH  18  21
ATOM     21  C   UNL     1      -8.529   5.978 133.001  0.00  0.00    +0.000 C 
BRANCH  21  22
ATOM     22  C   UNL     1      -9.067   5.018 131.874  0.00  0.00    +0.000 C 
ATOM     23  C   UNL     1      -7.976   4.752 130.792  0.00  0.00    +0.000 C 
ATOM     24  C   UNL     1      -8.307   3.635 129.815  0.00  0.00    +0.000 C 
ATOM     25  C   UNL     1      -8.813   2.371 130.490  0.00  0.00    +0.000 C 
ATOM     26  C   UNL     1      -9.819   2.585 131.622  0.00  0.00    +0.000 C 
ATOM     27  C   UNL     1      -9.399   3.686 132.575  0.00  0.00    +0.000 C 
BRANCH  22  28
ATOM     28  S   UNL     1     -10.686   5.827 131.236  0.00  0.00    +0.000 S 
BRANCH  28  29
ATOM     29  C   UNL     1     -10.357   6.349 129.540  0.00  0.00    +0.000 C 
BRANCH  29  30
ATOM     30  C   UNL     1     -10.132   7.819 129.367  0.00  0.00    +0.000 C 
BRANCH  30  31
ATOM     31  C   UNL     1     -11.023   8.381 128.261  0.00  0.00    +0.000 C 
ATOM     32  N   UNL     1     -12.124   9.131 128.575  0.00  0.00    +0.000 N 
ATOM     33  O   UNL     1     -10.761   8.178 127.078  0.00  0.00    +0.000 OA
ATOM     34  H   UNL     1     -12.471   9.340 129.502  0.00  0.00    +0.000 HD
ATOM     35  H   UNL     1     -12.685   9.476 127.807  0.00  0.00    +0.000 HD
ENDBRANCH  30  31
ENDBRANCH  29  30
ENDBRANCH  28  29
ENDBRANCH  22  28
ENDBRANCH  21  22
ENDBRANCH  18  21
ENDBRANCH  16  17
BRANCH  16  36
ATOM     36  C   UNL     1      -5.578   4.982 136.627  0.00  0.00    +0.000 C 
BRANCH  36  37
ATOM     37  C   UNL     1      -6.418   6.215 136.939  0.00  0.00    +0.000 A 
ATOM     38  C   UNL     1      -5.869   7.515 136.965  0.00  0.00    +0.000 A 
ATOM     39  C   UNL     1      -6.535   8.575 137.560  0.00  0.00    +0.000 A 
ATOM     40  C   UNL     1      -7.860   8.419 137.926  0.00  0.00    +0.000 A 
ATOM     41  C   UNL     1      -8.449   7.154 137.843  0.00  0.00    +0.000 A 
ATOM     42  C   UNL     1      -7.730   6.052 137.374  0.00  0.00    +0.000 A 
BRANCH  40  43
ATOM     43  O   UNL     1      -8.482   9.570 138.315  0.00  0.00    +0.000 OA
ATOM     44  C   UNL     1      -9.890   9.586 138.139  0.00  0.00    +0.000 C 
ENDBRANCH  40  43
ENDBRANCH  36  37
ENDBRANCH  16  36
ENDBRANCH  13  16
ENDBRANCH  11  12
BRANCH  11  45
ATOM     45  C   UNL     1      -3.864   0.824 138.046  0.00  0.00    +0.000 C 
ATOM     46  C   UNL     1      -2.590  -0.351 137.883  0.00  0.00    +0.000 C 
BRANCH  45  48
ATOM     47  C   UNL     1      -5.899  -0.518 140.326  0.00  0.00    +0.000 C 
ATOM     48  C   UNL     1      -5.175   0.800 139.388  0.00  0.00    +0.000 C 
ENDBRANCH  45  48
ENDBRANCH  11  45
ENDBRANCH   7  11
ENDBRANCH   6   9
BRANCH   6  49
ATOM     49  C   UNL     1      -2.854  -2.184 133.578  0.00  0.00    +0.000 C 
ATOM     50  C   UNL     1      -2.032  -2.725 134.770  0.00  0.00    +0.000 C 
BRANCH  49  51
ATOM     51  O   UNL     1      -3.830  -3.163 133.223  0.00  0.00    +0.000 OA
ATOM     52  H   UNL     1      -4.019  -3.080 132.270  0.00  0.00    +0.000 HD
ENDBRANCH  49  51
ENDBRANCH   6  49
ENDBRANCH   2   6
ENDBRANCH   1   4
BRANCH   1  53
ATOM     53  C   UNL     1      -4.640   2.598 130.678  0.00  0.00    +0.000 C 
ATOM     54  O   UNL     1      -5.085   3.163 131.680  0.00  0.00    +0.000 OA
ATOM     55  N   UNL     1      -4.385   3.244 129.502  0.00  0.00    +0.000 N 
ATOM     56  H   UNL     1      -4.149   2.744 128.642  0.00  0.00    +0.000 HD
BRANCH  55  57
ATOM     57  C   UNL     1      -4.529   4.694 129.435  0.00  0.00    +0.000 C 
BRANCH  57  58
ATOM     58  C   UNL     1      -4.837   5.105 127.954  0.00  0.00    +0.000 C 
ATOM     59  O   UNL     1      -4.311   6.086 127.427  0.00  0.00    +0.000 OA
ATOM     60  N   UNL     1      -5.713   4.309 127.250  0.00  0.00    +0.000 N 
ATOM     61  H   UNL     1      -6.103   3.457 127.652  0.00  0.00    +0.000 HD
BRANCH  60  62
ATOM     62  C   UNL     1      -6.060   4.545 125.838  0.00  0.00    +0.000 C 
BRANCH  62  63
ATOM     63  C   UNL     1      -7.494   4.029 125.624  0.00  0.00    +0.000 C 
ATOM     64  O   UNL     1      -8.439   4.817 125.734  0.00  0.00    +0.000 OA
ATOM     65  N   UNL     1      -7.690   2.704 125.314  0.00  0.00    +0.000 N 
ATOM     66  H   UNL     1      -6.898   2.060 125.287  0.00  0.00    +0.000 HD
BRANCH  65  67
ATOM     67  C   UNL     1      -8.997   2.102 124.831  0.00  0.00    +0.000 C 
BRANCH  67  68
ATOM     68  C   UNL     1      -8.847   0.610 124.932  0.00  0.00    +0.000 C 
ATOM     69  O   UNL     1      -9.933   0.083 124.698  0.00  0.00    +0.000 OA
ATOM     70  N   UNL     1      -7.731   0.006 125.500  0.00  0.00    +0.000 N 
ATOM     71  H   UNL     1      -7.211   0.599 126.122  0.00  0.00    +0.000 HD
BRANCH  70  72
ATOM     72  C   UNL     1      -7.396  -1.483 125.618  0.00  0.00    +0.000 C 
BRANCH  72  73
ATOM     73  C   UNL     1      -7.537  -2.319 124.307  0.00  0.00    +0.000 C 
ATOM     74  N   UNL     1      -8.229  -3.493 124.362  0.00  0.00    +0.000 N 
ATOM     75  O   UNL     1      -7.080  -1.955 123.224  0.00  0.00    +0.000 OA
ATOM     76  H   UNL     1      -8.659  -3.888 125.176  0.00  0.00    +0.000 HD
ATOM     77  H   UNL     1      -8.305  -4.024 123.501  0.00  0.00    +0.000 HD
ENDBRANCH  72  73
BRANCH  72  78
ATOM     78  C   UNL     1      -8.272  -2.201 126.701  0.00  0.00    +0.000 C 
BRANCH  78  79
ATOM     79  C   UNL     1      -7.567  -2.465 128.010  0.00  0.00    +0.000 A 
ATOM     80  C   UNL     1      -8.156  -2.136 129.208  0.00  0.00    +0.000 A 
ATOM     81  C   UNL     1      -7.770  -2.702 130.426  0.00  0.00    +0.000 A 
ATOM     82  C   UNL     1      -6.529  -3.281 130.567  0.00  0.00    +0.000 A 
ATOM     83  C   UNL     1      -5.733  -3.246 129.405  0.00  0.00    +0.000 A 
ATOM     84  I   UNL     1      -3.641  -3.361 129.355  0.00  0.00    +0.000 I 
ATOM     85  C   UNL     1      -6.279  -2.934 128.129  0.00  0.00    +0.000 A 
BRANCH  82  86
ATOM     86  N   UNL     1      -6.287  -3.752 131.872  0.00  0.00    +0.000 NA
ATOM     87  N   UNL     1      -6.674  -3.070 132.826  0.00  0.00    +0.000 NA
ATOM     88  N   UNL     1      -7.019  -2.475 133.736  0.00  0.00    +0.000 NA
ENDBRANCH  82  86
ENDBRANCH  78  79
ENDBRANCH  72  78
ENDBRANCH  70  72
ENDBRANCH  67  68
BRANCH  67  89
ATOM     89  C   UNL     1      -9.127   2.189 123.306  0.00  0.00    +0.000 C 
BRANCH  89  90
ATOM     90  C   UNL     1      -7.761   2.160 122.717  0.00  0.00    +0.000 C 
BRANCH  90  91
ATOM     91  C   UNL     1      -7.464   3.330 121.843  0.00  0.00    +0.000 C 
BRANCH  91  92
ATOM     92  N   UNL     1      -8.756   3.812 121.398  0.00  0.00    +0.000 NA
ATOM     93  H   UNL     1      -9.299   3.042 121.003  0.00  0.00    +0.000 HD
ATOM     94  H   UNL     1      -8.636   4.514 120.678  0.00  0.00    +0.000 HD
ENDBRANCH  91  92
ENDBRANCH  90  91
ENDBRANCH  89  90
ENDBRANCH  67  89
ENDBRANCH  65  67
ENDBRANCH  62  63
ENDBRANCH  60  62
ENDBRANCH  57  58
BRANCH  57  95
ATOM     95  C   UNL     1      -3.258   5.423 129.924  0.00  0.00    +0.000 C 
BRANCH  95  96
ATOM     96  S   UNL     1      -3.338   6.981 130.894  0.00  0.00    +0.000 S 
ATOM     97  H   UNL     1      -2.127   7.462 130.536  0.00  0.00    +0.000 HD
ENDBRANCH  95  96
ENDBRANCH  57  95
ENDBRANCH  55  57
ENDBRANCH   1  53
BRANCH   1  98
ATOM     98  C   UNL     1      -5.618   0.586 129.772  0.00  0.00    +0.000 C 
BRANCH  98  99
ATOM     99  C   UNL     1      -5.804   0.834 128.308  0.00  0.00    +0.000 C 
ATOM    100  N   UNL     1      -4.900   0.226 127.618  0.00  0.00    +0.000 N 
ATOM    101  O   UNL     1      -6.616   1.482 127.679  0.00  0.00    +0.000 OA
ATOM    102  H   UNL     1      -4.142  -0.203 128.149  0.00  0.00    +0.000 HD
ATOM    103  H   UNL     1      -4.759   0.406 126.636  0.00  0.00    +0.000 HD
ENDBRANCH  98  99
ENDBRANCH   1  98
TORSDOF 40
ENDMDL
MODEL 6
REMARK VINA RESULT:      -8.4      3.429      7.185
REMARK  Name = CHEMBL2370343
REMARK  44 active torsions:
REMARK  status: ('A' for Active; 'I' for Inactive)
REMARK    1  A    between atoms: C_1  and  C_2
REMARK    2  A    between atoms: C_2  and  C_3
REMARK    3  A    between atoms: C_3  and  C_4
REMARK    4  A    between atoms: C_3  and  C_5
REMARK    5  A    between atoms: C_5  and  N_6
REMARK    6  A    between atoms: C_5  and  C_35
REMARK    7  A    between atoms: C_7  and  C_9
REMARK    8  A    between atoms: C_9  and  C_10
REMARK    9  A    between atoms: C_9  and  N_19
REMARK   10  A    between atoms: C_10  and  C_11
REMARK   11  A    between atoms: C_14  and  O_15
REMARK   12  A    between atoms: O_15  and  C_16
REMARK   13  A    between atoms: C_20  and  C_22
REMARK   14  A    between atoms: C_22  and  C_23
REMARK   15  A    between atoms: C_23  and  S_24
REMARK   16  A    between atoms: S_24  and  C_25
REMARK   17  A    between atoms: C_25  and  C_26
REMARK   18  A    between atoms: C_26  and  C_27
REMARK   19  A    between atoms: N_37  and  C_38
REMARK   20  A    between atoms: C_38  and  C_39
REMARK   21  A    between atoms: C_38  and  C_83
REMARK   22  A    between atoms: N_41  and  C_42
REMARK   23  A    between atoms: C_42  and  C_43
REMARK   24  A    between atoms: C_42  and  C_47
REMARK   25  A    between atoms: C_43  and  C_44
REMARK   26  A    between atoms: N_49  and  C_50
REMARK   27  A    between atoms: C_50  and  C_51
REMARK   28  A    between atoms: C_50  and  C_53
REMARK   29  A    between atoms: C_51  and  S_52
REMARK   30  A    between atoms: N_55  and  C_56
REMARK   31  A    between atoms: C_56  and  C_57
REMARK   32  A    between atoms: N_59  and  C_60
REMARK   33  A    between atoms: C_60  and  C_61
REMARK   34  A    between atoms: C_60  and  C_65
REMARK   35  A    between atoms: C_61  and  C_62
REMARK   36  A    between atoms: C_62  and  C_63
REMARK   37  A    between atoms: C_63  and  N_64
REMARK   38  A    between atoms: N_67  and  C_68
REMARK   39  A    between atoms: C_68  and  C_69
REMARK   40  A    between atoms: C_68  and  C_80
REMARK   41  A    between atoms: C_69  and  C_70
REMARK   42  A    between atoms: C_73  and  N_74
REMARK   43  A    between atoms: C_83  and  C_84
REMARK   44  A    between atoms: C_83  and  O_85
REMARK                            x       y       z     vdW  Elec       q    Type
REMARK                         _______ _______ _______ _____ _____    ______ ____
ROOT
ATOM      1  C   UNL     1      -4.162   4.771 126.747  0.00  0.00    +0.000 C 
ENDROOT
BRANCH   1   4
ATOM      2  C   UNL     1      -4.279   5.356 129.146  0.00  0.00    +0.000 C 
ATOM      3  O   UNL     1      -3.151   5.591 128.686  0.00  0.00    +0.000 OA
ATOM      4  N   UNL     1      -4.896   4.804 128.116  0.00  0.00    +0.000 N 
ATOM      5  H   UNL     1      -5.907   4.882 128.051  0.00  0.00    +0.000 HD
BRANCH   2   6
ATOM      6  C   UNL     1      -4.373   5.557 130.648  0.00  0.00    +0.000 C 
BRANCH   6   9
ATOM      7  C   UNL     1      -3.010   4.079 132.474  0.00  0.00    +0.000 C 
ATOM      8  O   UNL     1      -1.885   3.910 132.957  0.00  0.00    +0.000 OA
ATOM      9  N   UNL     1      -3.138   4.965 131.379  0.00  0.00    +0.000 N 
ATOM     10  H   UNL     1      -2.312   5.561 131.356  0.00  0.00    +0.000 HD
BRANCH   7  11
ATOM     11  C   UNL     1      -4.230   3.310 133.088  0.00  0.00    +0.000 C 
BRANCH  11  12
ATOM     12  N   UNL     1      -4.151   1.980 133.607  0.00  0.00    +0.000 N 
ATOM     13  C   UNL     1      -4.016   0.876 132.790  0.00  0.00    +0.000 C 
ATOM     14  O   UNL     1      -3.558   0.963 131.648  0.00  0.00    +0.000 OA
ATOM     15  H   UNL     1      -4.436   1.869 134.568  0.00  0.00    +0.000 HD
BRANCH  13  16
ATOM     16  C   UNL     1      -4.445  -0.489 133.401  0.00  0.00    +0.000 C 
BRANCH  16  17
ATOM     17  N   UNL     1      -3.366  -1.085 134.216  0.00  0.00    +0.000 N 
ATOM     18  C   UNL     1      -2.652  -2.118 133.665  0.00  0.00    +0.000 C 
ATOM     19  O   UNL     1      -2.865  -2.473 132.509  0.00  0.00    +0.000 OA
ATOM     20  H   UNL     1      -3.401  -0.989 135.223  0.00  0.00    +0.000 HD
BRANCH  18  21
ATOM     21  C   UNL     1      -1.596  -2.798 134.481  0.00  0.00    +0.000 C 
BRANCH  21  22
ATOM     22  C   UNL     1      -2.107  -4.181 135.036  0.00  0.00    +0.000 C 
ATOM     23  C   UNL     1      -3.397  -4.001 135.893  0.00  0.00    +0.000 C 
ATOM     24  C   UNL     1      -4.113  -5.296 136.246  0.00  0.00    +0.000 C 
ATOM     25  C   UNL     1      -4.295  -6.230 135.061  0.00  0.00    +0.000 C 
ATOM     26  C   UNL     1      -3.084  -6.369 134.138  0.00  0.00    +0.000 C 
ATOM     27  C   UNL     1      -2.452  -5.033 133.799  0.00  0.00    +0.000 C 
BRANCH  22  28
ATOM     28  S   UNL     1      -0.608  -4.956 135.950  0.00  0.00    +0.000 S 
BRANCH  28  29
ATOM     29  C   UNL     1      -0.483  -4.098 137.534  0.00  0.00    +0.000 C 
BRANCH  29  30
ATOM     30  C   UNL     1       0.753  -3.271 137.705  0.00  0.00    +0.000 C 
BRANCH  30  31
ATOM     31  C   UNL     1       0.402  -1.801 137.919  0.00  0.00    +0.000 C 
ATOM     32  N   UNL     1       0.324  -0.946 136.852  0.00  0.00    +0.000 N 
ATOM     33  O   UNL     1       0.174  -1.366 139.045  0.00  0.00    +0.000 OA
ATOM     34  H   UNL     1       0.522  -1.165 135.885  0.00  0.00    +0.000 HD
ATOM     35  H   UNL     1       0.093   0.019 137.047  0.00  0.00    +0.000 HD
ENDBRANCH  30  31
ENDBRANCH  29  30
ENDBRANCH  28  29
ENDBRANCH  22  28
ENDBRANCH  21  22
ENDBRANCH  18  21
ENDBRANCH  16  17
BRANCH  16  36
ATOM     36  C   UNL     1      -5.762  -0.302 134.184  0.00  0.00    +0.000 C 
BRANCH  36  37
ATOM     37  C   UNL     1      -6.472  -1.615 134.491  0.00  0.00    +0.000 A 
ATOM     38  C   UNL     1      -6.814  -1.999 135.805  0.00  0.00    +0.000 A 
ATOM     39  C   UNL     1      -7.150  -3.306 136.118  0.00  0.00    +0.000 A 
ATOM     40  C   UNL     1      -7.387  -4.205 135.095  0.00  0.00    +0.000 A 
ATOM     41  C   UNL     1      -7.122  -3.827 133.775  0.00  0.00    +0.000 A 
ATOM     42  C   UNL     1      -6.647  -2.548 133.473  0.00  0.00    +0.000 A 
BRANCH  40  43
ATOM     43  O   UNL     1      -7.903  -5.403 135.497  0.00  0.00    +0.000 OA
ATOM     44  C   UNL     1      -9.168  -5.334 136.137  0.00  0.00    +0.000 C 
ENDBRANCH  40  43
ENDBRANCH  36  37
ENDBRANCH  16  36
ENDBRANCH  13  16
ENDBRANCH  11  12
BRANCH  11  45
ATOM     45  C   UNL     1      -5.037   4.268 134.232  0.00  0.00    +0.000 C 
ATOM     46  C   UNL     1      -6.517   4.797 133.484  0.00  0.00    +0.000 C 
BRANCH  45  48
ATOM     47  C   UNL     1      -3.868   7.124 135.505  0.00  0.00    +0.000 C 
ATOM     48  C   UNL     1      -3.862   5.381 135.181  0.00  0.00    +0.000 C 
ENDBRANCH  45  48
ENDBRANCH  11  45
ENDBRANCH   7  11
ENDBRANCH   6   9
BRANCH   6  49
ATOM     49  C   UNL     1      -4.709   6.999 130.852  0.00  0.00    +0.000 C 
ATOM     50  C   UNL     1      -3.525   7.668 131.587  0.00  0.00    +0.000 C 
BRANCH  49  51
ATOM     51  O   UNL     1      -4.882   7.648 129.593  0.00  0.00    +0.000 OA
ATOM     52  H   UNL     1      -5.166   6.983 128.938  0.00  0.00    +0.000 HD
ENDBRANCH  49  51
ENDBRANCH   6  49
ENDBRANCH   2   6
ENDBRANCH   1   4
BRANCH   1  53
ATOM     53  C   UNL     1      -5.312   4.889 125.804  0.00  0.00    +0.000 C 
ATOM     54  O   UNL     1      -5.924   5.959 125.754  0.00  0.00    +0.000 OA
ATOM     55  N   UNL     1      -5.683   3.777 125.103  0.00  0.00    +0.000 N 
ATOM     56  H   UNL     1      -5.253   2.862 125.258  0.00  0.00    +0.000 HD
BRANCH  55  57
ATOM     57  C   UNL     1      -6.788   3.864 124.154  0.00  0.00    +0.000 C 
BRANCH  57  58
ATOM     58  C   UNL     1      -8.094   3.345 124.846  0.00  0.00    +0.000 C 
ATOM     59  O   UNL     1      -9.016   4.103 125.151  0.00  0.00    +0.000 OA
ATOM     60  N   UNL     1      -8.182   1.992 125.088  0.00  0.00    +0.000 N 
ATOM     61  H   UNL     1      -7.458   1.345 124.779  0.00  0.00    +0.000 HD
BRANCH  60  62
ATOM     62  C   UNL     1      -9.368   1.356 125.688  0.00  0.00    +0.000 C 
BRANCH  62  63
ATOM     63  C   UNL     1      -9.119  -0.163 125.699  0.00  0.00    +0.000 C 
ATOM     64  O   UNL     1     -10.082  -0.931 125.608  0.00  0.00    +0.000 OA
ATOM     65  N   UNL     1      -7.830  -0.629 125.808  0.00  0.00    +0.000 N 
ATOM     66  H   UNL     1      -7.057   0.024 125.940  0.00  0.00    +0.000 HD
BRANCH  65  67
ATOM     67  C   UNL     1      -7.397  -2.067 125.582  0.00  0.00    +0.000 C 
BRANCH  67  68
ATOM     68  C   UNL     1      -6.179  -2.288 126.434  0.00  0.00    +0.000 C 
ATOM     69  O   UNL     1      -5.195  -2.395 125.705  0.00  0.00    +0.000 OA
ATOM     70  N   UNL     1      -6.258  -2.619 127.782  0.00  0.00    +0.000 N 
ATOM     71  H   UNL     1      -7.136  -3.020 128.059  0.00  0.00    +0.000 HD
BRANCH  70  72
ATOM     72  C   UNL     1      -5.127  -2.809 128.796  0.00  0.00    +0.000 C 
BRANCH  72  73
ATOM     73  C   UNL     1      -5.457  -3.715 130.024  0.00  0.00    +0.000 C 
ATOM     74  N   UNL     1      -4.433  -4.090 130.842  0.00  0.00    +0.000 N 
ATOM     75  O   UNL     1      -6.598  -4.080 130.302  0.00  0.00    +0.000 OA
ATOM     76  H   UNL     1      -3.467  -3.847 130.730  0.00  0.00    +0.000 HD
ATOM     77  H   UNL     1      -4.667  -4.683 131.631  0.00  0.00    +0.000 HD
ENDBRANCH  72  73
BRANCH  72  78
ATOM     78  C   UNL     1      -4.616  -1.444 129.373  0.00  0.00    +0.000 C 
BRANCH  78  79
ATOM     79  C   UNL     1      -5.646  -0.339 129.387  0.00  0.00    +0.000 A 
ATOM     80  C   UNL     1      -5.470   0.799 128.634  0.00  0.00    +0.000 A 
ATOM     81  C   UNL     1      -6.524   1.647 128.283  0.00  0.00    +0.000 A 
ATOM     82  C   UNL     1      -7.697   1.641 129.001  0.00  0.00    +0.000 A 
ATOM     83  C   UNL     1      -7.720   0.729 130.076  0.00  0.00    +0.000 A 
ATOM     84  I   UNL     1      -8.944   0.871 131.771  0.00  0.00    +0.000 I 
ATOM     85  C   UNL     1      -6.753  -0.306 130.202  0.00  0.00    +0.000 A 
BRANCH  82  86
ATOM     86  N   UNL     1      -8.627   2.594 128.543  0.00  0.00    +0.000 NA
ATOM     87  N   UNL     1      -8.268   3.772 128.449  0.00  0.00    +0.000 NA
ATOM     88  N   UNL     1      -7.977   4.869 128.343  0.00  0.00    +0.000 NA
ENDBRANCH  82  86
ENDBRANCH  78  79
ENDBRANCH  72  78
ENDBRANCH  70  72
ENDBRANCH  67  68
BRANCH  67  89
ATOM     89  C   UNL     1      -6.724  -2.244 124.217  0.00  0.00    +0.000 C 
BRANCH  89  90
ATOM     90  C   UNL     1      -7.760  -2.658 123.233  0.00  0.00    +0.000 C 
BRANCH  90  91
ATOM     91  C   UNL     1      -8.795  -3.567 123.805  0.00  0.00    +0.000 C 
BRANCH  91  92
ATOM     92  N   UNL     1     -10.065  -3.024 123.364  0.00  0.00    +0.000 NA
ATOM     93  H   UNL     1     -10.641  -3.766 122.963  0.00  0.00    +0.000 HD
ATOM     94  H   UNL     1      -9.913  -2.322 122.651  0.00  0.00    +0.000 HD
ENDBRANCH  91  92
ENDBRANCH  90  91
ENDBRANCH  89  90
ENDBRANCH  67  89
ENDBRANCH  65  67
ENDBRANCH  62  63
ENDBRANCH  60  62
ENDBRANCH  57  58
BRANCH  57  95
ATOM     95  C   UNL     1      -6.514   3.041 122.874  0.00  0.00    +0.000 C 
BRANCH  95  96
ATOM     96  S   UNL     1      -7.474   3.292 121.329  0.00  0.00    +0.000 S 
ATOM     97  H   UNL     1      -6.421   3.328 120.483  0.00  0.00    +0.000 HD
ENDBRANCH  95  96
ENDBRANCH  57  95
ENDBRANCH  55  57
ENDBRANCH   1  53
BRANCH   1  98
ATOM     98  C   UNL     1      -3.440   3.438 126.268  0.00  0.00    +0.000 C 
BRANCH  98  99
ATOM     99  C   UNL     1      -2.205   2.805 126.827  0.00  0.00    +0.000 C 
ATOM    100  N   UNL     1      -2.381   2.453 128.054  0.00  0.00    +0.000 N 
ATOM    101  O   UNL     1      -1.110   2.576 126.353  0.00  0.00    +0.000 OA
ATOM    102  H   UNL     1      -3.248   2.766 128.492  0.00  0.00    +0.000 HD
ATOM    103  H   UNL     1      -1.619   2.165 128.648  0.00  0.00    +0.000 HD
ENDBRANCH  98  99
ENDBRANCH   1  98
TORSDOF 40
ENDMDL
MODEL 7
REMARK VINA RESULT:      -8.2      2.910      6.714
REMARK  Name = CHEMBL2370343
REMARK  44 active torsions:
REMARK  status: ('A' for Active; 'I' for Inactive)
REMARK    1  A    between atoms: C_1  and  C_2
REMARK    2  A    between atoms: C_2  and  C_3
REMARK    3  A    between atoms: C_3  and  C_4
REMARK    4  A    between atoms: C_3  and  C_5
REMARK    5  A    between atoms: C_5  and  N_6
REMARK    6  A    between atoms: C_5  and  C_35
REMARK    7  A    between atoms: C_7  and  C_9
REMARK    8  A    between atoms: C_9  and  C_10
REMARK    9  A    between atoms: C_9  and  N_19
REMARK   10  A    between atoms: C_10  and  C_11
REMARK   11  A    between atoms: C_14  and  O_15
REMARK   12  A    between atoms: O_15  and  C_16
REMARK   13  A    between atoms: C_20  and  C_22
REMARK   14  A    between atoms: C_22  and  C_23
REMARK   15  A    between atoms: C_23  and  S_24
REMARK   16  A    between atoms: S_24  and  C_25
REMARK   17  A    between atoms: C_25  and  C_26
REMARK   18  A    between atoms: C_26  and  C_27
REMARK   19  A    between atoms: N_37  and  C_38
REMARK   20  A    between atoms: C_38  and  C_39
REMARK   21  A    between atoms: C_38  and  C_83
REMARK   22  A    between atoms: N_41  and  C_42
REMARK   23  A    between atoms: C_42  and  C_43
REMARK   24  A    between atoms: C_42  and  C_47
REMARK   25  A    between atoms: C_43  and  C_44
REMARK   26  A    between atoms: N_49  and  C_50
REMARK   27  A    between atoms: C_50  and  C_51
REMARK   28  A    between atoms: C_50  and  C_53
REMARK   29  A    between atoms: C_51  and  S_52
REMARK   30  A    between atoms: N_55  and  C_56
REMARK   31  A    between atoms: C_56  and  C_57
REMARK   32  A    between atoms: N_59  and  C_60
REMARK   33  A    between atoms: C_60  and  C_61
REMARK   34  A    between atoms: C_60  and  C_65
REMARK   35  A    between atoms: C_61  and  C_62
REMARK   36  A    between atoms: C_62  and  C_63
REMARK   37  A    between atoms: C_63  and  N_64
REMARK   38  A    between atoms: N_67  and  C_68
REMARK   39  A    between atoms: C_68  and  C_69
REMARK   40  A    between atoms: C_68  and  C_80
REMARK   41  A    between atoms: C_69  and  C_70
REMARK   42  A    between atoms: C_73  and  N_74
REMARK   43  A    between atoms: C_83  and  C_84
REMARK   44  A    between atoms: C_83  and  O_85
REMARK                            x       y       z     vdW  Elec       q    Type
REMARK                         _______ _______ _______ _____ _____    ______ ____
ROOT
ATOM      1  C   UNL     1      -4.306   1.231 130.752  0.00  0.00    +0.000 C 
ENDROOT
BRANCH   1   4
ATOM      2  C   UNL     1      -3.636   0.004 132.792  0.00  0.00    +0.000 C 
ATOM      3  O   UNL     1      -3.237  -0.579 131.772  0.00  0.00    +0.000 OA
ATOM      4  N   UNL     1      -4.332   1.010 132.289  0.00  0.00    +0.000 N 
ATOM      5  H   UNL     1      -4.428   1.861 132.836  0.00  0.00    +0.000 HD
BRANCH   2   6
ATOM      6  C   UNL     1      -3.383  -0.773 134.070  0.00  0.00    +0.000 C 
BRANCH   6   9
ATOM      7  C   UNL     1      -5.115  -0.029 136.026  0.00  0.00    +0.000 C 
ATOM      8  O   UNL     1      -6.095  -0.419 136.669  0.00  0.00    +0.000 OA
ATOM      9  N   UNL     1      -4.654  -0.835 134.959  0.00  0.00    +0.000 N 
ATOM     10  H   UNL     1      -5.031  -1.774 135.086  0.00  0.00    +0.000 HD
BRANCH   7  11
ATOM     11  C   UNL     1      -4.436   1.329 136.415  0.00  0.00    +0.000 C 
BRANCH  11  12
ATOM     12  N   UNL     1      -5.029   2.609 136.183  0.00  0.00    +0.000 N 
ATOM     13  C   UNL     1      -5.737   2.896 135.034  0.00  0.00    +0.000 C 
ATOM     14  O   UNL     1      -6.248   2.010 134.344  0.00  0.00    +0.000 OA
ATOM     15  H   UNL     1      -4.705   3.355 136.780  0.00  0.00    +0.000 HD
BRANCH  13  16
ATOM     16  C   UNL     1      -5.883   4.403 134.674  0.00  0.00    +0.000 C 
BRANCH  16  17
ATOM     17  N   UNL     1      -7.265   4.737 134.274  0.00  0.00    +0.000 N 
ATOM     18  C   UNL     1      -7.429   5.610 133.228  0.00  0.00    +0.000 C 
ATOM     19  O   UNL     1      -6.455   6.031 132.613  0.00  0.00    +0.000 OA
ATOM     20  H   UNL     1      -8.012   4.626 134.947  0.00  0.00    +0.000 HD
BRANCH  18  21
ATOM     21  C   UNL     1      -8.811   6.032 132.834  0.00  0.00    +0.000 C 
BRANCH  21  22
ATOM     22  C   UNL     1      -9.367   5.141 131.659  0.00  0.00    +0.000 C 
ATOM     23  C   UNL     1      -8.368   5.103 130.462  0.00  0.00    +0.000 C 
ATOM     24  C   UNL     1      -8.687   4.063 129.399  0.00  0.00    +0.000 C 
ATOM     25  C   UNL     1      -9.003   2.691 129.971  0.00  0.00    +0.000 C 
ATOM     26  C   UNL     1      -9.907   2.681 131.204  0.00  0.00    +0.000 C 
ATOM     27  C   UNL     1      -9.500   3.717 132.234  0.00  0.00    +0.000 C 
BRANCH  22  28
ATOM     28  S   UNL     1     -11.110   5.838 131.262  0.00  0.00    +0.000 S 
BRANCH  28  29
ATOM     29  C   UNL     1     -10.876   7.081 129.973  0.00  0.00    +0.000 C 
BRANCH  29  30
ATOM     30  C   UNL     1     -12.002   7.188 128.993  0.00  0.00    +0.000 C 
BRANCH  30  31
ATOM     31  C   UNL     1     -11.505   6.973 127.565  0.00  0.00    +0.000 C 
ATOM     32  N   UNL     1     -10.166   6.847 127.310  0.00  0.00    +0.000 N 
ATOM     33  O   UNL     1     -12.297   6.899 126.628  0.00  0.00    +0.000 OA
ATOM     34  H   UNL     1      -9.412   6.925 127.980  0.00  0.00    +0.000 HD
ATOM     35  H   UNL     1      -9.887   6.712 126.347  0.00  0.00    +0.000 HD
ENDBRANCH  30  31
ENDBRANCH  29  30
ENDBRANCH  28  29
ENDBRANCH  22  28
ENDBRANCH  21  22
ENDBRANCH  18  21
ENDBRANCH  16  17
BRANCH  16  36
ATOM     36  C   UNL     1      -5.370   5.257 135.852  0.00  0.00    +0.000 C 
BRANCH  36  37
ATOM     37  C   UNL     1      -4.241   6.204 135.463  0.00  0.00    +0.000 A 
ATOM     38  C   UNL     1      -3.225   5.834 134.556  0.00  0.00    +0.000 A 
ATOM     39  C   UNL     1      -2.043   6.549 134.455  0.00  0.00    +0.000 A 
ATOM     40  C   UNL     1      -1.945   7.781 135.077  0.00  0.00    +0.000 A 
ATOM     41  C   UNL     1      -2.971   8.203 135.927  0.00  0.00    +0.000 A 
ATOM     42  C   UNL     1      -4.104   7.413 136.138  0.00  0.00    +0.000 A 
BRANCH  40  43
ATOM     43  O   UNL     1      -0.824   8.493 134.757  0.00  0.00    +0.000 OA
ATOM     44  C   UNL     1       0.348   7.720 134.555  0.00  0.00    +0.000 C 
ENDBRANCH  40  43
ENDBRANCH  36  37
ENDBRANCH  16  36
ENDBRANCH  13  16
ENDBRANCH  11  12
BRANCH  11  45
ATOM     45  C   UNL     1      -3.885   1.294 138.020  0.00  0.00    +0.000 C 
ATOM     46  C   UNL     1      -2.731  -0.006 138.122  0.00  0.00    +0.000 C 
BRANCH  45  48
ATOM     47  C   UNL     1      -6.155   0.508 140.337  0.00  0.00    +0.000 C 
ATOM     48  C   UNL     1      -5.270   1.593 139.250  0.00  0.00    +0.000 C 
ENDBRANCH  45  48
ENDBRANCH  11  45
ENDBRANCH   7  11
ENDBRANCH   6   9
BRANCH   6  49
ATOM     49  C   UNL     1      -2.730  -2.052 133.655  0.00  0.00    +0.000 C 
ATOM     50  C   UNL     1      -1.961  -2.615 134.873  0.00  0.00    +0.000 C 
BRANCH  49  51
ATOM     51  O   UNL     1      -3.718  -3.006 133.267  0.00  0.00    +0.000 OA
ATOM     52  H   UNL     1      -3.450  -3.883 133.599  0.00  0.00    +0.000 HD
ENDBRANCH  49  51
ENDBRANCH   6  49
ENDBRANCH   2   6
ENDBRANCH   1   4
BRANCH   1  53
ATOM     53  C   UNL     1      -4.700   2.667 130.663  0.00  0.00    +0.000 C 
ATOM     54  O   UNL     1      -5.672   3.052 131.317  0.00  0.00    +0.000 OA
ATOM     55  N   UNL     1      -4.013   3.467 129.795  0.00  0.00    +0.000 N 
ATOM     56  H   UNL     1      -3.300   3.101 129.159  0.00  0.00    +0.000 HD
BRANCH  55  57
ATOM     57  C   UNL     1      -4.354   4.882 129.701  0.00  0.00    +0.000 C 
BRANCH  57  58
ATOM     58  C   UNL     1      -4.658   5.232 128.204  0.00  0.00    +0.000 C 
ATOM     59  O   UNL     1      -4.234   6.262 127.676  0.00  0.00    +0.000 OA
ATOM     60  N   UNL     1      -5.410   4.329 127.487  0.00  0.00    +0.000 N 
ATOM     61  H   UNL     1      -5.709   3.442 127.891  0.00  0.00    +0.000 HD
BRANCH  60  62
ATOM     62  C   UNL     1      -5.734   4.502 126.060  0.00  0.00    +0.000 C 
BRANCH  62  63
ATOM     63  C   UNL     1      -7.197   4.065 125.865  0.00  0.00    +0.000 C 
ATOM     64  O   UNL     1      -8.100   4.882 126.066  0.00  0.00    +0.000 OA
ATOM     65  N   UNL     1      -7.463   2.776 125.468  0.00  0.00    +0.000 N 
ATOM     66  H   UNL     1      -6.702   2.102 125.365  0.00  0.00    +0.000 HD
BRANCH  65  67
ATOM     67  C   UNL     1      -8.812   2.267 124.993  0.00  0.00    +0.000 C 
BRANCH  67  68
ATOM     68  C   UNL     1      -8.767   0.769 125.093  0.00  0.00    +0.000 C 
ATOM     69  O   UNL     1      -9.906   0.325 124.963  0.00  0.00    +0.000 OA
ATOM     70  N   UNL     1      -7.652   0.082 125.562  0.00  0.00    +0.000 N 
ATOM     71  H   UNL     1      -7.034   0.635 126.129  0.00  0.00    +0.000 HD
BRANCH  70  72
ATOM     72  C   UNL     1      -7.421  -1.428 125.661  0.00  0.00    +0.000 C 
BRANCH  72  73
ATOM     73  C   UNL     1      -7.662  -2.242 124.351  0.00  0.00    +0.000 C 
ATOM     74  N   UNL     1      -6.812  -2.044 123.303  0.00  0.00    +0.000 N 
ATOM     75  O   UNL     1      -8.562  -3.072 124.231  0.00  0.00    +0.000 OA
ATOM     76  H   UNL     1      -6.037  -1.409 123.283  0.00  0.00    +0.000 HD
ATOM     77  H   UNL     1      -6.988  -2.578 122.460  0.00  0.00    +0.000 HD
ENDBRANCH  72  73
BRANCH  72  78
ATOM     78  C   UNL     1      -8.313  -2.089 126.767  0.00  0.00    +0.000 C 
BRANCH  78  79
ATOM     79  C   UNL     1      -7.591  -2.407 128.055  0.00  0.00    +0.000 A 
ATOM     80  C   UNL     1      -8.164  -2.128 129.274  0.00  0.00    +0.000 A 
ATOM     81  C   UNL     1      -7.761  -2.743 130.462  0.00  0.00    +0.000 A 
ATOM     82  C   UNL     1      -6.519  -3.327 130.562  0.00  0.00    +0.000 A 
ATOM     83  C   UNL     1      -5.738  -3.243 129.392  0.00  0.00    +0.000 A 
ATOM     84  I   UNL     1      -3.647  -3.354 129.311  0.00  0.00    +0.000 I 
ATOM     85  C   UNL     1      -6.301  -2.879 128.138  0.00  0.00    +0.000 A 
BRANCH  82  86
ATOM     86  N   UNL     1      -6.260  -3.851 131.843  0.00  0.00    +0.000 NA
ATOM     87  N   UNL     1      -6.488  -3.141 132.828  0.00  0.00    +0.000 NA
ATOM     88  N   UNL     1      -6.690  -2.523 133.765  0.00  0.00    +0.000 NA
ENDBRANCH  82  86
ENDBRANCH  78  79
ENDBRANCH  72  78
ENDBRANCH  70  72
ENDBRANCH  67  68
BRANCH  67  89
ATOM     89  C   UNL     1      -8.944   2.364 123.469  0.00  0.00    +0.000 C 
BRANCH  89  90
ATOM     90  C   UNL     1      -7.580   2.325 122.876  0.00  0.00    +0.000 C 
BRANCH  90  91
ATOM     91  C   UNL     1      -7.318   3.430 121.910  0.00  0.00    +0.000 C 
BRANCH  91  92
ATOM     92  N   UNL     1      -8.620   3.799 121.390  0.00  0.00    +0.000 NA
ATOM     93  H   UNL     1      -9.157   2.960 121.168  0.00  0.00    +0.000 HD
ATOM     94  H   UNL     1      -8.513   4.339 120.540  0.00  0.00    +0.000 HD
ENDBRANCH  91  92
ENDBRANCH  90  91
ENDBRANCH  89  90
ENDBRANCH  67  89
ENDBRANCH  65  67
ENDBRANCH  62  63
ENDBRANCH  60  62
ENDBRANCH  57  58
BRANCH  57  95
ATOM     95  C   UNL     1      -3.216   5.786 130.227  0.00  0.00    +0.000 C 
BRANCH  95  96
ATOM     96  S   UNL     1      -3.545   7.413 131.012  0.00  0.00    +0.000 S 
ATOM     97  H   UNL     1      -2.264   7.711 131.320  0.00  0.00    +0.000 HD
ENDBRANCH  95  96
ENDBRANCH  57  95
ENDBRANCH  55  57
ENDBRANCH   1  53
BRANCH   1  98
ATOM     98  C   UNL     1      -5.379   0.506 129.830  0.00  0.00    +0.000 C 
BRANCH  98  99
ATOM     99  C   UNL     1      -5.715   0.795 128.401  0.00  0.00    +0.000 C 
ATOM    100  N   UNL     1      -4.807   0.335 127.610  0.00  0.00    +0.000 N 
ATOM    101  O   UNL     1      -6.649   1.366 127.873  0.00  0.00    +0.000 OA
ATOM    102  H   UNL     1      -3.961  -0.021 128.056  0.00  0.00    +0.000 HD
ATOM    103  H   UNL     1      -4.770   0.575 126.632  0.00  0.00    +0.000 HD
ENDBRANCH  98  99
ENDBRANCH   1  98
TORSDOF 40
ENDMDL
MODEL 8
REMARK VINA RESULT:      -8.0      3.319     10.573
REMARK  Name = CHEMBL2370343
REMARK  44 active torsions:
REMARK  status: ('A' for Active; 'I' for Inactive)
REMARK    1  A    between atoms: C_1  and  C_2
REMARK    2  A    between atoms: C_2  and  C_3
REMARK    3  A    between atoms: C_3  and  C_4
REMARK    4  A    between atoms: C_3  and  C_5
REMARK    5  A    between atoms: C_5  and  N_6
REMARK    6  A    between atoms: C_5  and  C_35
REMARK    7  A    between atoms: C_7  and  C_9
REMARK    8  A    between atoms: C_9  and  C_10
REMARK    9  A    between atoms: C_9  and  N_19
REMARK   10  A    between atoms: C_10  and  C_11
REMARK   11  A    between atoms: C_14  and  O_15
REMARK   12  A    between atoms: O_15  and  C_16
REMARK   13  A    between atoms: C_20  and  C_22
REMARK   14  A    between atoms: C_22  and  C_23
REMARK   15  A    between atoms: C_23  and  S_24
REMARK   16  A    between atoms: S_24  and  C_25
REMARK   17  A    between atoms: C_25  and  C_26
REMARK   18  A    between atoms: C_26  and  C_27
REMARK   19  A    between atoms: N_37  and  C_38
REMARK   20  A    between atoms: C_38  and  C_39
REMARK   21  A    between atoms: C_38  and  C_83
REMARK   22  A    between atoms: N_41  and  C_42
REMARK   23  A    between atoms: C_42  and  C_43
REMARK   24  A    between atoms: C_42  and  C_47
REMARK   25  A    between atoms: C_43  and  C_44
REMARK   26  A    between atoms: N_49  and  C_50
REMARK   27  A    between atoms: C_50  and  C_51
REMARK   28  A    between atoms: C_50  and  C_53
REMARK   29  A    between atoms: C_51  and  S_52
REMARK   30  A    between atoms: N_55  and  C_56
REMARK   31  A    between atoms: C_56  and  C_57
REMARK   32  A    between atoms: N_59  and  C_60
REMARK   33  A    between atoms: C_60  and  C_61
REMARK   34  A    between atoms: C_60  and  C_65
REMARK   35  A    between atoms: C_61  and  C_62
REMARK   36  A    between atoms: C_62  and  C_63
REMARK   37  A    between atoms: C_63  and  N_64
REMARK   38  A    between atoms: N_67  and  C_68
REMARK   39  A    between atoms: C_68  and  C_69
REMARK   40  A    between atoms: C_68  and  C_80
REMARK   41  A    between atoms: C_69  and  C_70
REMARK   42  A    between atoms: C_73  and  N_74
REMARK   43  A    between atoms: C_83  and  C_84
REMARK   44  A    between atoms: C_83  and  O_85
REMARK                            x       y       z     vdW  Elec       q    Type
REMARK                         _______ _______ _______ _____ _____    ______ ____
ROOT
ATOM      1  C   UNL     1      -6.288   1.202 130.849  0.00  0.00    +0.000 C 
ENDROOT
BRANCH   1   4
ATOM      2  C   UNL     1      -7.141  -0.805 129.683  0.00  0.00    +0.000 C 
ATOM      3  O   UNL     1      -8.068  -0.165 130.202  0.00  0.00    +0.000 OA
ATOM      4  N   UNL     1      -6.075  -0.131 130.080  0.00  0.00    +0.000 N 
ATOM      5  H   UNL     1      -5.237  -0.158 129.506  0.00  0.00    +0.000 HD
BRANCH   2   6
ATOM      6  C   UNL     1      -7.582  -2.125 129.077  0.00  0.00    +0.000 C 
BRANCH   6   9
ATOM      7  C   UNL     1      -6.721  -1.944 126.507  0.00  0.00    +0.000 C 
ATOM      8  O   UNL     1      -6.065  -2.543 125.647  0.00  0.00    +0.000 OA
ATOM      9  N   UNL     1      -6.748  -2.479 127.816  0.00  0.00    +0.000 N 
ATOM     10  H   UNL     1      -6.458  -3.454 127.766  0.00  0.00    +0.000 HD
BRANCH   7  11
ATOM     11  C   UNL     1      -7.482  -0.633 126.112  0.00  0.00    +0.000 C 
BRANCH  11  12
ATOM     12  N   UNL     1      -7.084   0.674 126.533  0.00  0.00    +0.000 N 
ATOM     13  C   UNL     1      -7.995   1.627 126.942  0.00  0.00    +0.000 C 
ATOM     14  O   UNL     1      -9.115   1.321 127.357  0.00  0.00    +0.000 OA
ATOM     15  H   UNL     1      -6.142   0.943 126.290  0.00  0.00    +0.000 HD
BRANCH  13  16
ATOM     16  C   UNL     1      -7.517   3.106 126.882  0.00  0.00    +0.000 C 
BRANCH  16  17
ATOM     17  N   UNL     1      -7.289   3.662 128.231  0.00  0.00    +0.000 N 
ATOM     18  C   UNL     1      -8.066   4.724 128.620  0.00  0.00    +0.000 C 
ATOM     19  O   UNL     1      -8.961   5.138 127.889  0.00  0.00    +0.000 OA
ATOM     20  H   UNL     1      -6.394   3.515 128.679  0.00  0.00    +0.000 HD
BRANCH  18  21
ATOM     21  C   UNL     1      -7.822   5.364 129.952  0.00  0.00    +0.000 C 
BRANCH  21  22
ATOM     22  C   UNL     1      -8.810   4.804 131.044  0.00  0.00    +0.000 C 
ATOM     23  C   UNL     1      -9.300   3.370 130.675  0.00  0.00    +0.000 C 
ATOM     24  C   UNL     1     -10.039   2.643 131.789  0.00  0.00    +0.000 C 
ATOM     25  C   UNL     1      -9.332   2.718 133.133  0.00  0.00    +0.000 C 
ATOM     26  C   UNL     1      -8.753   4.085 133.499  0.00  0.00    +0.000 C 
ATOM     27  C   UNL     1      -7.997   4.725 132.351  0.00  0.00    +0.000 C 
BRANCH  22  28
ATOM     28  S   UNL     1     -10.187   6.128 131.223  0.00  0.00    +0.000 S 
BRANCH  28  29
ATOM     29  C   UNL     1     -11.546   5.592 130.163  0.00  0.00    +0.000 C 
BRANCH  29  30
ATOM     30  C   UNL     1     -12.445   6.691 129.690  0.00  0.00    +0.000 C 
BRANCH  30  31
ATOM     31  C   UNL     1     -11.876   7.365 128.444  0.00  0.00    +0.000 C 
ATOM     32  N   UNL     1     -11.467   8.672 128.490  0.00  0.00    +0.000 N 
ATOM     33  O   UNL     1     -11.766   6.747 127.388  0.00  0.00    +0.000 OA
ATOM     34  H   UNL     1     -11.537   9.301 129.279  0.00  0.00    +0.000 HD
ATOM     35  H   UNL     1     -11.102   9.074 127.637  0.00  0.00    +0.000 HD
ENDBRANCH  30  31
ENDBRANCH  29  30
ENDBRANCH  28  29
ENDBRANCH  22  28
ENDBRANCH  21  22
ENDBRANCH  18  21
ENDBRANCH  16  17
BRANCH  16  36
ATOM     36  C   UNL     1      -6.275   3.201 125.971  0.00  0.00    +0.000 C 
BRANCH  36  37
ATOM     37  C   UNL     1      -6.615   3.519 124.520  0.00  0.00    +0.000 A 
ATOM     38  C   UNL     1      -7.907   3.323 123.987  0.00  0.00    +0.000 A 
ATOM     39  C   UNL     1      -8.135   3.295 122.621  0.00  0.00    +0.000 A 
ATOM     40  C   UNL     1      -7.130   3.699 121.761  0.00  0.00    +0.000 A 
ATOM     41  C   UNL     1      -5.857   3.968 122.273  0.00  0.00    +0.000 A 
ATOM     42  C   UNL     1      -5.592   3.859 123.640  0.00  0.00    +0.000 A 
BRANCH  40  43
ATOM     43  O   UNL     1      -7.513   3.826 120.457  0.00  0.00    +0.000 OA
ATOM     44  C   UNL     1      -8.915   3.868 120.238  0.00  0.00    +0.000 C 
ENDBRANCH  40  43
ENDBRANCH  36  37
ENDBRANCH  16  36
ENDBRANCH  13  16
ENDBRANCH  11  12
BRANCH  11  45
ATOM     45  C   UNL     1      -7.767  -0.577 124.440  0.00  0.00    +0.000 C 
ATOM     46  C   UNL     1      -6.336   0.097 123.713  0.00  0.00    +0.000 C 
BRANCH  45  48
ATOM     47  C   UNL     1     -10.274   0.556 122.551  0.00  0.00    +0.000 C 
ATOM     48  C   UNL     1      -9.521  -0.048 124.037  0.00  0.00    +0.000 C 
ENDBRANCH  45  48
ENDBRANCH  11  45
ENDBRANCH   7  11
ENDBRANCH   6   9
BRANCH   6  49
ATOM     49  C   UNL     1      -7.633  -3.103 130.205  0.00  0.00    +0.000 C 
ATOM     50  C   UNL     1      -6.442  -4.076 130.051  0.00  0.00    +0.000 C 
BRANCH  49  51
ATOM     51  O   UNL     1      -7.500  -2.422 131.453  0.00  0.00    +0.000 OA
ATOM     52  H   UNL     1      -6.556  -2.226 131.599  0.00  0.00    +0.000 HD
ENDBRANCH  49  51
ENDBRANCH   6  49
ENDBRANCH   2   6
ENDBRANCH   1   4
BRANCH   1  53
ATOM     53  C   UNL     1      -5.087   1.975 130.417  0.00  0.00    +0.000 C 
ATOM     54  O   UNL     1      -4.197   1.384 129.802  0.00  0.00    +0.000 OA
ATOM     55  N   UNL     1      -4.997   3.284 130.799  0.00  0.00    +0.000 N 
ATOM     56  H   UNL     1      -5.677   3.721 131.425  0.00  0.00    +0.000 HD
BRANCH  55  57
ATOM     57  C   UNL     1      -3.848   4.077 130.373  0.00  0.00    +0.000 C 
BRANCH  57  58
ATOM     58  C   UNL     1      -3.780   5.378 131.243  0.00  0.00    +0.000 C 
ATOM     59  O   UNL     1      -4.619   5.627 132.110  0.00  0.00    +0.000 OA
ATOM     60  N   UNL     1      -2.725   6.232 131.014  0.00  0.00    +0.000 N 
ATOM     61  H   UNL     1      -1.987   6.006 130.349  0.00  0.00    +0.000 HD
BRANCH  60  62
ATOM     62  C   UNL     1      -2.505   7.467 131.788  0.00  0.00    +0.000 C 
BRANCH  62  63
ATOM     63  C   UNL     1      -1.925   7.057 133.153  0.00  0.00    +0.000 C 
ATOM     64  O   UNL     1      -0.830   6.489 133.195  0.00  0.00    +0.000 OA
ATOM     65  N   UNL     1      -2.638   7.337 134.295  0.00  0.00    +0.000 N 
ATOM     66  H   UNL     1      -3.567   7.755 134.231  0.00  0.00    +0.000 HD
BRANCH  65  67
ATOM     67  C   UNL     1      -2.101   7.230 135.711  0.00  0.00    +0.000 C 
BRANCH  67  68
ATOM     68  C   UNL     1      -2.761   6.033 136.333  0.00  0.00    +0.000 C 
ATOM     69  O   UNL     1      -2.473   5.993 137.527  0.00  0.00    +0.000 OA
ATOM     70  N   UNL     1      -3.328   5.012 135.577  0.00  0.00    +0.000 N 
ATOM     71  H   UNL     1      -2.983   4.954 134.635  0.00  0.00    +0.000 HD
BRANCH  70  72
ATOM     72  C   UNL     1      -4.090   3.772 136.049  0.00  0.00    +0.000 C 
BRANCH  72  73
ATOM     73  C   UNL     1      -3.714   2.431 135.344  0.00  0.00    +0.000 C 
ATOM     74  N   UNL     1      -3.203   2.487 134.081  0.00  0.00    +0.000 N 
ATOM     75  O   UNL     1      -3.829   1.331 135.885  0.00  0.00    +0.000 OA
ATOM     76  H   UNL     1      -3.048   3.318 133.543  0.00  0.00    +0.000 HD
ATOM     77  H   UNL     1      -2.970   1.605 133.638  0.00  0.00    +0.000 HD
ENDBRANCH  72  73
BRANCH  72  78
ATOM     78  C   UNL     1      -5.640   3.938 135.894  0.00  0.00    +0.000 C 
BRANCH  78  79
ATOM     79  C   UNL     1      -6.231   5.101 136.654  0.00  0.00    +0.000 A 
ATOM     80  C   UNL     1      -6.999   6.046 136.013  0.00  0.00    +0.000 A 
ATOM     81  C   UNL     1      -7.888   6.887 136.688  0.00  0.00    +0.000 A 
ATOM     82  C   UNL     1      -7.746   7.120 138.036  0.00  0.00    +0.000 A 
ATOM     83  C   UNL     1      -6.660   6.448 138.634  0.00  0.00    +0.000 A 
ATOM     84  I   UNL     1      -5.690   7.025 140.400  0.00  0.00    +0.000 I 
ATOM     85  C   UNL     1      -5.981   5.386 137.976  0.00  0.00    +0.000 A 
BRANCH  82  86
ATOM     86  N   UNL     1      -8.693   8.031 138.540  0.00  0.00    +0.000 NA
ATOM     87  N   UNL     1      -8.365   9.216 138.665  0.00  0.00    +0.000 NA
ATOM     88  N   UNL     1      -8.106  10.319 138.791  0.00  0.00    +0.000 NA
ENDBRANCH  82  86
ENDBRANCH  78  79
ENDBRANCH  72  78
ENDBRANCH  70  72
ENDBRANCH  67  68
BRANCH  67  89
ATOM     89  C   UNL     1      -2.713   8.297 136.626  0.00  0.00    +0.000 C 
BRANCH  89  90
ATOM     90  C   UNL     1      -4.137   8.487 136.237  0.00  0.00    +0.000 C 
BRANCH  90  91
ATOM     91  C   UNL     1      -4.889   9.390 137.154  0.00  0.00    +0.000 C 
BRANCH  91  92
ATOM     92  N   UNL     1      -3.876  10.064 137.942  0.00  0.00    +0.000 NA
ATOM     93  H   UNL     1      -3.859  11.058 137.712  0.00  0.00    +0.000 HD
ATOM     94  H   UNL     1      -2.963   9.677 137.738  0.00  0.00    +0.000 HD
ENDBRANCH  91  92
ENDBRANCH  90  91
ENDBRANCH  89  90
ENDBRANCH  67  89
ENDBRANCH  65  67
ENDBRANCH  62  63
ENDBRANCH  60  62
ENDBRANCH  57  58
BRANCH  57  95
ATOM     95  C   UNL     1      -3.933   4.455 128.877  0.00  0.00    +0.000 C 
BRANCH  95  96
ATOM     96  S   UNL     1      -2.592   5.377 128.026  0.00  0.00    +0.000 S 
ATOM     97  H   UNL     1      -1.576   4.561 128.383  0.00  0.00    +0.000 HD
ENDBRANCH  95  96
ENDBRANCH  57  95
ENDBRANCH  55  57
ENDBRANCH   1  53
BRANCH   1  98
ATOM     98  C   UNL     1      -6.180   1.227 132.434  0.00  0.00    +0.000 C 
BRANCH  98  99
ATOM     99  C   UNL     1      -5.956   0.075 133.363  0.00  0.00    +0.000 C 
ATOM    100  N   UNL     1      -6.316   0.373 134.565  0.00  0.00    +0.000 N 
ATOM    101  O   UNL     1      -5.511  -1.043 133.197  0.00  0.00    +0.000 OA
ATOM    102  H   UNL     1      -6.560   1.350 134.732  0.00  0.00    +0.000 HD
ATOM    103  H   UNL     1      -6.089  -0.208 135.356  0.00  0.00    +0.000 HD
ENDBRANCH  98  99
ENDBRANCH   1  98
TORSDOF 40
ENDMDL
MODEL 9
REMARK VINA RESULT:      -7.9      3.649     11.877
REMARK  Name = CHEMBL2370343
REMARK  44 active torsions:
REMARK  status: ('A' for Active; 'I' for Inactive)
REMARK    1  A    between atoms: C_1  and  C_2
REMARK    2  A    between atoms: C_2  and  C_3
REMARK    3  A    between atoms: C_3  and  C_4
REMARK    4  A    between atoms: C_3  and  C_5
REMARK    5  A    between atoms: C_5  and  N_6
REMARK    6  A    between atoms: C_5  and  C_35
REMARK    7  A    between atoms: C_7  and  C_9
REMARK    8  A    between atoms: C_9  and  C_10
REMARK    9  A    between atoms: C_9  and  N_19
REMARK   10  A    between atoms: C_10  and  C_11
REMARK   11  A    between atoms: C_14  and  O_15
REMARK   12  A    between atoms: O_15  and  C_16
REMARK   13  A    between atoms: C_20  and  C_22
REMARK   14  A    between atoms: C_22  and  C_23
REMARK   15  A    between atoms: C_23  and  S_24
REMARK   16  A    between atoms: S_24  and  C_25
REMARK   17  A    between atoms: C_25  and  C_26
REMARK   18  A    between atoms: C_26  and  C_27
REMARK   19  A    between atoms: N_37  and  C_38
REMARK   20  A    between atoms: C_38  and  C_39
REMARK   21  A    between atoms: C_38  and  C_83
REMARK   22  A    between atoms: N_41  and  C_42
REMARK   23  A    between atoms: C_42  and  C_43
REMARK   24  A    between atoms: C_42  and  C_47
REMARK   25  A    between atoms: C_43  and  C_44
REMARK   26  A    between atoms: N_49  and  C_50
REMARK   27  A    between atoms: C_50  and  C_51
REMARK   28  A    between atoms: C_50  and  C_53
REMARK   29  A    between atoms: C_51  and  S_52
REMARK   30  A    between atoms: N_55  and  C_56
REMARK   31  A    between atoms: C_56  and  C_57
REMARK   32  A    between atoms: N_59  and  C_60
REMARK   33  A    between atoms: C_60  and  C_61
REMARK   34  A    between atoms: C_60  and  C_65
REMARK   35  A    between atoms: C_61  and  C_62
REMARK   36  A    between atoms: C_62  and  C_63
REMARK   37  A    between atoms: C_63  and  N_64
REMARK   38  A    between atoms: N_67  and  C_68
REMARK   39  A    between atoms: C_68  and  C_69
REMARK   40  A    between atoms: C_68  and  C_80
REMARK   41  A    between atoms: C_69  and  C_70
REMARK   42  A    between atoms: C_73  and  N_74
REMARK   43  A    between atoms: C_83  and  C_84
REMARK   44  A    between atoms: C_83  and  O_85
REMARK                            x       y       z     vdW  Elec       q    Type
REMARK                         _______ _______ _______ _____ _____    ______ ____
ROOT
ATOM      1  C   UNL     1      -8.261   1.590 130.505  0.00  0.00    +0.000 C 
ENDROOT
BRANCH   1   4
ATOM      2  C   UNL     1      -7.743  -0.759 129.933  0.00  0.00    +0.000 C 
ATOM      3  O   UNL     1      -6.853   0.004 129.524  0.00  0.00    +0.000 OA
ATOM      4  N   UNL     1      -8.630   0.083 130.434  0.00  0.00    +0.000 N 
ATOM      5  H   UNL     1      -9.241  -0.237 131.180  0.00  0.00    +0.000 HD
BRANCH   2   6
ATOM      6  C   UNL     1      -7.556  -2.198 129.486  0.00  0.00    +0.000 C 
BRANCH   6   9
ATOM      7  C   UNL     1      -6.578  -1.936 126.966  0.00  0.00    +0.000 C 
ATOM      8  O   UNL     1      -5.655  -2.299 126.228  0.00  0.00    +0.000 OA
ATOM      9  N   UNL     1      -6.525  -2.305 128.330  0.00  0.00    +0.000 N 
ATOM     10  H   UNL     1      -5.870  -3.080 128.424  0.00  0.00    +0.000 HD
BRANCH   7  11
ATOM     11  C   UNL     1      -7.752  -1.091 126.362  0.00  0.00    +0.000 C 
BRANCH  11  12
ATOM     12  N   UNL     1      -7.591   0.229 125.837  0.00  0.00    +0.000 N 
ATOM     13  C   UNL     1      -8.561   1.201 125.975  0.00  0.00    +0.000 C 
ATOM     14  O   UNL     1      -9.411   1.151 126.868  0.00  0.00    +0.000 OA
ATOM     15  H   UNL     1      -6.850   0.342 125.161  0.00  0.00    +0.000 HD
BRANCH  13  16
ATOM     16  C   UNL     1      -8.502   2.381 124.963  0.00  0.00    +0.000 C 
BRANCH  16  17
ATOM     17  N   UNL     1      -7.269   3.179 125.125  0.00  0.00    +0.000 N 
ATOM     18  C   UNL     1      -7.310   4.241 125.992  0.00  0.00    +0.000 C 
ATOM     19  O   UNL     1      -8.319   4.462 126.655  0.00  0.00    +0.000 OA
ATOM     20  H   UNL     1      -6.577   3.170 124.387  0.00  0.00    +0.000 HD
BRANCH  18  21
ATOM     21  C   UNL     1      -6.105   5.119 126.136  0.00  0.00    +0.000 C 
BRANCH  21  22
ATOM     22  C   UNL     1      -4.943   4.374 126.896  0.00  0.00    +0.000 C 
ATOM     23  C   UNL     1      -4.205   3.374 125.953  0.00  0.00    +0.000 C 
ATOM     24  C   UNL     1      -2.909   2.809 126.513  0.00  0.00    +0.000 C 
ATOM     25  C   UNL     1      -1.996   3.867 127.111  0.00  0.00    +0.000 C 
ATOM     26  C   UNL     1      -2.687   4.926 127.971  0.00  0.00    +0.000 C 
ATOM     27  C   UNL     1      -3.948   5.469 127.326  0.00  0.00    +0.000 C 
BRANCH  22  28
ATOM     28  S   UNL     1      -5.757   3.599 128.451  0.00  0.00    +0.000 S 
BRANCH  28  29
ATOM     29  C   UNL     1      -5.991   4.950 129.626  0.00  0.00    +0.000 C 
BRANCH  29  30
ATOM     30  C   UNL     1      -5.259   4.789 130.921  0.00  0.00    +0.000 C 
BRANCH  30  31
ATOM     31  C   UNL     1      -4.874   6.147 131.503  0.00  0.00    +0.000 C 
ATOM     32  N   UNL     1      -4.387   7.135 130.690  0.00  0.00    +0.000 N 
ATOM     33  O   UNL     1      -5.005   6.378 132.703  0.00  0.00    +0.000 OA
ATOM     34  H   UNL     1      -4.196   7.065 129.699  0.00  0.00    +0.000 HD
ATOM     35  H   UNL     1      -4.141   8.015 131.125  0.00  0.00    +0.000 HD
ENDBRANCH  30  31
ENDBRANCH  29  30
ENDBRANCH  28  29
ENDBRANCH  22  28
ENDBRANCH  21  22
ENDBRANCH  18  21
ENDBRANCH  16  17
BRANCH  16  36
ATOM     36  C   UNL     1      -8.682   1.831 123.532  0.00  0.00    +0.000 C 
BRANCH  36  37
ATOM     37  C   UNL     1      -8.093   2.738 122.459  0.00  0.00    +0.000 A 
ATOM     38  C   UNL     1      -8.888   3.339 121.460  0.00  0.00    +0.000 A 
ATOM     39  C   UNL     1      -8.330   3.880 120.313  0.00  0.00    +0.000 A 
ATOM     40  C   UNL     1      -6.960   4.052 120.246  0.00  0.00    +0.000 A 
ATOM     41  C   UNL     1      -6.153   3.527 121.260  0.00  0.00    +0.000 A 
ATOM     42  C   UNL     1      -6.711   2.855 122.350  0.00  0.00    +0.000 A 
BRANCH  40  43
ATOM     43  O   UNL     1      -6.527   4.771 119.169  0.00  0.00    +0.000 OA
ATOM     44  C   UNL     1      -5.384   5.580 119.400  0.00  0.00    +0.000 C 
ENDBRANCH  40  43
ENDBRANCH  36  37
ENDBRANCH  16  36
ENDBRANCH  13  16
ENDBRANCH  11  12
BRANCH  11  45
ATOM     45  C   UNL     1      -8.632  -1.997 125.230  0.00  0.00    +0.000 C 
ATOM     46  C   UNL     1      -9.514  -3.199 126.131  0.00  0.00    +0.000 C 
BRANCH  45  48
ATOM     47  C   UNL     1      -6.477  -1.368 122.761  0.00  0.00    +0.000 C 
ATOM     48  C   UNL     1      -7.643  -2.341 123.673  0.00  0.00    +0.000 C 
ENDBRANCH  45  48
ENDBRANCH  11  45
ENDBRANCH   7  11
ENDBRANCH   6   9
BRANCH   6  49
ATOM     49  C   UNL     1      -7.327  -2.991 130.732  0.00  0.00    +0.000 C 
ATOM     50  C   UNL     1      -6.151  -3.961 130.474  0.00  0.00    +0.000 C 
BRANCH  49  51
ATOM     51  O   UNL     1      -6.968  -2.126 131.809  0.00  0.00    +0.000 OA
ATOM     52  H   UNL     1      -7.254  -2.537 132.645  0.00  0.00    +0.000 HD
ENDBRANCH  49  51
ENDBRANCH   6  49
ENDBRANCH   2   6
ENDBRANCH   1   4
BRANCH   1  53
ATOM     53  C   UNL     1      -8.313   1.828 131.977  0.00  0.00    +0.000 C 
ATOM     54  O   UNL     1      -9.263   1.367 132.614  0.00  0.00    +0.000 OA
ATOM     55  N   UNL     1      -7.347   2.618 132.532  0.00  0.00    +0.000 N 
ATOM     56  H   UNL     1      -6.646   3.106 131.969  0.00  0.00    +0.000 HD
BRANCH  55  57
ATOM     57  C   UNL     1      -7.353   2.852 133.972  0.00  0.00    +0.000 C 
BRANCH  57  58
ATOM     58  C   UNL     1      -7.621   4.373 134.239  0.00  0.00    +0.000 C 
ATOM     59  O   UNL     1      -7.845   5.166 133.322  0.00  0.00    +0.000 OA
ATOM     60  N   UNL     1      -7.614   4.792 135.550  0.00  0.00    +0.000 N 
ATOM     61  H   UNL     1      -7.498   4.136 136.321  0.00  0.00    +0.000 HD
BRANCH  60  62
ATOM     62  C   UNL     1      -7.896   6.181 135.954  0.00  0.00    +0.000 C 
BRANCH  62  63
ATOM     63  C   UNL     1      -6.596   6.763 136.536  0.00  0.00    +0.000 C 
ATOM     64  O   UNL     1      -6.662   7.551 137.485  0.00  0.00    +0.000 OA
ATOM     65  N   UNL     1      -5.391   6.390 135.989  0.00  0.00    +0.000 N 
ATOM     66  H   UNL     1      -5.365   5.783 135.169  0.00  0.00    +0.000 HD
BRANCH  65  67
ATOM     67  C   UNL     1      -4.029   6.669 136.598  0.00  0.00    +0.000 C 
BRANCH  67  68
ATOM     68  C   UNL     1      -3.226   7.384 135.549  0.00  0.00    +0.000 C 
ATOM     69  O   UNL     1      -3.381   8.596 135.683  0.00  0.00    +0.000 OA
ATOM     70  N   UNL     1      -2.675   6.730 134.453  0.00  0.00    +0.000 N 
ATOM     71  H   UNL     1      -3.114   5.854 134.229  0.00  0.00    +0.000 HD
BRANCH  70  72
ATOM     72  C   UNL     1      -1.784   7.292 133.342  0.00  0.00    +0.000 C 
BRANCH  72  73
ATOM     73  C   UNL     1      -1.135   6.238 132.389  0.00  0.00    +0.000 C 
ATOM     74  N   UNL     1      -0.077   6.627 131.623  0.00  0.00    +0.000 N 
ATOM     75  O   UNL     1      -1.516   5.070 132.320  0.00  0.00    +0.000 OA
ATOM     76  H   UNL     1       0.332   7.541 131.600  0.00  0.00    +0.000 HD
ATOM     77  H   UNL     1       0.326   5.930 131.007  0.00  0.00    +0.000 HD
ENDBRANCH  72  73
BRANCH  72  78
ATOM     78  C   UNL     1      -0.610   8.160 133.911  0.00  0.00    +0.000 C 
BRANCH  78  79
ATOM     79  C   UNL     1      -0.733   9.641 133.644  0.00  0.00    +0.000 A 
ATOM     80  C   UNL     1      -1.818  10.149 132.967  0.00  0.00    +0.000 A 
ATOM     81  C   UNL     1      -2.197  11.492 133.039  0.00  0.00    +0.000 A 
ATOM     82  C   UNL     1      -1.295  12.456 133.428  0.00  0.00    +0.000 A 
ATOM     83  C   UNL     1      -0.010  11.963 133.734  0.00  0.00    +0.000 A 
ATOM     84  I   UNL     1       1.766  13.074 133.684  0.00  0.00    +0.000 I 
ATOM     85  C   UNL     1       0.235  10.576 133.932  0.00  0.00    +0.000 A 
BRANCH  82  86
ATOM     86  N   UNL     1      -1.830  13.757 133.393  0.00  0.00    +0.000 NA
ATOM     87  N   UNL     1      -1.873  14.406 134.443  0.00  0.00    +0.000 NA
ATOM     88  N   UNL     1      -1.926  15.043 135.388  0.00  0.00    +0.000 NA
ENDBRANCH  82  86
ENDBRANCH  78  79
ENDBRANCH  72  78
ENDBRANCH  70  72
ENDBRANCH  67  68
BRANCH  67  89
ATOM     89  C   UNL     1      -3.176   5.398 136.675  0.00  0.00    +0.000 C 
BRANCH  89  90
ATOM     90  C   UNL     1      -3.900   4.398 137.506  0.00  0.00    +0.000 C 
BRANCH  90  91
ATOM     91  C   UNL     1      -3.081   3.849 138.625  0.00  0.00    +0.000 C 
BRANCH  91  92
ATOM     92  N   UNL     1      -3.200   4.818 139.696  0.00  0.00    +0.000 NA
ATOM     93  H   UNL     1      -4.101   5.294 139.638  0.00  0.00    +0.000 HD
ATOM     94  H   UNL     1      -2.469   5.514 139.616  0.00  0.00    +0.000 HD
ENDBRANCH  91  92
ENDBRANCH  90  91
ENDBRANCH  89  90
ENDBRANCH  67  89
ENDBRANCH  65  67
ENDBRANCH  62  63
ENDBRANCH  60  62
ENDBRANCH  57  58
BRANCH  57  95
ATOM     95  C   UNL     1      -6.019   2.435 134.629  0.00  0.00    +0.000 C 
BRANCH  95  96
ATOM     96  S   UNL     1      -4.393   2.960 133.955  0.00  0.00    +0.000 S 
ATOM     97  H   UNL     1      -3.811   1.740 133.955  0.00  0.00    +0.000 HD
ENDBRANCH  95  96
ENDBRANCH  57  95
ENDBRANCH  55  57
ENDBRANCH   1  53
BRANCH   1  98
ATOM     98  C   UNL     1      -9.266   2.678 129.928  0.00  0.00    +0.000 C 
BRANCH  98  99
ATOM     99  C   UNL     1      -9.572   4.036 130.478  0.00  0.00    +0.000 C 
ATOM    100  N   UNL     1      -9.248   4.959 129.637  0.00  0.00    +0.000 N 
ATOM    101  O   UNL     1     -10.047   4.411 131.531  0.00  0.00    +0.000 OA
ATOM    102  H   UNL     1      -8.727   4.655 128.815  0.00  0.00    +0.000 HD
ATOM    103  H   UNL     1      -9.223   5.934 129.890  0.00  0.00    +0.000 HD
ENDBRANCH  98  99
ENDBRANCH   1  98
TORSDOF 40
ENDMDL
