MODEL 1
REMARK VINA RESULT:      -8.5      0.000      0.000
REMARK  Name = CHEMBL25310
REMARK  12 active torsions:
REMARK  status: ('A' for Active; 'I' for Inactive)
REMARK    1  A    between atoms: C_1  and  C_2
REMARK    2  A    between atoms: C_2  and  C_4
REMARK    3  A    between atoms: C_4  and  C_5
REMARK    4  A    between atoms: C_5  and  C_6
REMARK    5  A    between atoms: C_6  and  C_7
REMARK    6  A    between atoms: N_9  and  C_10
REMARK    7  A    between atoms: C_12  and  C_13
REMARK    8  A    between atoms: N_25  and  C_26
REMARK    9  A    between atoms: C_26  and  C_27
REMARK   10  A    between atoms: N_29  and  C_30
REMARK   11  A    between atoms: C_30  and  C_31
REMARK   12  A    between atoms: C_31  and  C_32
REMARK                            x       y       z     vdW  Elec       q    Type
REMARK                         _______ _______ _______ _____ _____    ______ ____
ROOT
ATOM      1  C   UNL     1      -7.659   4.229 129.046  0.00  0.00    +0.000 C 
ATOM      2  N   UNL     1      -8.100   3.587 127.805  0.00  0.00    +0.000 NA
ATOM      3  C   UNL     1      -7.201   3.147 126.986  0.00  0.00    +0.000 C 
ATOM      4  C   UNL     1      -5.720   3.209 127.212  0.00  0.00    +0.000 A 
ATOM      5  C   UNL     1      -4.888   3.402 126.092  0.00  0.00    +0.000 A 
ATOM      6  C   UNL     1      -3.499   3.374 126.215  0.00  0.00    +0.000 A 
ATOM      7  C   UNL     1      -2.923   3.232 127.468  0.00  0.00    +0.000 A 
ATOM      8  C   UNL     1      -3.736   3.114 128.592  0.00  0.00    +0.000 A 
ATOM      9  C   UNL     1      -5.134   3.000 128.474  0.00  0.00    +0.000 A 
ATOM     10  N   UNL     1      -5.875   2.543 129.607  0.00  0.00    +0.000 N 
ATOM     11  C   UNL     1      -7.086   3.126 129.987  0.00  0.00    +0.000 C 
ATOM     12  O   UNL     1      -7.654   2.811 131.041  0.00  0.00    +0.000 OA
ENDROOT
BRANCH   3  13
ATOM     13  C   UNL     1      -7.678   2.505 125.720  0.00  0.00    +0.000 A 
ATOM     14  C   UNL     1      -7.551   1.126 125.521  0.00  0.00    +0.000 A 
ATOM     15  C   UNL     1      -7.928   0.565 124.295  0.00  0.00    +0.000 A 
ATOM     16  C   UNL     1      -8.512   1.364 123.310  0.00  0.00    +0.000 A 
ATOM     17  C   UNL     1      -8.730   2.720 123.550  0.00  0.00    +0.000 A 
ATOM     18  C   UNL     1      -8.269   3.302 124.732  0.00  0.00    +0.000 A 
ENDBRANCH   3  13
BRANCH   1  21
ATOM     19  C   UNL     1      -8.703   6.073 130.296  0.00  0.00    +0.000 C 
ATOM     20  O   UNL     1      -7.631   6.667 130.387  0.00  0.00    +0.000 OA
ATOM     21  N   UNL     1      -8.814   4.858 129.668  0.00  0.00    +0.000 N 
ATOM     22  H   UNL     1      -9.688   4.352 129.622  0.00  0.00    +0.000 HD
BRANCH  19  23
ATOM     23  C   UNL     1      -9.992   6.624 130.904  0.00  0.00    +0.000 C 
BRANCH  23  24
ATOM     24  C   UNL     1     -11.009   6.921 129.796  0.00  0.00    +0.000 C 
BRANCH  24  25
ATOM     25  C   UNL     1     -10.500   7.866 128.708  0.00  0.00    +0.000 C 
BRANCH  25  27
ATOM     26  C   UNL     1     -11.654   7.552 126.416  0.00  0.00    +0.000 C 
ATOM     27  C   UNL     1     -10.525   7.188 127.342  0.00  0.00    +0.000 C 
ATOM     28  O   UNL     1      -9.670   6.376 126.987  0.00  0.00    +0.000 OA
ENDBRANCH  25  27
ENDBRANCH  24  25
ENDBRANCH  23  24
ENDBRANCH  19  23
ENDBRANCH   1  21
BRANCH  10  29
ATOM     29  C   UNL     1      -5.351   1.424 130.434  0.00  0.00    +0.000 C 
BRANCH  29  30
ATOM     30  C   UNL     1      -5.380  -0.006 129.851  0.00  0.00    +0.000 C 
ATOM     31  O   UNL     1      -4.608  -0.903 130.214  0.00  0.00    +0.000 OA
ATOM     32  N   UNL     1      -6.308  -0.279 128.867  0.00  0.00    +0.000 N 
ATOM     33  H   UNL     1      -6.594   0.455 128.229  0.00  0.00    +0.000 HD
BRANCH  32  34
ATOM     34  C   UNL     1      -6.432  -1.672 128.480  0.00  0.00    +0.000 C 
BRANCH  34  35
ATOM     35  C   UNL     1      -5.986  -1.991 127.062  0.00  0.00    +0.000 C 
BRANCH  35  36
ATOM     36  C   UNL     1      -7.119  -2.494 126.195  0.00  0.00    +0.000 A 
ATOM     37  C   UNL     1      -6.835  -2.958 124.905  0.00  0.00    +0.000 A 
ATOM     38  C   UNL     1      -7.873  -3.260 124.022  0.00  0.00    +0.000 A 
ATOM     39  C   UNL     1      -9.197  -3.224 124.456  0.00  0.00    +0.000 A 
ATOM     40  C   UNL     1      -9.482  -2.910 125.778  0.00  0.00    +0.000 A 
ATOM     41  C   UNL     1      -8.455  -2.511 126.631  0.00  0.00    +0.000 A 
ENDBRANCH  35  36
ENDBRANCH  34  35
ENDBRANCH  32  34
ENDBRANCH  29  30
ENDBRANCH  10  29
TORSDOF 11
ENDMDL
MODEL 2
REMARK VINA RESULT:      -8.3      2.975      5.104
REMARK  Name = CHEMBL25310
REMARK  12 active torsions:
REMARK  status: ('A' for Active; 'I' for Inactive)
REMARK    1  A    between atoms: C_1  and  C_2
REMARK    2  A    between atoms: C_2  and  C_4
REMARK    3  A    between atoms: C_4  and  C_5
REMARK    4  A    between atoms: C_5  and  C_6
REMARK    5  A    between atoms: C_6  and  C_7
REMARK    6  A    between atoms: N_9  and  C_10
REMARK    7  A    between atoms: C_12  and  C_13
REMARK    8  A    between atoms: N_25  and  C_26
REMARK    9  A    between atoms: C_26  and  C_27
REMARK   10  A    between atoms: N_29  and  C_30
REMARK   11  A    between atoms: C_30  and  C_31
REMARK   12  A    between atoms: C_31  and  C_32
REMARK                            x       y       z     vdW  Elec       q    Type
REMARK                         _______ _______ _______ _____ _____    ______ ____
ROOT
ATOM      1  C   UNL     1      -9.569   5.814 131.388  0.00  0.00    +0.000 C 
ATOM      2  N   UNL     1      -8.308   6.093 130.698  0.00  0.00    +0.000 NA
ATOM      3  C   UNL     1      -7.200   5.909 131.340  0.00  0.00    +0.000 C 
ATOM      4  C   UNL     1      -7.089   5.396 132.744  0.00  0.00    +0.000 A 
ATOM      5  C   UNL     1      -6.045   5.894 133.549  0.00  0.00    +0.000 A 
ATOM      6  C   UNL     1      -5.825   5.392 134.832  0.00  0.00    +0.000 A 
ATOM      7  C   UNL     1      -6.689   4.444 135.356  0.00  0.00    +0.000 A 
ATOM      8  C   UNL     1      -7.768   3.998 134.597  0.00  0.00    +0.000 A 
ATOM      9  C   UNL     1      -7.927   4.387 133.253  0.00  0.00    +0.000 A 
ATOM     10  N   UNL     1      -8.833   3.645 132.435  0.00  0.00    +0.000 N 
ATOM     11  C   UNL     1      -9.708   4.269 131.542  0.00  0.00    +0.000 C 
ATOM     12  O   UNL     1     -10.577   3.630 130.934  0.00  0.00    +0.000 OA
ENDROOT
BRANCH   3  13
ATOM     13  C   UNL     1      -5.925   6.212 130.615  0.00  0.00    +0.000 A 
ATOM     14  C   UNL     1      -5.223   5.206 129.943  0.00  0.00    +0.000 A 
ATOM     15  C   UNL     1      -3.992   5.500 129.345  0.00  0.00    +0.000 A 
ATOM     16  C   UNL     1      -3.511   6.812 129.342  0.00  0.00    +0.000 A 
ATOM     17  C   UNL     1      -4.262   7.831 129.925  0.00  0.00    +0.000 A 
ATOM     18  C   UNL     1      -5.443   7.527 130.605  0.00  0.00    +0.000 A 
ENDBRANCH   3  13
BRANCH   1  21
ATOM     19  C   UNL     1     -11.857   6.683 131.137  0.00  0.00    +0.000 C 
ATOM     20  O   UNL     1     -12.075   6.558 132.341  0.00  0.00    +0.000 OA
ATOM     21  N   UNL     1     -10.658   6.329 130.573  0.00  0.00    +0.000 N 
ATOM     22  H   UNL     1     -10.488   6.399 129.578  0.00  0.00    +0.000 HD
BRANCH  19  23
ATOM     23  C   UNL     1     -12.914   7.213 130.170  0.00  0.00    +0.000 C 
BRANCH  23  24
ATOM     24  C   UNL     1     -12.548   8.632 129.718  0.00  0.00    +0.000 C 
BRANCH  24  25
ATOM     25  C   UNL     1     -12.401   8.794 128.205  0.00  0.00    +0.000 C 
BRANCH  25  27
ATOM     26  C   UNL     1     -10.973   7.641 126.385  0.00  0.00    +0.000 C 
ATOM     27  C   UNL     1     -11.036   8.304 127.734  0.00  0.00    +0.000 C 
ATOM     28  O   UNL     1     -10.013   8.435 128.408  0.00  0.00    +0.000 OA
ENDBRANCH  25  27
ENDBRANCH  24  25
ENDBRANCH  23  24
ENDBRANCH  19  23
ENDBRANCH   1  21
BRANCH  10  29
ATOM     29  C   UNL     1      -8.879   2.163 132.534  0.00  0.00    +0.000 C 
BRANCH  29  30
ATOM     30  C   UNL     1      -7.959   1.330 131.612  0.00  0.00    +0.000 C 
ATOM     31  O   UNL     1      -7.075   1.830 130.905  0.00  0.00    +0.000 OA
ATOM     32  N   UNL     1      -8.155  -0.036 131.575  0.00  0.00    +0.000 N 
ATOM     33  H   UNL     1      -9.084  -0.414 131.717  0.00  0.00    +0.000 HD
BRANCH  32  34
ATOM     34  C   UNL     1      -7.157  -0.800 130.850  0.00  0.00    +0.000 C 
BRANCH  34  35
ATOM     35  C   UNL     1      -7.524  -2.251 130.582  0.00  0.00    +0.000 C 
BRANCH  35  36
ATOM     36  C   UNL     1      -7.913  -2.496 129.140  0.00  0.00    +0.000 A 
ATOM     37  C   UNL     1      -7.571  -1.544 128.173  0.00  0.00    +0.000 A 
ATOM     38  C   UNL     1      -8.066  -1.653 126.872  0.00  0.00    +0.000 A 
ATOM     39  C   UNL     1      -8.801  -2.775 126.493  0.00  0.00    +0.000 A 
ATOM     40  C   UNL     1      -9.020  -3.798 127.406  0.00  0.00    +0.000 A 
ATOM     41  C   UNL     1      -8.612  -3.643 128.729  0.00  0.00    +0.000 A 
ENDBRANCH  35  36
ENDBRANCH  34  35
ENDBRANCH  32  34
ENDBRANCH  29  30
ENDBRANCH  10  29
TORSDOF 11
ENDMDL
MODEL 3
REMARK VINA RESULT:      -8.2      3.429      5.796
REMARK  Name = CHEMBL25310
REMARK  12 active torsions:
REMARK  status: ('A' for Active; 'I' for Inactive)
REMARK    1  A    between atoms: C_1  and  C_2
REMARK    2  A    between atoms: C_2  and  C_4
REMARK    3  A    between atoms: C_4  and  C_5
REMARK    4  A    between atoms: C_5  and  C_6
REMARK    5  A    between atoms: C_6  and  C_7
REMARK    6  A    between atoms: N_9  and  C_10
REMARK    7  A    between atoms: C_12  and  C_13
REMARK    8  A    between atoms: N_25  and  C_26
REMARK    9  A    between atoms: C_26  and  C_27
REMARK   10  A    between atoms: N_29  and  C_30
REMARK   11  A    between atoms: C_30  and  C_31
REMARK   12  A    between atoms: C_31  and  C_32
REMARK                            x       y       z     vdW  Elec       q    Type
REMARK                         _______ _______ _______ _____ _____    ______ ____
ROOT
ATOM      1  C   UNL     1      -9.424   5.630 131.321  0.00  0.00    +0.000 C 
ATOM      2  N   UNL     1      -8.167   6.012 130.672  0.00  0.00    +0.000 NA
ATOM      3  C   UNL     1      -7.065   5.882 131.337  0.00  0.00    +0.000 C 
ATOM      4  C   UNL     1      -6.954   5.335 132.728  0.00  0.00    +0.000 A 
ATOM      5  C   UNL     1      -5.966   5.876 133.573  0.00  0.00    +0.000 A 
ATOM      6  C   UNL     1      -5.743   5.351 134.847  0.00  0.00    +0.000 A 
ATOM      7  C   UNL     1      -6.555   4.332 135.321  0.00  0.00    +0.000 A 
ATOM      8  C   UNL     1      -7.582   3.839 134.521  0.00  0.00    +0.000 A 
ATOM      9  C   UNL     1      -7.735   4.258 133.186  0.00  0.00    +0.000 A 
ATOM     10  N   UNL     1      -8.570   3.483 132.323  0.00  0.00    +0.000 N 
ATOM     11  C   UNL     1      -9.462   4.075 131.426  0.00  0.00    +0.000 C 
ATOM     12  O   UNL     1     -10.272   3.398 130.778  0.00  0.00    +0.000 OA
ENDROOT
BRANCH   3  13
ATOM     13  C   UNL     1      -5.796   6.291 130.654  0.00  0.00    +0.000 A 
ATOM     14  C   UNL     1      -4.949   5.336 130.080  0.00  0.00    +0.000 A 
ATOM     15  C   UNL     1      -3.730   5.739 129.523  0.00  0.00    +0.000 A 
ATOM     16  C   UNL     1      -3.403   7.095 129.459  0.00  0.00    +0.000 A 
ATOM     17  C   UNL     1      -4.295   8.051 129.941  0.00  0.00    +0.000 A 
ATOM     18  C   UNL     1      -5.468   7.650 130.583  0.00  0.00    +0.000 A 
ENDBRANCH   3  13
BRANCH   1  21
ATOM     19  C   UNL     1     -11.704   6.513 131.055  0.00  0.00    +0.000 C 
ATOM     20  O   UNL     1     -11.895   6.486 132.270  0.00  0.00    +0.000 OA
ATOM     21  N   UNL     1     -10.525   6.096 130.493  0.00  0.00    +0.000 N 
ATOM     22  H   UNL     1     -10.378   6.085 129.492  0.00  0.00    +0.000 HD
BRANCH  19  23
ATOM     23  C   UNL     1     -12.777   6.982 130.073  0.00  0.00    +0.000 C 
BRANCH  23  24
ATOM     24  C   UNL     1     -12.607   8.478 129.786  0.00  0.00    +0.000 C 
BRANCH  24  25
ATOM     25  C   UNL     1     -12.381   8.816 128.313  0.00  0.00    +0.000 C 
BRANCH  25  27
ATOM     26  C   UNL     1     -10.981   7.626 126.493  0.00  0.00    +0.000 C 
ATOM     27  C   UNL     1     -11.026   8.302 127.837  0.00  0.00    +0.000 C 
ATOM     28  O   UNL     1      -9.997   8.424 128.503  0.00  0.00    +0.000 OA
ENDBRANCH  25  27
ENDBRANCH  24  25
ENDBRANCH  23  24
ENDBRANCH  19  23
ENDBRANCH   1  21
BRANCH  10  29
ATOM     29  C   UNL     1      -8.519   1.999 132.378  0.00  0.00    +0.000 C 
BRANCH  29  30
ATOM     30  C   UNL     1      -7.435   1.263 131.558  0.00  0.00    +0.000 C 
ATOM     31  O   UNL     1      -7.045   0.119 131.821  0.00  0.00    +0.000 OA
ATOM     32  N   UNL     1      -6.872   1.934 130.491  0.00  0.00    +0.000 N 
ATOM     33  H   UNL     1      -6.781   2.943 130.524  0.00  0.00    +0.000 HD
BRANCH  32  34
ATOM     34  C   UNL     1      -6.001   1.149 129.636  0.00  0.00    +0.000 C 
BRANCH  34  35
ATOM     35  C   UNL     1      -4.581   1.675 129.503  0.00  0.00    +0.000 C 
BRANCH  35  36
ATOM     36  C   UNL     1      -4.343   2.379 128.185  0.00  0.00    +0.000 A 
ATOM     37  C   UNL     1      -3.032   2.693 127.809  0.00  0.00    +0.000 A 
ATOM     38  C   UNL     1      -2.793   3.495 126.692  0.00  0.00    +0.000 A 
ATOM     39  C   UNL     1      -3.849   3.885 125.870  0.00  0.00    +0.000 A 
ATOM     40  C   UNL     1      -5.139   3.454 126.150  0.00  0.00    +0.000 A 
ATOM     41  C   UNL     1      -5.389   2.738 127.320  0.00  0.00    +0.000 A 
ENDBRANCH  35  36
ENDBRANCH  34  35
ENDBRANCH  32  34
ENDBRANCH  29  30
ENDBRANCH  10  29
TORSDOF 11
ENDMDL
MODEL 4
REMARK VINA RESULT:      -8.1      3.905      7.823
REMARK  Name = CHEMBL25310
REMARK  12 active torsions:
REMARK  status: ('A' for Active; 'I' for Inactive)
REMARK    1  A    between atoms: C_1  and  C_2
REMARK    2  A    between atoms: C_2  and  C_4
REMARK    3  A    between atoms: C_4  and  C_5
REMARK    4  A    between atoms: C_5  and  C_6
REMARK    5  A    between atoms: C_6  and  C_7
REMARK    6  A    between atoms: N_9  and  C_10
REMARK    7  A    between atoms: C_12  and  C_13
REMARK    8  A    between atoms: N_25  and  C_26
REMARK    9  A    between atoms: C_26  and  C_27
REMARK   10  A    between atoms: N_29  and  C_30
REMARK   11  A    between atoms: C_30  and  C_31
REMARK   12  A    between atoms: C_31  and  C_32
REMARK                            x       y       z     vdW  Elec       q    Type
REMARK                         _______ _______ _______ _____ _____    ______ ____
ROOT
ATOM      1  C   UNL     1      -5.867   4.242 127.387  0.00  0.00    +0.000 C 
ATOM      2  N   UNL     1      -4.824   4.172 128.413  0.00  0.00    +0.000 NA
ATOM      3  C   UNL     1      -5.095   4.613 129.599  0.00  0.00    +0.000 C 
ATOM      4  C   UNL     1      -6.417   5.171 130.032  0.00  0.00    +0.000 A 
ATOM      5  C   UNL     1      -6.416   6.215 130.978  0.00  0.00    +0.000 A 
ATOM      6  C   UNL     1      -7.609   6.717 131.497  0.00  0.00    +0.000 A 
ATOM      7  C   UNL     1      -8.820   6.237 131.022  0.00  0.00    +0.000 A 
ATOM      8  C   UNL     1      -8.834   5.257 130.034  0.00  0.00    +0.000 A 
ATOM      9  C   UNL     1      -7.646   4.641 129.598  0.00  0.00    +0.000 A 
ATOM     10  N   UNL     1      -7.746   3.426 128.852  0.00  0.00    +0.000 N 
ATOM     11  C   UNL     1      -6.955   3.179 127.727  0.00  0.00    +0.000 C 
ATOM     12  O   UNL     1      -7.139   2.184 127.013  0.00  0.00    +0.000 OA
ENDROOT
BRANCH   3  13
ATOM     13  C   UNL     1      -4.008   4.541 130.626  0.00  0.00    +0.000 A 
ATOM     14  C   UNL     1      -3.037   5.545 130.716  0.00  0.00    +0.000 A 
ATOM     15  C   UNL     1      -1.985   5.410 131.629  0.00  0.00    +0.000 A 
ATOM     16  C   UNL     1      -1.953   4.324 132.506  0.00  0.00    +0.000 A 
ATOM     17  C   UNL     1      -2.977   3.378 132.482  0.00  0.00    +0.000 A 
ATOM     18  C   UNL     1      -3.977   3.456 131.511  0.00  0.00    +0.000 A 
ENDBRANCH   3  13
BRANCH   1  21
ATOM     19  C   UNL     1      -5.523   4.704 124.995  0.00  0.00    +0.000 C 
ATOM     20  O   UNL     1      -6.294   5.661 125.032  0.00  0.00    +0.000 OA
ATOM     21  N   UNL     1      -5.262   3.934 126.100  0.00  0.00    +0.000 N 
ATOM     22  H   UNL     1      -4.655   3.126 126.064  0.00  0.00    +0.000 HD
BRANCH  19  23
ATOM     23  C   UNL     1      -4.820   4.275 123.708  0.00  0.00    +0.000 C 
BRANCH  23  24
ATOM     24  C   UNL     1      -5.846   4.100 122.583  0.00  0.00    +0.000 C 
BRANCH  24  25
ATOM     25  C   UNL     1      -5.236   3.796 121.214  0.00  0.00    +0.000 C 
BRANCH  25  27
ATOM     26  C   UNL     1      -6.480   4.819 119.192  0.00  0.00    +0.000 C 
ATOM     27  C   UNL     1      -5.430   4.969 120.259  0.00  0.00    +0.000 C 
ATOM     28  O   UNL     1      -4.770   6.006 120.336  0.00  0.00    +0.000 OA
ENDBRANCH  25  27
ENDBRANCH  24  25
ENDBRANCH  23  24
ENDBRANCH  19  23
ENDBRANCH   1  21
BRANCH  10  29
ATOM     29  C   UNL     1      -8.729   2.386 129.255  0.00  0.00    +0.000 C 
BRANCH  29  30
ATOM     30  C   UNL     1      -8.713   1.877 130.714  0.00  0.00    +0.000 C 
ATOM     31  O   UNL     1      -9.738   1.719 131.389  0.00  0.00    +0.000 OA
ATOM     32  N   UNL     1      -7.486   1.603 131.285  0.00  0.00    +0.000 N 
ATOM     33  H   UNL     1      -6.671   2.134 131.002  0.00  0.00    +0.000 HD
BRANCH  32  34
ATOM     34  C   UNL     1      -7.521   0.952 132.582  0.00  0.00    +0.000 C 
BRANCH  34  35
ATOM     35  C   UNL     1      -6.602   1.555 133.632  0.00  0.00    +0.000 C 
BRANCH  35  36
ATOM     36  C   UNL     1      -7.006   2.961 134.020  0.00  0.00    +0.000 A 
ATOM     37  C   UNL     1      -6.018   3.864 134.428  0.00  0.00    +0.000 A 
ATOM     38  C   UNL     1      -6.374   5.105 134.958  0.00  0.00    +0.000 A 
ATOM     39  C   UNL     1      -7.709   5.506 134.969  0.00  0.00    +0.000 A 
ATOM     40  C   UNL     1      -8.684   4.678 134.428  0.00  0.00    +0.000 A 
ATOM     41  C   UNL     1      -8.340   3.400 133.992  0.00  0.00    +0.000 A 
ENDBRANCH  35  36
ENDBRANCH  34  35
ENDBRANCH  32  34
ENDBRANCH  29  30
ENDBRANCH  10  29
TORSDOF 11
ENDMDL
MODEL 5
REMARK VINA RESULT:      -7.9      3.060      7.095
REMARK  Name = CHEMBL25310
REMARK  12 active torsions:
REMARK  status: ('A' for Active; 'I' for Inactive)
REMARK    1  A    between atoms: C_1  and  C_2
REMARK    2  A    between atoms: C_2  and  C_4
REMARK    3  A    between atoms: C_4  and  C_5
REMARK    4  A    between atoms: C_5  and  C_6
REMARK    5  A    between atoms: C_6  and  C_7
REMARK    6  A    between atoms: N_9  and  C_10
REMARK    7  A    between atoms: C_12  and  C_13
REMARK    8  A    between atoms: N_25  and  C_26
REMARK    9  A    between atoms: C_26  and  C_27
REMARK   10  A    between atoms: N_29  and  C_30
REMARK   11  A    between atoms: C_30  and  C_31
REMARK   12  A    between atoms: C_31  and  C_32
REMARK                            x       y       z     vdW  Elec       q    Type
REMARK                         _______ _______ _______ _____ _____    ______ ____
ROOT
ATOM      1  C   UNL     1      -8.782   4.187 130.383  0.00  0.00    +0.000 C 
ATOM      2  N   UNL     1      -7.584   4.267 131.222  0.00  0.00    +0.000 NA
ATOM      3  C   UNL     1      -6.747   3.281 131.198  0.00  0.00    +0.000 C 
ATOM      4  C   UNL     1      -6.881   2.054 130.349  0.00  0.00    +0.000 A 
ATOM      5  C   UNL     1      -6.416   0.832 130.874  0.00  0.00    +0.000 A 
ATOM      6  C   UNL     1      -6.422  -0.331 130.104  0.00  0.00    +0.000 A 
ATOM      7  C   UNL     1      -6.964  -0.306 128.828  0.00  0.00    +0.000 A 
ATOM      8  C   UNL     1      -7.493   0.879 128.325  0.00  0.00    +0.000 A 
ATOM      9  C   UNL     1      -7.371   2.091 129.031  0.00  0.00    +0.000 A 
ATOM     10  N   UNL     1      -7.617   3.312 128.329  0.00  0.00    +0.000 N 
ATOM     11  C   UNL     1      -8.346   4.360 128.897  0.00  0.00    +0.000 C 
ATOM     12  O   UNL     1      -8.664   5.358 128.237  0.00  0.00    +0.000 OA
ENDROOT
BRANCH   3  13
ATOM     13  C   UNL     1      -5.536   3.384 132.074  0.00  0.00    +0.000 A 
ATOM     14  C   UNL     1      -4.249   3.279 131.536  0.00  0.00    +0.000 A 
ATOM     15  C   UNL     1      -3.139   3.294 132.389  0.00  0.00    +0.000 A 
ATOM     16  C   UNL     1      -3.311   3.503 133.759  0.00  0.00    +0.000 A 
ATOM     17  C   UNL     1      -4.588   3.709 134.278  0.00  0.00    +0.000 A 
ATOM     18  C   UNL     1      -5.705   3.600 133.448  0.00  0.00    +0.000 A 
ENDBRANCH   3  13
BRANCH   1  21
ATOM     19  C   UNL     1     -11.034   5.154 130.593  0.00  0.00    +0.000 C 
ATOM     20  O   UNL     1     -11.549   4.157 130.089  0.00  0.00    +0.000 OA
ATOM     21  N   UNL     1      -9.678   5.268 130.764  0.00  0.00    +0.000 N 
ATOM     22  H   UNL     1      -9.250   6.100 131.146  0.00  0.00    +0.000 HD
BRANCH  19  23
ATOM     23  C   UNL     1     -11.861   6.359 131.038  0.00  0.00    +0.000 C 
BRANCH  23  24
ATOM     24  C   UNL     1     -12.660   6.914 129.853  0.00  0.00    +0.000 C 
BRANCH  24  25
ATOM     25  C   UNL     1     -11.854   7.808 128.911  0.00  0.00    +0.000 C 
BRANCH  25  27
ATOM     26  C   UNL     1     -10.897   7.795 126.510  0.00  0.00    +0.000 C 
ATOM     27  C   UNL     1     -11.946   7.309 127.473  0.00  0.00    +0.000 C 
ATOM     28  O   UNL     1     -12.828   6.541 127.091  0.00  0.00    +0.000 OA
ENDBRANCH  25  27
ENDBRANCH  24  25
ENDBRANCH  23  24
ENDBRANCH  19  23
ENDBRANCH   1  21
BRANCH  10  29
ATOM     29  C   UNL     1      -7.108   3.487 126.943  0.00  0.00    +0.000 C 
BRANCH  29  30
ATOM     30  C   UNL     1      -5.940   4.470 126.701  0.00  0.00    +0.000 C 
ATOM     31  O   UNL     1      -5.937   5.307 125.791  0.00  0.00    +0.000 OA
ATOM     32  N   UNL     1      -4.848   4.387 127.541  0.00  0.00    +0.000 N 
ATOM     33  H   UNL     1      -4.587   3.493 127.938  0.00  0.00    +0.000 HD
BRANCH  32  34
ATOM     34  C   UNL     1      -3.861   5.443 127.403  0.00  0.00    +0.000 C 
BRANCH  34  35
ATOM     35  C   UNL     1      -2.708   5.382 128.393  0.00  0.00    +0.000 C 
BRANCH  35  36
ATOM     36  C   UNL     1      -3.019   6.093 129.692  0.00  0.00    +0.000 A 
ATOM     37  C   UNL     1      -1.972   6.388 130.573  0.00  0.00    +0.000 A 
ATOM     38  C   UNL     1      -2.245   6.880 131.850  0.00  0.00    +0.000 A 
ATOM     39  C   UNL     1      -3.552   7.201 132.214  0.00  0.00    +0.000 A 
ATOM     40  C   UNL     1      -4.581   7.053 131.294  0.00  0.00    +0.000 A 
ATOM     41  C   UNL     1      -4.323   6.467 130.056  0.00  0.00    +0.000 A 
ENDBRANCH  35  36
ENDBRANCH  34  35
ENDBRANCH  32  34
ENDBRANCH  29  30
ENDBRANCH  10  29
TORSDOF 11
ENDMDL
MODEL 6
REMARK VINA RESULT:      -7.8      3.682      6.829
REMARK  Name = CHEMBL25310
REMARK  12 active torsions:
REMARK  status: ('A' for Active; 'I' for Inactive)
REMARK    1  A    between atoms: C_1  and  C_2
REMARK    2  A    between atoms: C_2  and  C_4
REMARK    3  A    between atoms: C_4  and  C_5
REMARK    4  A    between atoms: C_5  and  C_6
REMARK    5  A    between atoms: C_6  and  C_7
REMARK    6  A    between atoms: N_9  and  C_10
REMARK    7  A    between atoms: C_12  and  C_13
REMARK    8  A    between atoms: N_25  and  C_26
REMARK    9  A    between atoms: C_26  and  C_27
REMARK   10  A    between atoms: N_29  and  C_30
REMARK   11  A    between atoms: C_30  and  C_31
REMARK   12  A    between atoms: C_31  and  C_32
REMARK                            x       y       z     vdW  Elec       q    Type
REMARK                         _______ _______ _______ _____ _____    ______ ____
ROOT
ATOM      1  C   UNL     1      -6.826   3.333 129.670  0.00  0.00    +0.000 C 
ATOM      2  N   UNL     1      -6.099   4.405 130.355  0.00  0.00    +0.000 NA
ATOM      3  C   UNL     1      -5.007   4.848 129.821  0.00  0.00    +0.000 C 
ATOM      4  C   UNL     1      -4.425   4.374 128.524  0.00  0.00    +0.000 A 
ATOM      5  C   UNL     1      -3.022   4.340 128.402  0.00  0.00    +0.000 A 
ATOM      6  C   UNL     1      -2.413   4.001 127.194  0.00  0.00    +0.000 A 
ATOM      7  C   UNL     1      -3.194   3.618 126.114  0.00  0.00    +0.000 A 
ATOM      8  C   UNL     1      -4.579   3.579 126.245  0.00  0.00    +0.000 A 
ATOM      9  C   UNL     1      -5.218   4.048 127.408  0.00  0.00    +0.000 A 
ATOM     10  N   UNL     1      -6.623   4.302 127.355  0.00  0.00    +0.000 N 
ATOM     11  C   UNL     1      -7.484   3.932 128.391  0.00  0.00    +0.000 C 
ATOM     12  O   UNL     1      -8.713   4.039 128.280  0.00  0.00    +0.000 OA
ENDROOT
BRANCH   3  13
ATOM     13  C   UNL     1      -4.278   5.936 130.547  0.00  0.00    +0.000 A 
ATOM     14  C   UNL     1      -3.601   5.673 131.743  0.00  0.00    +0.000 A 
ATOM     15  C   UNL     1      -2.999   6.725 132.444  0.00  0.00    +0.000 A 
ATOM     16  C   UNL     1      -2.997   8.014 131.906  0.00  0.00    +0.000 A 
ATOM     17  C   UNL     1      -3.585   8.252 130.665  0.00  0.00    +0.000 A 
ATOM     18  C   UNL     1      -4.269   7.228 130.008  0.00  0.00    +0.000 A 
ENDBRANCH   3  13
BRANCH   1  21
ATOM     19  C   UNL     1      -7.559   1.916 131.543  0.00  0.00    +0.000 C 
ATOM     20  O   UNL     1      -6.428   1.455 131.685  0.00  0.00    +0.000 OA
ATOM     21  N   UNL     1      -7.856   2.835 130.568  0.00  0.00    +0.000 N 
ATOM     22  H   UNL     1      -8.792   3.190 130.429  0.00  0.00    +0.000 HD
BRANCH  19  23
ATOM     23  C   UNL     1      -8.731   1.480 132.421  0.00  0.00    +0.000 C 
BRANCH  23  24
ATOM     24  C   UNL     1      -9.652   2.674 132.698  0.00  0.00    +0.000 C 
BRANCH  24  25
ATOM     25  C   UNL     1      -9.169   3.600 133.813  0.00  0.00    +0.000 C 
BRANCH  25  27
ATOM     26  C   UNL     1      -9.831   5.807 132.640  0.00  0.00    +0.000 C 
ATOM     27  C   UNL     1      -8.752   4.956 133.254  0.00  0.00    +0.000 C 
ATOM     28  O   UNL     1      -7.590   5.362 133.290  0.00  0.00    +0.000 OA
ENDBRANCH  25  27
ENDBRANCH  24  25
ENDBRANCH  23  24
ENDBRANCH  19  23
ENDBRANCH   1  21
BRANCH  10  29
ATOM     29  C   UNL     1      -7.213   4.962 126.160  0.00  0.00    +0.000 C 
BRANCH  29  30
ATOM     30  C   UNL     1      -7.753   4.076 125.015  0.00  0.00    +0.000 C 
ATOM     31  O   UNL     1      -8.870   3.542 125.040  0.00  0.00    +0.000 OA
ATOM     32  N   UNL     1      -6.934   3.866 123.925  0.00  0.00    +0.000 N 
ATOM     33  H   UNL     1      -5.929   3.850 124.048  0.00  0.00    +0.000 HD
BRANCH  32  34
ATOM     34  C   UNL     1      -7.543   3.190 122.794  0.00  0.00    +0.000 C 
BRANCH  34  35
ATOM     35  C   UNL     1      -6.570   2.698 121.735  0.00  0.00    +0.000 C 
BRANCH  35  36
ATOM     36  C   UNL     1      -6.328   3.721 120.647  0.00  0.00    +0.000 A 
ATOM     37  C   UNL     1      -5.191   4.535 120.720  0.00  0.00    +0.000 A 
ATOM     38  C   UNL     1      -5.032   5.601 119.834  0.00  0.00    +0.000 A 
ATOM     39  C   UNL     1      -5.938   5.789 118.791  0.00  0.00    +0.000 A 
ATOM     40  C   UNL     1      -6.988   4.897 118.619  0.00  0.00    +0.000 A 
ATOM     41  C   UNL     1      -7.204   3.893 119.562  0.00  0.00    +0.000 A 
ENDBRANCH  35  36
ENDBRANCH  34  35
ENDBRANCH  32  34
ENDBRANCH  29  30
ENDBRANCH  10  29
TORSDOF 11
ENDMDL
MODEL 7
REMARK VINA RESULT:      -7.8      1.561      1.932
REMARK  Name = CHEMBL25310
REMARK  12 active torsions:
REMARK  status: ('A' for Active; 'I' for Inactive)
REMARK    1  A    between atoms: C_1  and  C_2
REMARK    2  A    between atoms: C_2  and  C_4
REMARK    3  A    between atoms: C_4  and  C_5
REMARK    4  A    between atoms: C_5  and  C_6
REMARK    5  A    between atoms: C_6  and  C_7
REMARK    6  A    between atoms: N_9  and  C_10
REMARK    7  A    between atoms: C_12  and  C_13
REMARK    8  A    between atoms: N_25  and  C_26
REMARK    9  A    between atoms: C_26  and  C_27
REMARK   10  A    between atoms: N_29  and  C_30
REMARK   11  A    between atoms: C_30  and  C_31
REMARK   12  A    between atoms: C_31  and  C_32
REMARK                            x       y       z     vdW  Elec       q    Type
REMARK                         _______ _______ _______ _____ _____    ______ ____
ROOT
ATOM      1  C   UNL     1      -9.145   3.725 130.196  0.00  0.00    +0.000 C 
ATOM      2  N   UNL     1      -9.093   3.300 128.795  0.00  0.00    +0.000 NA
ATOM      3  C   UNL     1      -7.971   2.856 128.326  0.00  0.00    +0.000 C 
ATOM      4  C   UNL     1      -6.704   2.707 129.113  0.00  0.00    +0.000 A 
ATOM      5  C   UNL     1      -5.483   2.932 128.448  0.00  0.00    +0.000 A 
ATOM      6  C   UNL     1      -4.264   2.719 129.091  0.00  0.00    +0.000 A 
ATOM      7  C   UNL     1      -4.248   2.353 130.429  0.00  0.00    +0.000 A 
ATOM      8  C   UNL     1      -5.449   2.198 131.116  0.00  0.00    +0.000 A 
ATOM      9  C   UNL     1      -6.687   2.273 130.451  0.00  0.00    +0.000 A 
ATOM     10  N   UNL     1      -7.847   1.774 131.120  0.00  0.00    +0.000 N 
ATOM     11  C   UNL     1      -9.068   2.452 131.093  0.00  0.00    +0.000 C 
ATOM     12  O   UNL     1     -10.029   2.081 131.780  0.00  0.00    +0.000 OA
ENDROOT
BRANCH   3  13
ATOM     13  C   UNL     1      -7.943   2.440 126.888  0.00  0.00    +0.000 A 
ATOM     14  C   UNL     1      -7.945   1.087 126.532  0.00  0.00    +0.000 A 
ATOM     15  C   UNL     1      -7.832   0.725 125.185  0.00  0.00    +0.000 A 
ATOM     16  C   UNL     1      -7.810   1.710 124.195  0.00  0.00    +0.000 A 
ATOM     17  C   UNL     1      -7.911   3.055 124.547  0.00  0.00    +0.000 A 
ATOM     18  C   UNL     1      -7.926   3.425 125.893  0.00  0.00    +0.000 A 
ENDBRANCH   3  13
BRANCH   1  21
ATOM     19  C   UNL     1     -10.441   5.703 130.875  0.00  0.00    +0.000 C 
ATOM     20  O   UNL     1      -9.416   6.327 131.142  0.00  0.00    +0.000 OA
ATOM     21  N   UNL     1     -10.409   4.410 130.418  0.00  0.00    +0.000 N 
ATOM     22  H   UNL     1     -11.251   3.883 130.229  0.00  0.00    +0.000 HD
BRANCH  19  23
ATOM     23  C   UNL     1     -11.832   6.305 131.061  0.00  0.00    +0.000 C 
BRANCH  23  24
ATOM     24  C   UNL     1     -11.961   7.592 130.236  0.00  0.00    +0.000 C 
BRANCH  24  25
ATOM     25  C   UNL     1     -12.170   7.364 128.739  0.00  0.00    +0.000 C 
BRANCH  25  27
ATOM     26  C   UNL     1     -10.972   7.590 126.459  0.00  0.00    +0.000 C 
ATOM     27  C   UNL     1     -10.971   7.862 127.940  0.00  0.00    +0.000 C 
ATOM     28  O   UNL     1     -10.030   8.465 128.457  0.00  0.00    +0.000 OA
ENDBRANCH  25  27
ENDBRANCH  24  25
ENDBRANCH  23  24
ENDBRANCH  19  23
ENDBRANCH   1  21
BRANCH  10  29
ATOM     29  C   UNL     1      -7.771   0.506 131.892  0.00  0.00    +0.000 C 
BRANCH  29  30
ATOM     30  C   UNL     1      -7.508  -0.811 131.129  0.00  0.00    +0.000 C 
ATOM     31  O   UNL     1      -6.977  -1.801 131.649  0.00  0.00    +0.000 OA
ATOM     32  N   UNL     1      -7.875  -0.868 129.801  0.00  0.00    +0.000 N 
ATOM     33  H   UNL     1      -7.847  -0.027 129.236  0.00  0.00    +0.000 HD
BRANCH  32  34
ATOM     34  C   UNL     1      -7.788  -2.173 129.173  0.00  0.00    +0.000 C 
BRANCH  34  35
ATOM     35  C   UNL     1      -6.781  -2.278 128.038  0.00  0.00    +0.000 C 
BRANCH  35  36
ATOM     36  C   UNL     1      -7.434  -2.596 126.710  0.00  0.00    +0.000 A 
ATOM     37  C   UNL     1      -6.628  -2.747 125.575  0.00  0.00    +0.000 A 
ATOM     38  C   UNL     1      -7.208  -2.864 124.311  0.00  0.00    +0.000 A 
ATOM     39  C   UNL     1      -8.592  -2.959 124.180  0.00  0.00    +0.000 A 
ATOM     40  C   UNL     1      -9.395  -2.961 125.313  0.00  0.00    +0.000 A 
ATOM     41  C   UNL     1      -8.823  -2.743 126.566  0.00  0.00    +0.000 A 
ENDBRANCH  35  36
ENDBRANCH  34  35
ENDBRANCH  32  34
ENDBRANCH  29  30
ENDBRANCH  10  29
TORSDOF 11
ENDMDL
MODEL 8
REMARK VINA RESULT:      -7.8      2.428      7.325
REMARK  Name = CHEMBL25310
REMARK  12 active torsions:
REMARK  status: ('A' for Active; 'I' for Inactive)
REMARK    1  A    between atoms: C_1  and  C_2
REMARK    2  A    between atoms: C_2  and  C_4
REMARK    3  A    between atoms: C_4  and  C_5
REMARK    4  A    between atoms: C_5  and  C_6
REMARK    5  A    between atoms: C_6  and  C_7
REMARK    6  A    between atoms: N_9  and  C_10
REMARK    7  A    between atoms: C_12  and  C_13
REMARK    8  A    between atoms: N_25  and  C_26
REMARK    9  A    between atoms: C_26  and  C_27
REMARK   10  A    between atoms: N_29  and  C_30
REMARK   11  A    between atoms: C_30  and  C_31
REMARK   12  A    between atoms: C_31  and  C_32
REMARK                            x       y       z     vdW  Elec       q    Type
REMARK                         _______ _______ _______ _____ _____    ______ ____
ROOT
ATOM      1  C   UNL     1      -5.679   0.961 127.760  0.00  0.00    +0.000 C 
ATOM      2  N   UNL     1      -6.291   0.047 126.793  0.00  0.00    +0.000 NA
ATOM      3  C   UNL     1      -6.905  -1.001 127.239  0.00  0.00    +0.000 C 
ATOM      4  C   UNL     1      -7.075  -1.354 128.685  0.00  0.00    +0.000 A 
ATOM      5  C   UNL     1      -7.067  -2.718 129.039  0.00  0.00    +0.000 A 
ATOM      6  C   UNL     1      -7.314  -3.122 130.351  0.00  0.00    +0.000 A 
ATOM      7  C   UNL     1      -7.497  -2.169 131.341  0.00  0.00    +0.000 A 
ATOM      8  C   UNL     1      -7.435  -0.816 131.016  0.00  0.00    +0.000 A 
ATOM      9  C   UNL     1      -7.325  -0.389 129.679  0.00  0.00    +0.000 A 
ATOM     10  N   UNL     1      -7.609   0.978 129.378  0.00  0.00    +0.000 N 
ATOM     11  C   UNL     1      -6.821   1.724 128.498  0.00  0.00    +0.000 C 
ATOM     12  O   UNL     1      -6.997   2.940 128.344  0.00  0.00    +0.000 OA
ENDROOT
BRANCH   3  13
ATOM     13  C   UNL     1      -7.513  -1.925 126.228  0.00  0.00    +0.000 A 
ATOM     14  C   UNL     1      -8.900  -2.075 126.135  0.00  0.00    +0.000 A 
ATOM     15  C   UNL     1      -9.437  -3.008 125.239  0.00  0.00    +0.000 A 
ATOM     16  C   UNL     1      -8.596  -3.719 124.381  0.00  0.00    +0.000 A 
ATOM     17  C   UNL     1      -7.221  -3.492 124.407  0.00  0.00    +0.000 A 
ATOM     18  C   UNL     1      -6.672  -2.635 125.362  0.00  0.00    +0.000 A 
ENDBRANCH   3  13
BRANCH   1  21
ATOM     19  C   UNL     1      -3.747   2.478 127.619  0.00  0.00    +0.000 C 
ATOM     20  O   UNL     1      -3.434   2.246 128.786  0.00  0.00    +0.000 OA
ATOM     21  N   UNL     1      -4.846   1.904 127.031  0.00  0.00    +0.000 N 
ATOM     22  H   UNL     1      -5.124   2.119 126.083  0.00  0.00    +0.000 HD
BRANCH  19  23
ATOM     23  C   UNL     1      -2.956   3.447 126.742  0.00  0.00    +0.000 C 
BRANCH  23  24
ATOM     24  C   UNL     1      -2.614   4.713 127.536  0.00  0.00    +0.000 C 
BRANCH  24  25
ATOM     25  C   UNL     1      -3.803   5.638 127.792  0.00  0.00    +0.000 C 
BRANCH  25  27
ATOM     26  C   UNL     1      -2.263   6.474 129.693  0.00  0.00    +0.000 C 
ATOM     27  C   UNL     1      -3.437   6.734 128.788  0.00  0.00    +0.000 C 
ATOM     28  O   UNL     1      -4.057   7.794 128.868  0.00  0.00    +0.000 OA
ENDBRANCH  25  27
ENDBRANCH  24  25
ENDBRANCH  23  24
ENDBRANCH  19  23
ENDBRANCH   1  21
BRANCH  10  29
ATOM     29  C   UNL     1      -8.763   1.656 130.026  0.00  0.00    +0.000 C 
BRANCH  29  30
ATOM     30  C   UNL     1      -8.483   2.750 131.081  0.00  0.00    +0.000 C 
ATOM     31  O   UNL     1      -8.003   2.509 132.196  0.00  0.00    +0.000 OA
ATOM     32  N   UNL     1      -8.803   4.052 130.757  0.00  0.00    +0.000 N 
ATOM     33  H   UNL     1      -9.582   4.238 130.136  0.00  0.00    +0.000 HD
BRANCH  32  34
ATOM     34  C   UNL     1      -8.354   5.067 131.692  0.00  0.00    +0.000 C 
BRANCH  34  35
ATOM     35  C   UNL     1      -8.508   6.502 131.211  0.00  0.00    +0.000 C 
BRANCH  35  36
ATOM     36  C   UNL     1      -9.941   6.852 130.876  0.00  0.00    +0.000 A 
ATOM     37  C   UNL     1     -10.215   7.530 129.683  0.00  0.00    +0.000 A 
ATOM     38  C   UNL     1     -11.496   8.022 129.430  0.00  0.00    +0.000 A 
ATOM     39  C   UNL     1     -12.543   7.733 130.304  0.00  0.00    +0.000 A 
ATOM     40  C   UNL     1     -12.314   6.933 131.416  0.00  0.00    +0.000 A 
ATOM     41  C   UNL     1     -11.016   6.528 131.721  0.00  0.00    +0.000 A 
ENDBRANCH  35  36
ENDBRANCH  34  35
ENDBRANCH  32  34
ENDBRANCH  29  30
ENDBRANCH  10  29
TORSDOF 11
ENDMDL
MODEL 9
REMARK VINA RESULT:      -7.8      1.458      2.652
REMARK  Name = CHEMBL25310
REMARK  12 active torsions:
REMARK  status: ('A' for Active; 'I' for Inactive)
REMARK    1  A    between atoms: C_1  and  C_2
REMARK    2  A    between atoms: C_2  and  C_4
REMARK    3  A    between atoms: C_4  and  C_5
REMARK    4  A    between atoms: C_5  and  C_6
REMARK    5  A    between atoms: C_6  and  C_7
REMARK    6  A    between atoms: N_9  and  C_10
REMARK    7  A    between atoms: C_12  and  C_13
REMARK    8  A    between atoms: N_25  and  C_26
REMARK    9  A    between atoms: C_26  and  C_27
REMARK   10  A    between atoms: N_29  and  C_30
REMARK   11  A    between atoms: C_30  and  C_31
REMARK   12  A    between atoms: C_31  and  C_32
REMARK                            x       y       z     vdW  Elec       q    Type
REMARK                         _______ _______ _______ _____ _____    ______ ____
ROOT
ATOM      1  C   UNL     1      -7.179   4.309 129.157  0.00  0.00    +0.000 C 
ATOM      2  N   UNL     1      -7.685   3.694 127.927  0.00  0.00    +0.000 NA
ATOM      3  C   UNL     1      -6.831   3.297 127.040  0.00  0.00    +0.000 C 
ATOM      4  C   UNL     1      -5.341   3.383 127.175  0.00  0.00    +0.000 A 
ATOM      5  C   UNL     1      -4.584   3.625 126.011  0.00  0.00    +0.000 A 
ATOM      6  C   UNL     1      -3.190   3.623 126.047  0.00  0.00    +0.000 A 
ATOM      7  C   UNL     1      -2.534   3.456 127.256  0.00  0.00    +0.000 A 
ATOM      8  C   UNL     1      -3.272   3.288 128.425  0.00  0.00    +0.000 A 
ATOM      9  C   UNL     1      -4.673   3.149 128.391  0.00  0.00    +0.000 A 
ATOM     10  N   UNL     1      -5.332   2.643 129.554  0.00  0.00    +0.000 N 
ATOM     11  C   UNL     1      -6.527   3.191 130.026  0.00  0.00    +0.000 C 
ATOM     12  O   UNL     1      -7.021   2.832 131.103  0.00  0.00    +0.000 OA
ENDROOT
BRANCH   3  13
ATOM     13  C   UNL     1      -7.375   2.683 125.787  0.00  0.00    +0.000 A 
ATOM     14  C   UNL     1      -8.011   3.468 124.820  0.00  0.00    +0.000 A 
ATOM     15  C   UNL     1      -8.585   2.856 123.699  0.00  0.00    +0.000 A 
ATOM     16  C   UNL     1      -8.442   1.480 123.503  0.00  0.00    +0.000 A 
ATOM     17  C   UNL     1      -7.720   0.717 124.417  0.00  0.00    +0.000 A 
ATOM     18  C   UNL     1      -7.229   1.305 125.584  0.00  0.00    +0.000 A 
ENDBRANCH   3  13
BRANCH   1  21
ATOM     19  C   UNL     1      -8.191   6.117 130.482  0.00  0.00    +0.000 C 
ATOM     20  O   UNL     1      -7.140   6.755 130.483  0.00  0.00    +0.000 OA
ATOM     21  N   UNL     1      -8.303   4.895 129.869  0.00  0.00    +0.000 N 
ATOM     22  H   UNL     1      -9.157   4.354 129.896  0.00  0.00    +0.000 HD
BRANCH  19  23
ATOM     23  C   UNL     1      -9.448   6.620 131.191  0.00  0.00    +0.000 C 
BRANCH  23  24
ATOM     24  C   UNL     1      -9.727   5.767 132.433  0.00  0.00    +0.000 C 
BRANCH  24  25
ATOM     25  C   UNL     1      -8.626   5.813 133.492  0.00  0.00    +0.000 C 
BRANCH  25  27
ATOM     26  C   UNL     1      -9.254   3.308 133.598  0.00  0.00    +0.000 C 
ATOM     27  C   UNL     1      -8.354   4.423 134.057  0.00  0.00    +0.000 C 
ATOM     28  O   UNL     1      -7.445   4.195 134.855  0.00  0.00    +0.000 OA
ENDBRANCH  25  27
ENDBRANCH  24  25
ENDBRANCH  23  24
ENDBRANCH  19  23
ENDBRANCH   1  21
BRANCH  10  29
ATOM     29  C   UNL     1      -4.736   1.512 130.312  0.00  0.00    +0.000 C 
BRANCH  29  30
ATOM     30  C   UNL     1      -5.065   0.068 129.870  0.00  0.00    +0.000 C 
ATOM     31  O   UNL     1      -4.735  -0.931 130.520  0.00  0.00    +0.000 OA
ATOM     32  N   UNL     1      -5.747  -0.099 128.683  0.00  0.00    +0.000 N 
ATOM     33  H   UNL     1      -5.615   0.565 127.929  0.00  0.00    +0.000 HD
BRANCH  32  34
ATOM     34  C   UNL     1      -6.201  -1.448 128.397  0.00  0.00    +0.000 C 
BRANCH  34  35
ATOM     35  C   UNL     1      -5.797  -1.991 127.035  0.00  0.00    +0.000 C 
BRANCH  35  36
ATOM     36  C   UNL     1      -6.984  -2.450 126.216  0.00  0.00    +0.000 A 
ATOM     37  C   UNL     1      -6.773  -2.907 124.911  0.00  0.00    +0.000 A 
ATOM     38  C   UNL     1      -7.858  -3.168 124.072  0.00  0.00    +0.000 A 
ATOM     39  C   UNL     1      -9.159  -3.098 124.567  0.00  0.00    +0.000 A 
ATOM     40  C   UNL     1      -9.375  -2.790 125.904  0.00  0.00    +0.000 A 
ATOM     41  C   UNL     1      -8.298  -2.431 126.713  0.00  0.00    +0.000 A 
ENDBRANCH  35  36
ENDBRANCH  34  35
ENDBRANCH  32  34
ENDBRANCH  29  30
ENDBRANCH  10  29
TORSDOF 11
ENDMDL
