MODEL 1
REMARK VINA RESULT:      -8.5      0.000      0.000
REMARK  Name = CHEMBL2037506
REMARK  11 active torsions:
REMARK  status: ('A' for Active; 'I' for Inactive)
REMARK    1  A    between atoms: CD1_1  and  CG1_2
REMARK    2  A    between atoms: CG1_2  and  CB_3
REMARK    3  A    between atoms: CB_3  and  CG2_4
REMARK    4  A    between atoms: CB_3  and  CA_5
REMARK    5  A    between atoms: C_9  and  C_10
REMARK    6  A    between atoms: N_21  and  C_22
REMARK    7  A    between atoms: C_22  and  C_23
REMARK    8  A    between atoms: C_22  and  C_27
REMARK    9  A    between atoms: N_25  and  C_26
REMARK   10  A    between atoms: C_30  and  C_31
REMARK   11  A    between atoms: C_33  and  C_34
REMARK                            x       y       z     vdW  Elec       q    Type
REMARK                         _______ _______ _______ _____ _____    ______ ____
ROOT
ATOM      1  CA  ILE A   2      -7.391   2.037 126.529  0.00  0.00    +0.000 C 
ATOM      2  C   ILE A   2      -7.513   3.450 127.152  0.00  0.00    +0.000 C 
ATOM      3  O   ILE A   2      -7.179   4.535 126.644  0.00  0.00    +0.000 OA
ATOM      4  N   UNK A   1      -7.981   3.470 128.395  0.00  0.00    +0.000 N 
ATOM      5  C   UNK A   1      -8.758   2.385 128.900  0.00  0.00    +0.000 C 
ATOM      6  C   UNK A   1      -8.002   1.061 128.726  0.00  0.00    +0.000 C 
ATOM      7  O   UNK A   1      -8.184   0.229 129.604  0.00  0.00    +0.000 OA
ATOM      8  N   ILE A   2      -7.237   0.890 127.547  0.00  0.00    +0.000 N 
ATOM      9  H   UNK A   1      -7.863   4.358 128.870  0.00  0.00    +0.000 HD
ENDROOT
BRANCH   5  10
ATOM     10  C   UNK A   1      -9.068   2.549 130.405  0.00  0.00    +0.000 C 
ATOM     11  C   UNK A   1     -10.520   2.996 130.630  0.00  0.00    +0.000 C 
ATOM     12  C   UNK A   1     -10.367   4.488 130.643  0.00  0.00    +0.000 A 
ATOM     13  C   UNK A   1     -11.323   5.437 130.332  0.00  0.00    +0.000 A 
ATOM     14  C   UNK A   1     -10.928   6.774 130.262  0.00  0.00    +0.000 A 
ATOM     15  C   UNK A   1      -9.592   7.145 130.492  0.00  0.00    +0.000 A 
ATOM     16  C   UNK A   1      -8.627   6.183 130.788  0.00  0.00    +0.000 A 
ATOM     17  C   UNK A   1      -9.032   4.861 130.866  0.00  0.00    +0.000 A 
ATOM     18  C   UNK A   1      -8.174   3.649 131.054  0.00  0.00    +0.000 C 
ENDBRANCH   5  10
BRANCH   1  19
ATOM     19  CB  ILE A   2      -6.149   2.117 125.688  0.00  0.00    +0.000 C 
ATOM     20  CG2 ILE A   2      -4.854   1.467 126.152  0.00  0.00    +0.000 C 
BRANCH  19  22
ATOM     21  CD1 ILE A   2      -7.755   1.204 123.658  0.00  0.00    +0.000 C 
ATOM     22  CG1 ILE A   2      -6.431   1.449 124.330  0.00  0.00    +0.000 C 
ENDBRANCH  19  22
ENDBRANCH   1  19
BRANCH   8  23
ATOM     23  C   UNK A   0      -6.384  -0.465 127.264  0.00  0.00    +0.000 C 
BRANCH  23  24
ATOM     24  C   UNK A   0      -7.165  -1.392 126.262  0.00  0.00    +0.000 A 
ATOM     25  C   UNK A   0      -8.571  -1.414 126.267  0.00  0.00    +0.000 A 
ATOM     26  N   UNK A   0      -9.387  -2.049 125.416  0.00  0.00    +0.000 NA
ATOM     27  C   UNK A   0      -8.815  -2.650 124.383  0.00  0.00    +0.000 A 
ATOM     28  C   UNK A   0      -9.791  -3.291 123.463  0.00  0.00    +0.000 C 
ATOM     29  C   UNK A   0      -7.435  -2.668 124.205  0.00  0.00    +0.000 A 
ATOM     30  C   UNK A   0      -6.576  -2.074 125.167  0.00  0.00    +0.000 A 
ATOM     31  C   UNK A   0      -5.098  -2.010 124.861  0.00  0.00    +0.000 C 
ENDBRANCH  23  24
BRANCH  23  32
ATOM     32  C   UNK A   0      -5.816  -1.512 128.540  0.00  0.00    +0.000 C 
ATOM     33  O   UNK A   0      -4.659  -1.948 128.565  0.00  0.00    +0.000 OA
ATOM     34  N   UNK A   0      -6.646  -2.200 129.446  0.00  0.00    +0.000 N 
ATOM     35  C   UNK A   0      -6.179  -3.574 129.869  0.00  0.00    +0.000 C 
ATOM     36  H   UNK A   0      -7.643  -2.116 129.349  0.00  0.00    +0.000 HD
ENDBRANCH  23  32
ENDBRANCH   8  23
TORSDOF 6
ENDMDL
MODEL 2
REMARK VINA RESULT:      -8.2      2.129      7.920
REMARK  Name = CHEMBL2037506
REMARK  11 active torsions:
REMARK  status: ('A' for Active; 'I' for Inactive)
REMARK    1  A    between atoms: CD1_1  and  CG1_2
REMARK    2  A    between atoms: CG1_2  and  CB_3
REMARK    3  A    between atoms: CB_3  and  CG2_4
REMARK    4  A    between atoms: CB_3  and  CA_5
REMARK    5  A    between atoms: C_9  and  C_10
REMARK    6  A    between atoms: N_21  and  C_22
REMARK    7  A    between atoms: C_22  and  C_23
REMARK    8  A    between atoms: C_22  and  C_27
REMARK    9  A    between atoms: N_25  and  C_26
REMARK   10  A    between atoms: C_30  and  C_31
REMARK   11  A    between atoms: C_33  and  C_34
REMARK                            x       y       z     vdW  Elec       q    Type
REMARK                         _______ _______ _______ _____ _____    ______ ____
ROOT
ATOM      1  CA  ILE A   2      -7.679   1.114 129.374  0.00  0.00    +0.000 C 
ATOM      2  C   ILE A   2      -7.524  -0.334 128.841  0.00  0.00    +0.000 C 
ATOM      3  O   ILE A   2      -7.779  -1.393 129.441  0.00  0.00    +0.000 OA
ATOM      4  N   UNK A   1      -7.004  -0.424 127.622  0.00  0.00    +0.000 N 
ATOM      5  C   UNK A   1      -7.067   0.678 126.719  0.00  0.00    +0.000 C 
ATOM      6  C   UNK A   1      -6.473   1.935 127.368  0.00  0.00    +0.000 C 
ATOM      7  O   UNK A   1      -5.888   2.696 126.609  0.00  0.00    +0.000 OA
ATOM      8  N   ILE A   2      -6.718   2.142 128.747  0.00  0.00    +0.000 N 
ATOM      9  H   UNK A   1      -6.710  -1.359 127.364  0.00  0.00    +0.000 HD
ENDROOT
BRANCH   5  10
ATOM     10  C   UNK A   1      -6.273   0.406 125.421  0.00  0.00    +0.000 C 
ATOM     11  C   UNK A   1      -7.171   0.533 124.181  0.00  0.00    +0.000 C 
ATOM     12  C   UNK A   1      -7.647  -0.881 124.019  0.00  0.00    +0.000 A 
ATOM     13  C   UNK A   1      -8.810  -1.315 123.413  0.00  0.00    +0.000 A 
ATOM     14  C   UNK A   1      -9.136  -2.669 123.503  0.00  0.00    +0.000 A 
ATOM     15  C   UNK A   1      -8.310  -3.565 124.203  0.00  0.00    +0.000 A 
ATOM     16  C   UNK A   1      -7.147  -3.120 124.829  0.00  0.00    +0.000 A 
ATOM     17  C   UNK A   1      -6.826  -1.777 124.723  0.00  0.00    +0.000 A 
ATOM     18  C   UNK A   1      -5.707  -1.046 125.395  0.00  0.00    +0.000 C 
ENDBRANCH   5  10
BRANCH   1  19
ATOM     19  CB  ILE A   2      -7.384   0.995 130.841  0.00  0.00    +0.000 C 
ATOM     20  CG2 ILE A   2      -6.034   1.421 131.398  0.00  0.00    +0.000 C 
BRANCH  19  22
ATOM     21  CD1 ILE A   2      -9.739   2.364 131.173  0.00  0.00    +0.000 C 
ATOM     22  CG1 ILE A   2      -8.393   1.860 131.618  0.00  0.00    +0.000 C 
ENDBRANCH  19  22
ENDBRANCH   1  19
BRANCH   8  23
ATOM     23  C   UNK A   0      -6.125   3.431 129.543  0.00  0.00    +0.000 C 
BRANCH  23  24
ATOM     24  C   UNK A   0      -7.220   4.555 129.635  0.00  0.00    +0.000 A 
ATOM     25  C   UNK A   0      -8.199   4.674 128.632  0.00  0.00    +0.000 A 
ATOM     26  N   UNK A   0      -9.261   5.490 128.611  0.00  0.00    +0.000 NA
ATOM     27  C   UNK A   0      -9.483   6.203 129.707  0.00  0.00    +0.000 A 
ATOM     28  C   UNK A   0     -10.704   7.045 129.620  0.00  0.00    +0.000 C 
ATOM     29  C   UNK A   0      -8.637   6.150 130.810  0.00  0.00    +0.000 A 
ATOM     30  C   UNK A   0      -7.461   5.354 130.781  0.00  0.00    +0.000 A 
ATOM     31  C   UNK A   0      -6.649   5.235 132.050  0.00  0.00    +0.000 C 
ENDBRANCH  23  24
BRANCH  23  32
ATOM     32  C   UNK A   0      -4.650   4.239 129.073  0.00  0.00    +0.000 C 
ATOM     33  O   UNK A   0      -3.755   4.495 129.887  0.00  0.00    +0.000 OA
ATOM     34  N   UNK A   0      -4.465   4.939 127.866  0.00  0.00    +0.000 N 
ATOM     35  C   UNK A   0      -3.599   6.176 127.936  0.00  0.00    +0.000 C 
ATOM     36  H   UNK A   0      -5.237   5.013 127.225  0.00  0.00    +0.000 HD
ENDBRANCH  23  32
ENDBRANCH   8  23
TORSDOF 6
ENDMDL
MODEL 3
REMARK VINA RESULT:      -8.1      2.162      8.259
REMARK  Name = CHEMBL2037506
REMARK  11 active torsions:
REMARK  status: ('A' for Active; 'I' for Inactive)
REMARK    1  A    between atoms: CD1_1  and  CG1_2
REMARK    2  A    between atoms: CG1_2  and  CB_3
REMARK    3  A    between atoms: CB_3  and  CG2_4
REMARK    4  A    between atoms: CB_3  and  CA_5
REMARK    5  A    between atoms: C_9  and  C_10
REMARK    6  A    between atoms: N_21  and  C_22
REMARK    7  A    between atoms: C_22  and  C_23
REMARK    8  A    between atoms: C_22  and  C_27
REMARK    9  A    between atoms: N_25  and  C_26
REMARK   10  A    between atoms: C_30  and  C_31
REMARK   11  A    between atoms: C_33  and  C_34
REMARK                            x       y       z     vdW  Elec       q    Type
REMARK                         _______ _______ _______ _____ _____    ______ ____
ROOT
ATOM      1  CA  ILE A   2      -8.657   2.447 129.911  0.00  0.00    +0.000 C 
ATOM      2  C   ILE A   2      -7.938   1.156 129.444  0.00  0.00    +0.000 C 
ATOM      3  O   ILE A   2      -8.074   0.006 129.898  0.00  0.00    +0.000 OA
ATOM      4  N   UNK A   1      -7.038   1.337 128.484  0.00  0.00    +0.000 N 
ATOM      5  C   UNK A   1      -7.099   2.481 127.634  0.00  0.00    +0.000 C 
ATOM      6  C   UNK A   1      -7.129   3.767 128.471  0.00  0.00    +0.000 C 
ATOM      7  O   UNK A   1      -6.559   4.732 127.978  0.00  0.00    +0.000 OA
ATOM      8  N   ILE A   2      -7.866   3.749 129.679  0.00  0.00    +0.000 N 
ATOM      9  H   UNK A   1      -6.428   0.543 128.330  0.00  0.00    +0.000 HD
ENDROOT
BRANCH   5  10
ATOM     10  C   UNK A   1      -5.876   2.567 126.694  0.00  0.00    +0.000 C 
ATOM     11  C   UNK A   1      -6.308   2.653 125.223  0.00  0.00    +0.000 C 
ATOM     12  C   UNK A   1      -6.324   1.203 124.838  0.00  0.00    +0.000 A 
ATOM     13  C   UNK A   1      -7.066   0.606 123.837  0.00  0.00    +0.000 A 
ATOM     14  C   UNK A   1      -7.047  -0.788 123.743  0.00  0.00    +0.000 A 
ATOM     15  C   UNK A   1      -6.303  -1.561 124.650  0.00  0.00    +0.000 A 
ATOM     16  C   UNK A   1      -5.571  -0.955 125.670  0.00  0.00    +0.000 A 
ATOM     17  C   UNK A   1      -5.587   0.428 125.746  0.00  0.00    +0.000 A 
ATOM     18  C   UNK A   1      -4.982   1.294 126.806  0.00  0.00    +0.000 C 
ENDBRANCH   5  10
BRANCH   1  19
ATOM     19  CB  ILE A   2      -8.847   2.244 131.386  0.00  0.00    +0.000 C 
ATOM     20  CG2 ILE A   2      -9.804   1.181 131.907  0.00  0.00    +0.000 C 
BRANCH  19  22
ATOM     21  CD1 ILE A   2      -7.076   1.897 133.454  0.00  0.00    +0.000 C 
ATOM     22  CG1 ILE A   2      -7.493   1.857 132.009  0.00  0.00    +0.000 C 
ENDBRANCH  19  22
ENDBRANCH   1  19
BRANCH   8  23
ATOM     23  C   UNK A   0      -7.955   5.049 130.653  0.00  0.00    +0.000 C 
BRANCH  23  24
ATOM     24  C   UNK A   0      -9.273   5.854 130.355  0.00  0.00    +0.000 A 
ATOM     25  C   UNK A   0      -9.716   6.023 129.031  0.00  0.00    +0.000 A 
ATOM     26  N   UNK A   0     -10.862   6.573 128.610  0.00  0.00    +0.000 NA
ATOM     27  C   UNK A   0     -11.736   6.912 129.547  0.00  0.00    +0.000 A 
ATOM     28  C   UNK A   0     -12.998   7.472 128.997  0.00  0.00    +0.000 C 
ATOM     29  C   UNK A   0     -11.469   6.752 130.903  0.00  0.00    +0.000 A 
ATOM     30  C   UNK A   0     -10.211   6.258 131.338  0.00  0.00    +0.000 A 
ATOM     31  C   UNK A   0     -10.022   5.985 132.813  0.00  0.00    +0.000 C 
ENDBRANCH  23  24
BRANCH  23  32
ATOM     32  C   UNK A   0      -6.683   6.239 130.763  0.00  0.00    +0.000 C 
ATOM     33  O   UNK A   0      -6.910   7.452 130.679  0.00  0.00    +0.000 OA
ATOM     34  N   UNK A   0      -5.308   5.962 130.636  0.00  0.00    +0.000 N 
ATOM     35  C   UNK A   0      -4.474   7.018 129.949  0.00  0.00    +0.000 C 
ATOM     36  H   UNK A   0      -5.021   5.018 130.440  0.00  0.00    +0.000 HD
ENDBRANCH  23  32
ENDBRANCH   8  23
TORSDOF 6
ENDMDL
MODEL 4
REMARK VINA RESULT:      -8.1      3.437      5.234
REMARK  Name = CHEMBL2037506
REMARK  11 active torsions:
REMARK  status: ('A' for Active; 'I' for Inactive)
REMARK    1  A    between atoms: CD1_1  and  CG1_2
REMARK    2  A    between atoms: CG1_2  and  CB_3
REMARK    3  A    between atoms: CB_3  and  CG2_4
REMARK    4  A    between atoms: CB_3  and  CA_5
REMARK    5  A    between atoms: C_9  and  C_10
REMARK    6  A    between atoms: N_21  and  C_22
REMARK    7  A    between atoms: C_22  and  C_23
REMARK    8  A    between atoms: C_22  and  C_27
REMARK    9  A    between atoms: N_25  and  C_26
REMARK   10  A    between atoms: C_30  and  C_31
REMARK   11  A    between atoms: C_33  and  C_34
REMARK                            x       y       z     vdW  Elec       q    Type
REMARK                         _______ _______ _______ _____ _____    ______ ____
ROOT
ATOM      1  CA  ILE A   2      -7.504   2.789 129.183  0.00  0.00    +0.000 C 
ATOM      2  C   ILE A   2      -8.134   3.986 128.426  0.00  0.00    +0.000 C 
ATOM      3  O   ILE A   2      -8.287   4.110 127.198  0.00  0.00    +0.000 OA
ATOM      4  N   UNK A   1      -8.492   5.006 129.198  0.00  0.00    +0.000 N 
ATOM      5  C   UNK A   1      -8.744   4.814 130.589  0.00  0.00    +0.000 C 
ATOM      6  C   UNK A   1      -7.541   4.141 131.263  0.00  0.00    +0.000 C 
ATOM      7  O   UNK A   1      -7.323   4.480 132.418  0.00  0.00    +0.000 OA
ATOM      8  N   ILE A   2      -6.847   3.148 130.530  0.00  0.00    +0.000 N 
ATOM      9  H   UNK A   1      -8.703   5.857 128.692  0.00  0.00    +0.000 HD
ENDROOT
BRANCH   5  10
ATOM     10  C   UNK A   1      -8.997   6.152 131.319  0.00  0.00    +0.000 C 
ATOM     11  C   UNK A   1     -10.407   6.199 131.927  0.00  0.00    +0.000 C 
ATOM     12  C   UNK A   1     -11.186   6.824 130.807  0.00  0.00    +0.000 A 
ATOM     13  C   UNK A   1     -12.537   6.697 130.547  0.00  0.00    +0.000 A 
ATOM     14  C   UNK A   1     -13.036   7.243 129.363  0.00  0.00    +0.000 A 
ATOM     15  C   UNK A   1     -12.184   7.894 128.454  0.00  0.00    +0.000 A 
ATOM     16  C   UNK A   1     -10.818   8.004 128.712  0.00  0.00    +0.000 A 
ATOM     17  C   UNK A   1     -10.337   7.469 129.895  0.00  0.00    +0.000 A 
ATOM     18  C   UNK A   1      -8.912   7.361 130.338  0.00  0.00    +0.000 C 
ENDBRANCH   5  10
BRANCH   1  19
ATOM     19  CB  ILE A   2      -6.451   2.278 128.243  0.00  0.00    +0.000 C 
ATOM     20  CG2 ILE A   2      -4.983   2.605 128.470  0.00  0.00    +0.000 C 
BRANCH  19  22
ATOM     21  CD1 ILE A   2      -7.610  -0.172 128.677  0.00  0.00    +0.000 C 
ATOM     22  CG1 ILE A   2      -6.491   0.739 128.250  0.00  0.00    +0.000 C 
ENDBRANCH  19  22
ENDBRANCH   1  19
BRANCH   8  23
ATOM     23  C   UNK A   0      -5.548   2.379 131.138  0.00  0.00    +0.000 C 
BRANCH  23  24
ATOM     24  C   UNK A   0      -5.989   1.027 131.807  0.00  0.00    +0.000 A 
ATOM     25  C   UNK A   0      -7.247   0.920 132.427  0.00  0.00    +0.000 A 
ATOM     26  N   UNK A   0      -7.822  -0.176 132.938  0.00  0.00    +0.000 NA
ATOM     27  C   UNK A   0      -7.183  -1.322 132.754  0.00  0.00    +0.000 A 
ATOM     28  C   UNK A   0      -7.909  -2.494 133.309  0.00  0.00    +0.000 C 
ATOM     29  C   UNK A   0      -5.954  -1.390 132.105  0.00  0.00    +0.000 A 
ATOM     30  C   UNK A   0      -5.309  -0.208 131.654  0.00  0.00    +0.000 A 
ATOM     31  C   UNK A   0      -4.041  -0.351 130.845  0.00  0.00    +0.000 C 
ENDBRANCH  23  24
BRANCH  23  32
ATOM     32  C   UNK A   0      -4.442   3.130 132.261  0.00  0.00    +0.000 C 
ATOM     33  O   UNK A   0      -3.218   3.109 132.089  0.00  0.00    +0.000 OA
ATOM     34  N   UNK A   0      -4.773   3.530 133.570  0.00  0.00    +0.000 N 
ATOM     35  C   UNK A   0      -3.691   3.365 134.613  0.00  0.00    +0.000 C 
ATOM     36  H   UNK A   0      -5.703   3.354 133.910  0.00  0.00    +0.000 HD
ENDBRANCH  23  32
ENDBRANCH   8  23
TORSDOF 6
ENDMDL
MODEL 5
REMARK VINA RESULT:      -8.1      2.595      8.074
REMARK  Name = CHEMBL2037506
REMARK  11 active torsions:
REMARK  status: ('A' for Active; 'I' for Inactive)
REMARK    1  A    between atoms: CD1_1  and  CG1_2
REMARK    2  A    between atoms: CG1_2  and  CB_3
REMARK    3  A    between atoms: CB_3  and  CG2_4
REMARK    4  A    between atoms: CB_3  and  CA_5
REMARK    5  A    between atoms: C_9  and  C_10
REMARK    6  A    between atoms: N_21  and  C_22
REMARK    7  A    between atoms: C_22  and  C_23
REMARK    8  A    between atoms: C_22  and  C_27
REMARK    9  A    between atoms: N_25  and  C_26
REMARK   10  A    between atoms: C_30  and  C_31
REMARK   11  A    between atoms: C_33  and  C_34
REMARK                            x       y       z     vdW  Elec       q    Type
REMARK                         _______ _______ _______ _____ _____    ______ ____
ROOT
ATOM      1  CA  ILE A   2      -8.055   2.122 131.121  0.00  0.00    +0.000 C 
ATOM      2  C   ILE A   2      -8.019   0.622 131.509  0.00  0.00    +0.000 C 
ATOM      3  O   ILE A   2      -8.515   0.087 132.516  0.00  0.00    +0.000 OA
ATOM      4  N   UNK A   1      -7.324  -0.149 130.680  0.00  0.00    +0.000 N 
ATOM      5  C   UNK A   1      -7.081   0.258 129.335  0.00  0.00    +0.000 C 
ATOM      6  C   UNK A   1      -6.432   1.648 129.306  0.00  0.00    +0.000 C 
ATOM      7  O   UNK A   1      -5.628   1.838 128.403  0.00  0.00    +0.000 OA
ATOM      8  N   ILE A   2      -6.869   2.598 130.261  0.00  0.00    +0.000 N 
ATOM      9  H   UNK A   1      -7.125  -1.075 131.041  0.00  0.00    +0.000 HD
ENDROOT
BRANCH   5  10
ATOM     10  C   UNK A   1      -6.131  -0.714 128.600  0.00  0.00    +0.000 C 
ATOM     11  C   UNK A   1      -6.514  -0.856 127.119  0.00  0.00    +0.000 C 
ATOM     12  C   UNK A   1      -7.446  -2.030 127.171  0.00  0.00    +0.000 A 
ATOM     13  C   UNK A   1      -8.463  -2.338 126.287  0.00  0.00    +0.000 A 
ATOM     14  C   UNK A   1      -9.313  -3.400 126.603  0.00  0.00    +0.000 A 
ATOM     15  C   UNK A   1      -9.147  -4.128 127.793  0.00  0.00    +0.000 A 
ATOM     16  C   UNK A   1      -8.131  -3.802 128.691  0.00  0.00    +0.000 A 
ATOM     17  C   UNK A   1      -7.286  -2.755 128.362  0.00  0.00    +0.000 A 
ATOM     18  C   UNK A   1      -6.207  -2.149 129.204  0.00  0.00    +0.000 C 
ENDBRANCH   5  10
BRANCH   1  19
ATOM     19  CB  ILE A   2      -8.025   2.839 132.440  0.00  0.00    +0.000 C 
ATOM     20  CG2 ILE A   2      -9.278   2.944 133.296  0.00  0.00    +0.000 C 
BRANCH  19  22
ATOM     21  CD1 ILE A   2      -5.727   2.679 133.933  0.00  0.00    +0.000 C 
ATOM     22  CG1 ILE A   2      -7.009   2.137 133.359  0.00  0.00    +0.000 C 
ENDBRANCH  19  22
ENDBRANCH   1  19
BRANCH   8  23
ATOM     23  C   UNK A   0      -6.240   4.097 130.333  0.00  0.00    +0.000 C 
BRANCH  23  24
ATOM     24  C   UNK A   0      -7.375   5.166 130.131  0.00  0.00    +0.000 A 
ATOM     25  C   UNK A   0      -8.327   5.003 129.109  0.00  0.00    +0.000 A 
ATOM     26  N   UNK A   0      -9.415   5.747 128.871  0.00  0.00    +0.000 NA
ATOM     27  C   UNK A   0      -9.694   6.691 129.759  0.00  0.00    +0.000 A 
ATOM     28  C   UNK A   0     -10.939   7.439 129.448  0.00  0.00    +0.000 C 
ATOM     29  C   UNK A   0      -8.879   6.937 130.860  0.00  0.00    +0.000 A 
ATOM     30  C   UNK A   0      -7.677   6.205 131.047  0.00  0.00    +0.000 A 
ATOM     31  C   UNK A   0      -6.899   6.425 132.324  0.00  0.00    +0.000 C 
ENDBRANCH  23  24
BRANCH  23  32
ATOM     32  C   UNK A   0      -4.910   4.617 129.329  0.00  0.00    +0.000 C 
ATOM     33  O   UNK A   0      -5.087   5.249 128.282  0.00  0.00    +0.000 OA
ATOM     34  N   UNK A   0      -3.594   4.122 129.417  0.00  0.00    +0.000 N 
ATOM     35  C   UNK A   0      -2.840   3.991 128.114  0.00  0.00    +0.000 C 
ATOM     36  H   UNK A   0      -3.393   3.397 130.084  0.00  0.00    +0.000 HD
ENDBRANCH  23  32
ENDBRANCH   8  23
TORSDOF 6
ENDMDL
MODEL 6
REMARK VINA RESULT:      -7.7      3.512      8.089
REMARK  Name = CHEMBL2037506
REMARK  11 active torsions:
REMARK  status: ('A' for Active; 'I' for Inactive)
REMARK    1  A    between atoms: CD1_1  and  CG1_2
REMARK    2  A    between atoms: CG1_2  and  CB_3
REMARK    3  A    between atoms: CB_3  and  CG2_4
REMARK    4  A    between atoms: CB_3  and  CA_5
REMARK    5  A    between atoms: C_9  and  C_10
REMARK    6  A    between atoms: N_21  and  C_22
REMARK    7  A    between atoms: C_22  and  C_23
REMARK    8  A    between atoms: C_22  and  C_27
REMARK    9  A    between atoms: N_25  and  C_26
REMARK   10  A    between atoms: C_30  and  C_31
REMARK   11  A    between atoms: C_33  and  C_34
REMARK                            x       y       z     vdW  Elec       q    Type
REMARK                         _______ _______ _______ _____ _____    ______ ____
ROOT
ATOM      1  CA  ILE A   2      -4.770   1.910 128.405  0.00  0.00    +0.000 C 
ATOM      2  C   ILE A   2      -5.344   0.584 127.843  0.00  0.00    +0.000 C 
ATOM      3  O   ILE A   2      -5.130   0.078 126.728  0.00  0.00    +0.000 OA
ATOM      4  N   UNK A   1      -6.203  -0.033 128.646  0.00  0.00    +0.000 N 
ATOM      5  C   UNK A   1      -6.199   0.219 130.051  0.00  0.00    +0.000 C 
ATOM      6  C   UNK A   1      -6.330   1.723 130.324  0.00  0.00    +0.000 C 
ATOM      7  O   UNK A   1      -6.956   2.025 131.330  0.00  0.00    +0.000 OA
ATOM      8  N   ILE A   2      -5.660   2.612 129.448  0.00  0.00    +0.000 N 
ATOM      9  H   UNK A   1      -6.730  -0.774 128.201  0.00  0.00    +0.000 HD
ENDROOT
BRANCH   5  10
ATOM     10  C   UNK A   1      -7.373  -0.487 130.766  0.00  0.00    +0.000 C 
ATOM     11  C   UNK A   1      -6.941  -1.041 132.132  0.00  0.00    +0.000 C 
ATOM     12  C   UNK A   1      -6.516  -2.432 131.761  0.00  0.00    +0.000 A 
ATOM     13  C   UNK A   1      -5.611  -3.241 132.422  0.00  0.00    +0.000 A 
ATOM     14  C   UNK A   1      -5.244  -4.447 131.822  0.00  0.00    +0.000 A 
ATOM     15  C   UNK A   1      -5.772  -4.823 130.575  0.00  0.00    +0.000 A 
ATOM     16  C   UNK A   1      -6.670  -3.995 129.904  0.00  0.00    +0.000 A 
ATOM     17  C   UNK A   1      -7.036  -2.807 130.513  0.00  0.00    +0.000 A 
ATOM     18  C   UNK A   1      -7.885  -1.711 129.948  0.00  0.00    +0.000 C 
ENDBRANCH   5  10
BRANCH   1  19
ATOM     19  CB  ILE A   2      -4.642   2.791 127.196  0.00  0.00    +0.000 C 
ATOM     20  CG2 ILE A   2      -5.637   3.914 126.944  0.00  0.00    +0.000 C 
BRANCH  19  22
ATOM     21  CD1 ILE A   2      -1.958   3.067 126.689  0.00  0.00    +0.000 C 
ATOM     22  CG1 ILE A   2      -3.282   3.510 127.252  0.00  0.00    +0.000 C 
ENDBRANCH  19  22
ENDBRANCH   1  19
BRANCH   8  23
ATOM     23  C   UNK A   0      -5.741   4.226 129.633  0.00  0.00    +0.000 C 
BRANCH  23  24
ATOM     24  C   UNK A   0      -4.494   4.737 130.442  0.00  0.00    +0.000 A 
ATOM     25  C   UNK A   0      -3.963   3.962 131.489  0.00  0.00    +0.000 A 
ATOM     26  N   UNK A   0      -2.850   4.189 132.198  0.00  0.00    +0.000 NA
ATOM     27  C   UNK A   0      -2.095   5.207 131.809  0.00  0.00    +0.000 A 
ATOM     28  C   UNK A   0      -0.858   5.361 132.616  0.00  0.00    +0.000 C 
ATOM     29  C   UNK A   0      -2.455   6.033 130.749  0.00  0.00    +0.000 A 
ATOM     30  C   UNK A   0      -3.687   5.841 130.069  0.00  0.00    +0.000 A 
ATOM     31  C   UNK A   0      -3.967   6.686 128.848  0.00  0.00    +0.000 C 
ENDBRANCH  23  24
BRANCH  23  32
ATOM     32  C   UNK A   0      -7.125   5.033 130.327  0.00  0.00    +0.000 C 
ATOM     33  O   UNK A   0      -7.587   6.073 129.845  0.00  0.00    +0.000 OA
ATOM     34  N   UNK A   0      -7.634   4.791 131.617  0.00  0.00    +0.000 N 
ATOM     35  C   UNK A   0      -8.187   5.990 132.353  0.00  0.00    +0.000 C 
ATOM     36  H   UNK A   0      -7.162   4.127 132.207  0.00  0.00    +0.000 HD
ENDBRANCH  23  32
ENDBRANCH   8  23
TORSDOF 6
ENDMDL
MODEL 7
REMARK VINA RESULT:      -7.6      3.785      6.205
REMARK  Name = CHEMBL2037506
REMARK  11 active torsions:
REMARK  status: ('A' for Active; 'I' for Inactive)
REMARK    1  A    between atoms: CD1_1  and  CG1_2
REMARK    2  A    between atoms: CG1_2  and  CB_3
REMARK    3  A    between atoms: CB_3  and  CG2_4
REMARK    4  A    between atoms: CB_3  and  CA_5
REMARK    5  A    between atoms: C_9  and  C_10
REMARK    6  A    between atoms: N_21  and  C_22
REMARK    7  A    between atoms: C_22  and  C_23
REMARK    8  A    between atoms: C_22  and  C_27
REMARK    9  A    between atoms: N_25  and  C_26
REMARK   10  A    between atoms: C_30  and  C_31
REMARK   11  A    between atoms: C_33  and  C_34
REMARK                            x       y       z     vdW  Elec       q    Type
REMARK                         _______ _______ _______ _____ _____    ______ ____
ROOT
ATOM      1  CA  ILE A   2      -6.738   3.296 129.343  0.00  0.00    +0.000 C 
ATOM      2  C   ILE A   2      -6.474   4.412 130.385  0.00  0.00    +0.000 C 
ATOM      3  O   ILE A   2      -7.020   4.561 131.492  0.00  0.00    +0.000 OA
ATOM      4  N   UNK A   1      -5.598   5.334 130.001  0.00  0.00    +0.000 N 
ATOM      5  C   UNK A   1      -4.640   5.051 128.982  0.00  0.00    +0.000 C 
ATOM      6  C   UNK A   1      -5.341   4.543 127.716  0.00  0.00    +0.000 C 
ATOM      7  O   UNK A   1      -4.820   4.865 126.657  0.00  0.00    +0.000 OA
ATOM      8  N   ILE A   2      -6.464   3.696 127.881  0.00  0.00    +0.000 N 
ATOM      9  H   UNK A   1      -5.585   6.164 130.583  0.00  0.00    +0.000 HD
ENDROOT
BRANCH   5  10
ATOM     10  C   UNK A   1      -3.827   6.306 128.591  0.00  0.00    +0.000 C 
ATOM     11  C   UNK A   1      -2.318   6.066 128.754  0.00  0.00    +0.000 C 
ATOM     12  C   UNK A   1      -2.099   6.535 130.162  0.00  0.00    +0.000 A 
ATOM     13  C   UNK A   1      -1.100   6.146 131.034  0.00  0.00    +0.000 A 
ATOM     14  C   UNK A   1      -1.166   6.594 132.355  0.00  0.00    +0.000 A 
ATOM     15  C   UNK A   1      -2.225   7.410 132.789  0.00  0.00    +0.000 A 
ATOM     16  C   UNK A   1      -3.240   7.785 131.910  0.00  0.00    +0.000 A 
ATOM     17  C   UNK A   1      -3.159   7.345 130.599  0.00  0.00    +0.000 A 
ATOM     18  C   UNK A   1      -4.171   7.517 129.511  0.00  0.00    +0.000 C 
ENDBRANCH   5  10
BRANCH   1  19
ATOM     19  CB  ILE A   2      -8.198   2.988 129.503  0.00  0.00    +0.000 C 
ATOM     20  CG2 ILE A   2      -8.689   2.131 130.660  0.00  0.00    +0.000 C 
BRANCH  19  22
ATOM     21  CD1 ILE A   2     -10.320   4.542 130.288  0.00  0.00    +0.000 C 
ATOM     22  CG1 ILE A   2      -8.965   4.312 129.674  0.00  0.00    +0.000 C 
ENDBRANCH  19  22
ENDBRANCH   1  19
BRANCH   8  23
ATOM     23  C   UNK A   0      -7.293   3.110 126.610  0.00  0.00    +0.000 C 
BRANCH  23  24
ATOM     24  C   UNK A   0      -6.959   1.587 126.406  0.00  0.00    +0.000 A 
ATOM     25  C   UNK A   0      -5.658   1.110 126.645  0.00  0.00    +0.000 A 
ATOM     26  N   UNK A   0      -5.232  -0.160 126.632  0.00  0.00    +0.000 NA
ATOM     27  C   UNK A   0      -6.158  -1.095 126.478  0.00  0.00    +0.000 A 
ATOM     28  C   UNK A   0      -5.611  -2.476 126.522  0.00  0.00    +0.000 C 
ATOM     29  C   UNK A   0      -7.501  -0.784 126.289  0.00  0.00    +0.000 A 
ATOM     30  C   UNK A   0      -7.925   0.568 126.207  0.00  0.00    +0.000 A 
ATOM     31  C   UNK A   0      -9.408   0.848 126.130  0.00  0.00    +0.000 C 
ENDBRANCH  23  24
BRANCH  23  32
ATOM     32  C   UNK A   0      -7.227   3.830 125.021  0.00  0.00    +0.000 C 
ATOM     33  O   UNK A   0      -8.239   3.975 124.324  0.00  0.00    +0.000 OA
ATOM     34  N   UNK A   0      -6.052   4.012 124.268  0.00  0.00    +0.000 N 
ATOM     35  C   UNK A   0      -6.182   3.839 122.772  0.00  0.00    +0.000 C 
ATOM     36  H   UNK A   0      -5.179   3.684 124.646  0.00  0.00    +0.000 HD
ENDBRANCH  23  32
ENDBRANCH   8  23
TORSDOF 6
ENDMDL
MODEL 8
REMARK VINA RESULT:      -7.6      2.694      7.584
REMARK  Name = CHEMBL2037506
REMARK  11 active torsions:
REMARK  status: ('A' for Active; 'I' for Inactive)
REMARK    1  A    between atoms: CD1_1  and  CG1_2
REMARK    2  A    between atoms: CG1_2  and  CB_3
REMARK    3  A    between atoms: CB_3  and  CG2_4
REMARK    4  A    between atoms: CB_3  and  CA_5
REMARK    5  A    between atoms: C_9  and  C_10
REMARK    6  A    between atoms: N_21  and  C_22
REMARK    7  A    between atoms: C_22  and  C_23
REMARK    8  A    between atoms: C_22  and  C_27
REMARK    9  A    between atoms: N_25  and  C_26
REMARK   10  A    between atoms: C_30  and  C_31
REMARK   11  A    between atoms: C_33  and  C_34
REMARK                            x       y       z     vdW  Elec       q    Type
REMARK                         _______ _______ _______ _____ _____    ______ ____
ROOT
ATOM      1  CA  ILE A   2      -7.567   1.828 127.946  0.00  0.00    +0.000 C 
ATOM      2  C   ILE A   2      -8.456   0.957 127.023  0.00  0.00    +0.000 C 
ATOM      3  O   ILE A   2      -9.602   1.213 126.612  0.00  0.00    +0.000 OA
ATOM      4  N   UNK A   1      -7.932  -0.218 126.693  0.00  0.00    +0.000 N 
ATOM      5  C   UNK A   1      -6.522  -0.430 126.753  0.00  0.00    +0.000 C 
ATOM      6  C   UNK A   1      -5.987  -0.073 128.146  0.00  0.00    +0.000 C 
ATOM      7  O   UNK A   1      -5.051  -0.754 128.543  0.00  0.00    +0.000 OA
ATOM      8  N   ILE A   2      -6.559   1.041 128.805  0.00  0.00    +0.000 N 
ATOM      9  H   UNK A   1      -8.589  -0.865 126.273  0.00  0.00    +0.000 HD
ENDROOT
BRANCH   5  10
ATOM     10  C   UNK A   1      -6.148  -1.903 126.474  0.00  0.00    +0.000 C 
ATOM     11  C   UNK A   1      -5.552  -2.071 125.068  0.00  0.00    +0.000 C 
ATOM     12  C   UNK A   1      -6.781  -2.379 124.265  0.00  0.00    +0.000 A 
ATOM     13  C   UNK A   1      -6.983  -2.163 122.916  0.00  0.00    +0.000 A 
ATOM     14  C   UNK A   1      -8.259  -2.383 122.395  0.00  0.00    +0.000 A 
ATOM     15  C   UNK A   1      -9.314  -2.802 123.223  0.00  0.00    +0.000 A 
ATOM     16  C   UNK A   1      -9.111  -3.001 124.588  0.00  0.00    +0.000 A 
ATOM     17  C   UNK A   1      -7.839  -2.792 125.092  0.00  0.00    +0.000 A 
ATOM     18  C   UNK A   1      -7.402  -2.828 126.523  0.00  0.00    +0.000 C 
ENDBRANCH   5  10
BRANCH   1  19
ATOM     19  CB  ILE A   2      -8.548   2.519 128.848  0.00  0.00    +0.000 C 
ATOM     20  CG2 ILE A   2      -8.737   2.061 130.286  0.00  0.00    +0.000 C 
BRANCH  19  22
ATOM     21  CD1 ILE A   2      -8.647   5.031 129.950  0.00  0.00    +0.000 C 
ATOM     22  CG1 ILE A   2      -8.135   3.996 128.984  0.00  0.00    +0.000 C 
ENDBRANCH  19  22
ENDBRANCH   1  19
BRANCH   8  23
ATOM     23  C   UNK A   0      -6.080   1.502 130.291  0.00  0.00    +0.000 C 
BRANCH  23  24
ATOM     24  C   UNK A   0      -5.006   2.644 130.179  0.00  0.00    +0.000 A 
ATOM     25  C   UNK A   0      -4.159   2.711 129.058  0.00  0.00    +0.000 A 
ATOM     26  N   UNK A   0      -3.277   3.671 128.750  0.00  0.00    +0.000 NA
ATOM     27  C   UNK A   0      -3.265   4.740 129.535  0.00  0.00    +0.000 A 
ATOM     28  C   UNK A   0      -2.293   5.776 129.098  0.00  0.00    +0.000 C 
ATOM     29  C   UNK A   0      -4.087   4.849 130.651  0.00  0.00    +0.000 A 
ATOM     30  C   UNK A   0      -4.947   3.782 131.022  0.00  0.00    +0.000 A 
ATOM     31  C   UNK A   0      -5.909   4.005 132.166  0.00  0.00    +0.000 C 
ENDBRANCH  23  24
BRANCH  23  32
ATOM     32  C   UNK A   0      -5.464   0.380 131.478  0.00  0.00    +0.000 C 
ATOM     33  O   UNK A   0      -5.865   0.377 132.647  0.00  0.00    +0.000 OA
ATOM     34  N   UNK A   0      -4.284  -0.375 131.335  0.00  0.00    +0.000 N 
ATOM     35  C   UNK A   0      -3.478  -0.600 132.593  0.00  0.00    +0.000 C 
ATOM     36  H   UNK A   0      -3.728  -0.253 130.506  0.00  0.00    +0.000 HD
ENDBRANCH  23  32
ENDBRANCH   8  23
TORSDOF 6
ENDMDL
MODEL 9
REMARK VINA RESULT:      -7.6      4.032      6.837
REMARK  Name = CHEMBL2037506
REMARK  11 active torsions:
REMARK  status: ('A' for Active; 'I' for Inactive)
REMARK    1  A    between atoms: CD1_1  and  CG1_2
REMARK    2  A    between atoms: CG1_2  and  CB_3
REMARK    3  A    between atoms: CB_3  and  CG2_4
REMARK    4  A    between atoms: CB_3  and  CA_5
REMARK    5  A    between atoms: C_9  and  C_10
REMARK    6  A    between atoms: N_21  and  C_22
REMARK    7  A    between atoms: C_22  and  C_23
REMARK    8  A    between atoms: C_22  and  C_27
REMARK    9  A    between atoms: N_25  and  C_26
REMARK   10  A    between atoms: C_30  and  C_31
REMARK   11  A    between atoms: C_33  and  C_34
REMARK                            x       y       z     vdW  Elec       q    Type
REMARK                         _______ _______ _______ _____ _____    ______ ____
ROOT
ATOM      1  CA  ILE A   2      -7.175   3.814 132.076  0.00  0.00    +0.000 C 
ATOM      2  C   ILE A   2      -6.923   5.304 132.421  0.00  0.00    +0.000 C 
ATOM      3  O   ILE A   2      -7.466   5.978 133.315  0.00  0.00    +0.000 OA
ATOM      4  N   UNK A   1      -6.065   5.923 131.618  0.00  0.00    +0.000 N 
ATOM      5  C   UNK A   1      -5.109   5.182 130.862  0.00  0.00    +0.000 C 
ATOM      6  C   UNK A   1      -5.809   4.103 130.026  0.00  0.00    +0.000 C 
ATOM      7  O   UNK A   1      -5.299   3.862 128.940  0.00  0.00    +0.000 OA
ATOM      8  N   ILE A   2      -6.916   3.437 130.605  0.00  0.00    +0.000 N 
ATOM      9  H   UNK A   1      -6.063   6.932 131.710  0.00  0.00    +0.000 HD
ENDROOT
BRANCH   5  10
ATOM     10  C   UNK A   1      -4.319   6.085 129.888  0.00  0.00    +0.000 C 
ATOM     11  C   UNK A   1      -2.847   5.655 129.799  0.00  0.00    +0.000 C 
ATOM     12  C   UNK A   1      -2.228   6.508 130.868  0.00  0.00    +0.000 A 
ATOM     13  C   UNK A   1      -1.076   6.254 131.586  0.00  0.00    +0.000 A 
ATOM     14  C   UNK A   1      -0.756   7.107 132.645  0.00  0.00    +0.000 A 
ATOM     15  C   UNK A   1      -1.591   8.188 132.978  0.00  0.00    +0.000 A 
ATOM     16  C   UNK A   1      -2.763   8.429 132.261  0.00  0.00    +0.000 A 
ATOM     17  C   UNK A   1      -3.064   7.584 131.207  0.00  0.00    +0.000 A 
ATOM     18  C   UNK A   1      -4.305   7.568 130.371  0.00  0.00    +0.000 C 
ENDBRANCH   5  10
BRANCH   1  19
ATOM     19  CB  ILE A   2      -8.629   3.610 132.387  0.00  0.00    +0.000 C 
ATOM     20  CG2 ILE A   2      -9.137   3.698 133.819  0.00  0.00    +0.000 C 
BRANCH  19  22
ATOM     21  CD1 ILE A   2     -10.563   4.486 130.647  0.00  0.00    +0.000 C 
ATOM     22  CG1 ILE A   2      -9.448   4.678 131.640  0.00  0.00    +0.000 C 
ENDBRANCH  19  22
ENDBRANCH   1  19
BRANCH   8  23
ATOM     23  C   UNK A   0      -7.743   2.287 129.804  0.00  0.00    +0.000 C 
BRANCH  23  24
ATOM     24  C   UNK A   0      -7.144   0.871 130.130  0.00  0.00    +0.000 A 
ATOM     25  C   UNK A   0      -5.818   0.565 129.777  0.00  0.00    +0.000 A 
ATOM     26  N   UNK A   0      -5.120  -0.538 130.078  0.00  0.00    +0.000 NA
ATOM     27  C   UNK A   0      -5.705  -1.408 130.889  0.00  0.00    +0.000 A 
ATOM     28  C   UNK A   0      -4.848  -2.579 131.210  0.00  0.00    +0.000 C 
ATOM     29  C   UNK A   0      -6.996  -1.219 131.372  0.00  0.00    +0.000 A 
ATOM     30  C   UNK A   0      -7.761  -0.093 130.967  0.00  0.00    +0.000 A 
ATOM     31  C   UNK A   0      -9.106   0.129 131.620  0.00  0.00    +0.000 C 
ENDBRANCH  23  24
BRANCH  23  32
ATOM     32  C   UNK A   0      -7.981   2.321 128.075  0.00  0.00    +0.000 C 
ATOM     33  O   UNK A   0      -9.013   1.892 127.547  0.00  0.00    +0.000 OA
ATOM     34  N   UNK A   0      -6.960   2.519 127.126  0.00  0.00    +0.000 N 
ATOM     35  C   UNK A   0      -7.091   1.749 125.832  0.00  0.00    +0.000 C 
ATOM     36  H   UNK A   0      -6.013   2.625 127.448  0.00  0.00    +0.000 HD
ENDBRANCH  23  32
ENDBRANCH   8  23
TORSDOF 6
ENDMDL
