MODEL 1
REMARK VINA RESULT:      -9.1      0.000      0.000
REMARK  Name = CHEMBL482322
REMARK  7 active torsions:
REMARK  status: ('A' for Active; 'I' for Inactive)
REMARK    1  A    between atoms: C_2  and  C_3
REMARK    2  A    between atoms: C_6  and  C_7
REMARK    3  A    between atoms: C_12  and  C_13
REMARK    4  A    between atoms: N_19  and  C_20
REMARK    5  A    between atoms: N_19  and  C_27
REMARK    6  A    between atoms: C_20  and  C_21
REMARK    7  A    between atoms: C_27  and  C_28
REMARK                            x       y       z     vdW  Elec       q    Type
REMARK                         _______ _______ _______ _____ _____    ______ ____
ROOT
ATOM      1  O   UNL     1      -8.079   3.907 124.603  0.00  0.00    +0.000 OA
ATOM      2  C   UNL     1      -8.111   2.713 124.364  0.00  0.00    +0.000 C 
ATOM      3  N   UNL     1      -8.486   2.156 123.119  0.00  0.00    +0.000 N 
ENDROOT
BRANCH   2   4
ATOM      4  C   UNL     1      -7.714   1.872 125.513  0.00  0.00    +0.000 A 
ATOM      5  C   UNL     1      -6.496   1.223 125.694  0.00  0.00    +0.000 A 
ATOM      6  C   UNL     1      -6.397   0.248 126.677  0.00  0.00    +0.000 A 
ATOM      7  C   UNL     1      -7.426   0.091 127.615  0.00  0.00    +0.000 A 
ATOM      8  C   UNL     1      -8.551   0.913 127.551  0.00  0.00    +0.000 A 
ATOM      9  C   UNL     1      -8.714   1.759 126.485  0.00  0.00    +0.000 A 
BRANCH   7  10
ATOM     10  C   UNL     1      -7.338  -0.901 128.666  0.00  0.00    +0.000 A 
ATOM     11  N   UNL     1      -6.891  -0.403 129.848  0.00  0.00    +0.000 NA
ATOM     12  C   UNL     1      -6.852  -1.238 130.898  0.00  0.00    +0.000 A 
ATOM     13  C   UNL     1      -7.230  -2.565 130.821  0.00  0.00    +0.000 A 
ATOM     14  C   UNL     1      -7.668  -3.063 129.597  0.00  0.00    +0.000 A 
ATOM     15  C   UNL     1      -7.729  -2.226 128.481  0.00  0.00    +0.000 A 
BRANCH  15  16
ATOM     16  C   UNL     1      -8.158  -2.741 127.135  0.00  0.00    +0.000 C 
ATOM     17  F   UNL     1      -9.124  -1.992 126.533  0.00  0.00    +0.000 F 
ATOM     18  F   UNL     1      -7.130  -2.827 126.246  0.00  0.00    +0.000 F 
ATOM     19  F   UNL     1      -8.693  -3.994 127.195  0.00  0.00    +0.000 F 
ENDBRANCH  15  16
ENDBRANCH   7  10
ENDBRANCH   2   4
BRANCH   3  20
ATOM     20  C   UNL     1      -8.692   3.031 121.961  0.00  0.00    +0.000 C 
BRANCH  20  21
ATOM     21  C   UNL     1      -7.547   3.550 121.151  0.00  0.00    +0.000 A 
ATOM     22  C   UNL     1      -7.702   4.146 119.900  0.00  0.00    +0.000 A 
ATOM     23  C   UNL     1      -6.570   4.683 119.282  0.00  0.00    +0.000 A 
ATOM     24  C   UNL     1      -5.386   4.841 120.006  0.00  0.00    +0.000 A 
ATOM     25  C   UNL     1      -5.258   4.243 121.239  0.00  0.00    +0.000 A 
ATOM     26  C   UNL     1      -6.262   3.400 121.642  0.00  0.00    +0.000 A 
ENDBRANCH  20  21
ENDBRANCH   3  20
BRANCH   3  27
ATOM     27  C   UNL     1      -9.211   0.886 123.112  0.00  0.00    +0.000 C 
BRANCH  27  28
ATOM     28  C   UNL     1      -8.626  -0.456 123.613  0.00  0.00    +0.000 C 
ATOM     29  C   UNL     1      -7.406  -1.185 123.052  0.00  0.00    +0.000 C 
ATOM     30  C   UNL     1      -7.739  -2.636 123.261  0.00  0.00    +0.000 C 
ATOM     31  C   UNL     1      -9.236  -2.646 123.075  0.00  0.00    +0.000 C 
ATOM     32  O   UNL     1      -9.714  -1.405 123.587  0.00  0.00    +0.000 OA
ENDBRANCH  27  28
ENDBRANCH   3  27
TORSDOF 7
ENDMDL
MODEL 2
REMARK VINA RESULT:      -9.0      7.501      9.528
REMARK  Name = CHEMBL482322
REMARK  7 active torsions:
REMARK  status: ('A' for Active; 'I' for Inactive)
REMARK    1  A    between atoms: C_2  and  C_3
REMARK    2  A    between atoms: C_6  and  C_7
REMARK    3  A    between atoms: C_12  and  C_13
REMARK    4  A    between atoms: N_19  and  C_20
REMARK    5  A    between atoms: N_19  and  C_27
REMARK    6  A    between atoms: C_20  and  C_21
REMARK    7  A    between atoms: C_27  and  C_28
REMARK                            x       y       z     vdW  Elec       q    Type
REMARK                         _______ _______ _______ _____ _____    ______ ____
ROOT
ATOM      1  O   UNL     1      -9.795   6.439 132.955  0.00  0.00    +0.000 OA
ATOM      2  C   UNL     1      -9.386   6.002 131.894  0.00  0.00    +0.000 C 
ATOM      3  N   UNL     1     -10.215   5.589 130.824  0.00  0.00    +0.000 N 
ENDROOT
BRANCH   2   4
ATOM      4  C   UNL     1      -7.911   5.938 131.814  0.00  0.00    +0.000 A 
ATOM      5  C   UNL     1      -7.082   4.987 132.402  0.00  0.00    +0.000 A 
ATOM      6  C   UNL     1      -5.719   5.239 132.472  0.00  0.00    +0.000 A 
ATOM      7  C   UNL     1      -5.167   6.312 131.758  0.00  0.00    +0.000 A 
ATOM      8  C   UNL     1      -5.994   7.127 130.986  0.00  0.00    +0.000 A 
ATOM      9  C   UNL     1      -7.355   6.971 131.053  0.00  0.00    +0.000 A 
BRANCH   7  10
ATOM     10  C   UNL     1      -3.745   6.582 131.792  0.00  0.00    +0.000 A 
ATOM     11  N   UNL     1      -3.355   7.310 132.869  0.00  0.00    +0.000 NA
ATOM     12  C   UNL     1      -2.041   7.541 133.019  0.00  0.00    +0.000 A 
ATOM     13  C   UNL     1      -1.088   7.084 132.130  0.00  0.00    +0.000 A 
ATOM     14  C   UNL     1      -1.508   6.355 131.020  0.00  0.00    +0.000 A 
ATOM     15  C   UNL     1      -2.865   6.089 130.829  0.00  0.00    +0.000 A 
BRANCH  15  16
ATOM     16  C   UNL     1      -3.356   5.340 129.622  0.00  0.00    +0.000 C 
ATOM     17  F   UNL     1      -4.088   4.228 129.914  0.00  0.00    +0.000 F 
ATOM     18  F   UNL     1      -4.131   6.103 128.801  0.00  0.00    +0.000 F 
ATOM     19  F   UNL     1      -2.340   4.877 128.837  0.00  0.00    +0.000 F 
ENDBRANCH  15  16
ENDBRANCH   7  10
ENDBRANCH   2   4
BRANCH   3  20
ATOM     20  C   UNL     1     -11.658   5.844 130.881  0.00  0.00    +0.000 C 
BRANCH  20  21
ATOM     21  C   UNL     1     -12.305   6.905 130.049  0.00  0.00    +0.000 A 
ATOM     22  C   UNL     1     -12.270   8.260 130.374  0.00  0.00    +0.000 A 
ATOM     23  C   UNL     1     -12.824   9.168 129.468  0.00  0.00    +0.000 A 
ATOM     24  C   UNL     1     -13.164   8.752 128.179  0.00  0.00    +0.000 A 
ATOM     25  C   UNL     1     -13.192   7.409 127.884  0.00  0.00    +0.000 A 
ATOM     26  C   UNL     1     -13.009   6.527 128.919  0.00  0.00    +0.000 A 
ENDBRANCH  20  21
ENDBRANCH   3  20
BRANCH   3  27
ATOM     27  C   UNL     1      -9.786   4.459 130.004  0.00  0.00    +0.000 C 
BRANCH  27  28
ATOM     28  C   UNL     1      -9.872   2.978 130.442  0.00  0.00    +0.000 C 
ATOM     29  C   UNL     1     -10.000   2.456 131.872  0.00  0.00    +0.000 C 
ATOM     30  C   UNL     1      -9.261   1.149 131.835  0.00  0.00    +0.000 C 
ATOM     31  C   UNL     1      -8.164   1.435 130.840  0.00  0.00    +0.000 C 
ATOM     32  O   UNL     1      -8.719   2.320 129.872  0.00  0.00    +0.000 OA
ENDBRANCH  27  28
ENDBRANCH   3  27
TORSDOF 7
ENDMDL
MODEL 3
REMARK VINA RESULT:      -9.0      1.942      2.474
REMARK  Name = CHEMBL482322
REMARK  7 active torsions:
REMARK  status: ('A' for Active; 'I' for Inactive)
REMARK    1  A    between atoms: C_2  and  C_3
REMARK    2  A    between atoms: C_6  and  C_7
REMARK    3  A    between atoms: C_12  and  C_13
REMARK    4  A    between atoms: N_19  and  C_20
REMARK    5  A    between atoms: N_19  and  C_27
REMARK    6  A    between atoms: C_20  and  C_21
REMARK    7  A    between atoms: C_27  and  C_28
REMARK                            x       y       z     vdW  Elec       q    Type
REMARK                         _______ _______ _______ _____ _____    ______ ____
ROOT
ATOM      1  O   UNL     1      -4.786   3.063 125.974  0.00  0.00    +0.000 OA
ATOM      2  C   UNL     1      -5.680   2.252 125.806  0.00  0.00    +0.000 C 
ATOM      3  N   UNL     1      -6.847   2.493 125.043  0.00  0.00    +0.000 N 
ENDROOT
BRANCH   2   4
ATOM      4  C   UNL     1      -5.438   0.960 126.484  0.00  0.00    +0.000 A 
ATOM      5  C   UNL     1      -5.290  -0.286 125.881  0.00  0.00    +0.000 A 
ATOM      6  C   UNL     1      -5.362  -1.424 126.672  0.00  0.00    +0.000 A 
ATOM      7  C   UNL     1      -5.346  -1.309 128.069  0.00  0.00    +0.000 A 
ATOM      8  C   UNL     1      -5.266  -0.048 128.658  0.00  0.00    +0.000 A 
ATOM      9  C   UNL     1      -5.361   1.074 127.876  0.00  0.00    +0.000 A 
BRANCH   7  10
ATOM     10  C   UNL     1      -5.393  -2.481 128.918  0.00  0.00    +0.000 A 
ATOM     11  N   UNL     1      -4.184  -2.835 129.425  0.00  0.00    +0.000 NA
ATOM     12  C   UNL     1      -4.150  -3.865 130.285  0.00  0.00    +0.000 A 
ATOM     13  C   UNL     1      -5.275  -4.574 130.658  0.00  0.00    +0.000 A 
ATOM     14  C   UNL     1      -6.503  -4.210 130.114  0.00  0.00    +0.000 A 
ATOM     15  C   UNL     1      -6.584  -3.141 129.219  0.00  0.00    +0.000 A 
BRANCH  15  16
ATOM     16  C   UNL     1      -7.887  -2.746 128.582  0.00  0.00    +0.000 C 
ATOM     17  F   UNL     1      -8.147  -1.409 128.623  0.00  0.00    +0.000 F 
ATOM     18  F   UNL     1      -7.972  -3.113 127.273  0.00  0.00    +0.000 F 
ATOM     19  F   UNL     1      -8.967  -3.316 129.190  0.00  0.00    +0.000 F 
ENDBRANCH  15  16
ENDBRANCH   7  10
ENDBRANCH   2   4
BRANCH   3  20
ATOM     20  C   UNL     1      -6.954   3.717 124.243  0.00  0.00    +0.000 C 
BRANCH  20  21
ATOM     21  C   UNL     1      -6.360   3.820 122.874  0.00  0.00    +0.000 A 
ATOM     22  C   UNL     1      -7.019   3.398 121.720  0.00  0.00    +0.000 A 
ATOM     23  C   UNL     1      -6.406   3.636 120.488  0.00  0.00    +0.000 A 
ATOM     24  C   UNL     1      -5.303   4.490 120.408  0.00  0.00    +0.000 A 
ATOM     25  C   UNL     1      -4.670   4.891 121.562  0.00  0.00    +0.000 A 
ATOM     26  C   UNL     1      -5.077   4.321 122.741  0.00  0.00    +0.000 A 
ENDBRANCH  20  21
ENDBRANCH   3  20
BRANCH   3  27
ATOM     27  C   UNL     1      -8.104   1.889 125.479  0.00  0.00    +0.000 C 
BRANCH  27  28
ATOM     28  C   UNL     1      -8.764   0.662 124.805  0.00  0.00    +0.000 C 
ATOM     29  C   UNL     1      -8.985  -0.714 125.432  0.00  0.00    +0.000 C 
ATOM     30  C   UNL     1      -8.862  -1.653 124.266  0.00  0.00    +0.000 C 
ATOM     31  C   UNL     1      -7.829  -0.962 123.412  0.00  0.00    +0.000 C 
ATOM     32  O   UNL     1      -8.040   0.437 123.577  0.00  0.00    +0.000 OA
ENDBRANCH  27  28
ENDBRANCH   3  27
TORSDOF 7
ENDMDL
MODEL 4
REMARK VINA RESULT:      -8.6      2.114      2.687
REMARK  Name = CHEMBL482322
REMARK  7 active torsions:
REMARK  status: ('A' for Active; 'I' for Inactive)
REMARK    1  A    between atoms: C_2  and  C_3
REMARK    2  A    between atoms: C_6  and  C_7
REMARK    3  A    between atoms: C_12  and  C_13
REMARK    4  A    between atoms: N_19  and  C_20
REMARK    5  A    between atoms: N_19  and  C_27
REMARK    6  A    between atoms: C_20  and  C_21
REMARK    7  A    between atoms: C_27  and  C_28
REMARK                            x       y       z     vdW  Elec       q    Type
REMARK                         _______ _______ _______ _____ _____    ______ ____
ROOT
ATOM      1  O   UNL     1      -9.383   1.662 125.834  0.00  0.00    +0.000 OA
ATOM      2  C   UNL     1      -8.341   1.143 125.475  0.00  0.00    +0.000 C 
ATOM      3  N   UNL     1      -7.791   1.264 124.178  0.00  0.00    +0.000 N 
ENDROOT
BRANCH   2   4
ATOM      4  C   UNL     1      -7.682   0.354 126.538  0.00  0.00    +0.000 A 
ATOM      5  C   UNL     1      -6.705   0.798 127.426  0.00  0.00    +0.000 A 
ATOM      6  C   UNL     1      -5.990  -0.139 128.157  0.00  0.00    +0.000 A 
ATOM      7  C   UNL     1      -6.403  -1.478 128.175  0.00  0.00    +0.000 A 
ATOM      8  C   UNL     1      -7.530  -1.864 127.449  0.00  0.00    +0.000 A 
ATOM      9  C   UNL     1      -8.132  -0.969 126.603  0.00  0.00    +0.000 A 
BRANCH   7  10
ATOM     10  C   UNL     1      -5.691  -2.473 128.950  0.00  0.00    +0.000 A 
ATOM     11  N   UNL     1      -4.459  -2.765 128.460  0.00  0.00    +0.000 NA
ATOM     12  C   UNL     1      -3.699  -3.620 129.161  0.00  0.00    +0.000 A 
ATOM     13  C   UNL     1      -4.119  -4.214 130.336  0.00  0.00    +0.000 A 
ATOM     14  C   UNL     1      -5.392  -3.917 130.814  0.00  0.00    +0.000 A 
ATOM     15  C   UNL     1      -6.213  -3.029 130.117  0.00  0.00    +0.000 A 
BRANCH  15  16
ATOM     16  C   UNL     1      -7.608  -2.717 130.583  0.00  0.00    +0.000 C 
ATOM     17  F   UNL     1      -7.910  -1.388 130.595  0.00  0.00    +0.000 F 
ATOM     18  F   UNL     1      -8.569  -3.321 129.829  0.00  0.00    +0.000 F 
ATOM     19  F   UNL     1      -7.841  -3.126 131.864  0.00  0.00    +0.000 F 
ENDBRANCH  15  16
ENDBRANCH   7  10
ENDBRANCH   2   4
BRANCH   3  20
ATOM     20  C   UNL     1      -8.384   2.202 123.220  0.00  0.00    +0.000 C 
BRANCH  20  21
ATOM     21  C   UNL     1      -7.541   3.080 122.351  0.00  0.00    +0.000 A 
ATOM     22  C   UNL     1      -6.228   3.430 122.660  0.00  0.00    +0.000 A 
ATOM     23  C   UNL     1      -5.506   4.173 121.724  0.00  0.00    +0.000 A 
ATOM     24  C   UNL     1      -6.000   4.334 120.427  0.00  0.00    +0.000 A 
ATOM     25  C   UNL     1      -7.300   3.981 120.147  0.00  0.00    +0.000 A 
ATOM     26  C   UNL     1      -8.097   3.608 121.198  0.00  0.00    +0.000 A 
ENDBRANCH  20  21
ENDBRANCH   3  20
BRANCH   3  27
ATOM     27  C   UNL     1      -7.077   0.121 123.613  0.00  0.00    +0.000 C 
BRANCH  27  28
ATOM     28  C   UNL     1      -7.763  -1.141 123.037  0.00  0.00    +0.000 C 
ATOM     29  C   UNL     1      -9.240  -1.513 123.162  0.00  0.00    +0.000 C 
ATOM     30  C   UNL     1      -9.220  -3.015 123.205  0.00  0.00    +0.000 C 
ATOM     31  C   UNL     1      -7.928  -3.292 123.932  0.00  0.00    +0.000 C 
ATOM     32  O   UNL     1      -7.017  -2.271 123.538  0.00  0.00    +0.000 OA
ENDBRANCH  27  28
ENDBRANCH   3  27
TORSDOF 7
ENDMDL
MODEL 5
REMARK VINA RESULT:      -8.4      6.406      8.261
REMARK  Name = CHEMBL482322
REMARK  7 active torsions:
REMARK  status: ('A' for Active; 'I' for Inactive)
REMARK    1  A    between atoms: C_2  and  C_3
REMARK    2  A    between atoms: C_6  and  C_7
REMARK    3  A    between atoms: C_12  and  C_13
REMARK    4  A    between atoms: N_19  and  C_20
REMARK    5  A    between atoms: N_19  and  C_27
REMARK    6  A    between atoms: C_20  and  C_21
REMARK    7  A    between atoms: C_27  and  C_28
REMARK                            x       y       z     vdW  Elec       q    Type
REMARK                         _______ _______ _______ _____ _____    ______ ____
ROOT
ATOM      1  O   UNL     1     -11.501   3.859 129.980  0.00  0.00    +0.000 OA
ATOM      2  C   UNL     1     -10.496   4.046 130.642  0.00  0.00    +0.000 C 
ATOM      3  N   UNL     1     -10.203   5.246 131.331  0.00  0.00    +0.000 N 
ENDROOT
BRANCH   2   4
ATOM      4  C   UNL     1      -9.584   2.883 130.668  0.00  0.00    +0.000 A 
ATOM      5  C   UNL     1      -8.551   2.610 129.774  0.00  0.00    +0.000 A 
ATOM      6  C   UNL     1      -7.989   1.341 129.770  0.00  0.00    +0.000 A 
ATOM      7  C   UNL     1      -8.292   0.436 130.797  0.00  0.00    +0.000 A 
ATOM      8  C   UNL     1      -9.165   0.814 131.816  0.00  0.00    +0.000 A 
ATOM      9  C   UNL     1      -9.840   2.004 131.726  0.00  0.00    +0.000 A 
BRANCH   7  10
ATOM     10  C   UNL     1      -7.699  -0.885 130.831  0.00  0.00    +0.000 A 
ATOM     11  N   UNL     1      -8.323  -1.782 130.024  0.00  0.00    +0.000 NA
ATOM     12  C   UNL     1      -7.792  -3.011 129.936  0.00  0.00    +0.000 A 
ATOM     13  C   UNL     1      -6.662  -3.396 130.632  0.00  0.00    +0.000 A 
ATOM     14  C   UNL     1      -6.046  -2.469 131.468  0.00  0.00    +0.000 A 
ATOM     15  C   UNL     1      -6.564  -1.178 131.584  0.00  0.00    +0.000 A 
BRANCH  15  16
ATOM     16  C   UNL     1      -5.948  -0.165 132.509  0.00  0.00    +0.000 C 
ATOM     17  F   UNL     1      -5.620   1.014 131.908  0.00  0.00    +0.000 F 
ATOM     18  F   UNL     1      -6.752   0.153 133.562  0.00  0.00    +0.000 F 
ATOM     19  F   UNL     1      -4.778  -0.597 133.063  0.00  0.00    +0.000 F 
ENDBRANCH  15  16
ENDBRANCH   7  10
ENDBRANCH   2   4
BRANCH   3  20
ATOM     20  C   UNL     1     -11.220   6.299 131.426  0.00  0.00    +0.000 C 
BRANCH  20  21
ATOM     21  C   UNL     1     -11.655   7.087 130.232  0.00  0.00    +0.000 A 
ATOM     22  C   UNL     1     -10.775   7.820 129.438  0.00  0.00    +0.000 A 
ATOM     23  C   UNL     1     -11.281   8.435 128.290  0.00  0.00    +0.000 A 
ATOM     24  C   UNL     1     -12.559   8.110 127.827  0.00  0.00    +0.000 A 
ATOM     25  C   UNL     1     -13.408   7.385 128.631  0.00  0.00    +0.000 A 
ATOM     26  C   UNL     1     -13.001   7.127 129.915  0.00  0.00    +0.000 A 
ENDBRANCH  20  21
ENDBRANCH   3  20
BRANCH   3  27
ATOM     27  C   UNL     1      -8.810   5.678 131.420  0.00  0.00    +0.000 C 
BRANCH  27  28
ATOM     28  C   UNL     1      -7.859   5.325 132.588  0.00  0.00    +0.000 C 
ATOM     29  C   UNL     1      -6.856   4.173 132.631  0.00  0.00    +0.000 C 
ATOM     30  C   UNL     1      -6.830   3.786 134.083  0.00  0.00    +0.000 C 
ATOM     31  C   UNL     1      -8.254   4.051 134.505  0.00  0.00    +0.000 C 
ATOM     32  O   UNL     1      -8.692   5.183 133.759  0.00  0.00    +0.000 OA
ENDBRANCH  27  28
ENDBRANCH   3  27
TORSDOF 7
ENDMDL
MODEL 6
REMARK VINA RESULT:      -8.3      2.937      4.482
REMARK  Name = CHEMBL482322
REMARK  7 active torsions:
REMARK  status: ('A' for Active; 'I' for Inactive)
REMARK    1  A    between atoms: C_2  and  C_3
REMARK    2  A    between atoms: C_6  and  C_7
REMARK    3  A    between atoms: C_12  and  C_13
REMARK    4  A    between atoms: N_19  and  C_20
REMARK    5  A    between atoms: N_19  and  C_27
REMARK    6  A    between atoms: C_20  and  C_21
REMARK    7  A    between atoms: C_27  and  C_28
REMARK                            x       y       z     vdW  Elec       q    Type
REMARK                         _______ _______ _______ _____ _____    ______ ____
ROOT
ATOM      1  O   UNL     1      -9.869  -1.296 125.831  0.00  0.00    +0.000 OA
ATOM      2  C   UNL     1      -8.819  -1.882 125.635  0.00  0.00    +0.000 C 
ATOM      3  N   UNL     1      -8.171  -1.964 124.380  0.00  0.00    +0.000 N 
ENDROOT
BRANCH   2   4
ATOM      4  C   UNL     1      -8.264  -2.517 126.849  0.00  0.00    +0.000 A 
ATOM      5  C   UNL     1      -8.821  -3.567 127.574  0.00  0.00    +0.000 A 
ATOM      6  C   UNL     1      -8.325  -3.843 128.841  0.00  0.00    +0.000 A 
ATOM      7  C   UNL     1      -7.141  -3.234 129.278  0.00  0.00    +0.000 A 
ATOM      8  C   UNL     1      -6.470  -2.345 128.439  0.00  0.00    +0.000 A 
ATOM      9  C   UNL     1      -7.050  -1.954 127.259  0.00  0.00    +0.000 A 
BRANCH   7  10
ATOM     10  C   UNL     1      -6.587  -3.523 130.584  0.00  0.00    +0.000 A 
ATOM     11  N   UNL     1      -5.948  -4.719 130.652  0.00  0.00    +0.000 NA
ATOM     12  C   UNL     1      -5.339  -5.033 131.805  0.00  0.00    +0.000 A 
ATOM     13  C   UNL     1      -5.346  -4.205 132.912  0.00  0.00    +0.000 A 
ATOM     14  C   UNL     1      -6.022  -2.991 132.831  0.00  0.00    +0.000 A 
ATOM     15  C   UNL     1      -6.665  -2.624 131.647  0.00  0.00    +0.000 A 
BRANCH  15  16
ATOM     16  C   UNL     1      -7.438  -1.339 131.538  0.00  0.00    +0.000 C 
ATOM     17  F   UNL     1      -6.759  -0.329 130.927  0.00  0.00    +0.000 F 
ATOM     18  F   UNL     1      -8.610  -1.479 130.858  0.00  0.00    +0.000 F 
ATOM     19  F   UNL     1      -7.783  -0.825 132.754  0.00  0.00    +0.000 F 
ENDBRANCH  15  16
ENDBRANCH   7  10
ENDBRANCH   2   4
BRANCH   3  20
ATOM     20  C   UNL     1      -8.662  -1.167 123.252  0.00  0.00    +0.000 C 
BRANCH  20  21
ATOM     21  C   UNL     1      -8.405   0.303 123.153  0.00  0.00    +0.000 A 
ATOM     22  C   UNL     1      -9.394   1.234 122.842  0.00  0.00    +0.000 A 
ATOM     23  C   UNL     1      -9.057   2.589 122.877  0.00  0.00    +0.000 A 
ATOM     24  C   UNL     1      -7.850   2.995 123.450  0.00  0.00    +0.000 A 
ATOM     25  C   UNL     1      -6.889   2.056 123.747  0.00  0.00    +0.000 A 
ATOM     26  C   UNL     1      -7.115   0.766 123.340  0.00  0.00    +0.000 A 
ENDBRANCH  20  21
ENDBRANCH   3  20
BRANCH   3  27
ATOM     27  C   UNL     1      -7.451  -3.191 124.046  0.00  0.00    +0.000 C 
BRANCH  27  28
ATOM     28  C   UNL     1      -5.925  -3.384 124.216  0.00  0.00    +0.000 C 
ATOM     29  C   UNL     1      -4.826  -2.766 123.353  0.00  0.00    +0.000 C 
ATOM     30  C   UNL     1      -3.742  -3.806 123.369  0.00  0.00    +0.000 C 
ATOM     31  C   UNL     1      -4.536  -5.088 123.427  0.00  0.00    +0.000 C 
ATOM     32  O   UNL     1      -5.694  -4.809 124.208  0.00  0.00    +0.000 OA
ENDBRANCH  27  28
ENDBRANCH   3  27
TORSDOF 7
ENDMDL
MODEL 7
REMARK VINA RESULT:      -8.3      1.430      1.872
REMARK  Name = CHEMBL482322
REMARK  7 active torsions:
REMARK  status: ('A' for Active; 'I' for Inactive)
REMARK    1  A    between atoms: C_2  and  C_3
REMARK    2  A    between atoms: C_6  and  C_7
REMARK    3  A    between atoms: C_12  and  C_13
REMARK    4  A    between atoms: N_19  and  C_20
REMARK    5  A    between atoms: N_19  and  C_27
REMARK    6  A    between atoms: C_20  and  C_21
REMARK    7  A    between atoms: C_27  and  C_28
REMARK                            x       y       z     vdW  Elec       q    Type
REMARK                         _______ _______ _______ _____ _____    ______ ____
ROOT
ATOM      1  O   UNL     1      -8.829   3.314 125.523  0.00  0.00    +0.000 OA
ATOM      2  C   UNL     1      -8.255   2.253 125.354  0.00  0.00    +0.000 C 
ATOM      3  N   UNL     1      -8.162   1.582 124.112  0.00  0.00    +0.000 N 
ENDROOT
BRANCH   2   4
ATOM      4  C   UNL     1      -7.648   1.709 126.588  0.00  0.00    +0.000 A 
ATOM      5  C   UNL     1      -6.299   1.451 126.813  0.00  0.00    +0.000 A 
ATOM      6  C   UNL     1      -5.940   0.675 127.907  0.00  0.00    +0.000 A 
ATOM      7  C   UNL     1      -6.891   0.362 128.887  0.00  0.00    +0.000 A 
ATOM      8  C   UNL     1      -8.200   0.825 128.754  0.00  0.00    +0.000 A 
ATOM      9  C   UNL     1      -8.584   1.450 127.595  0.00  0.00    +0.000 A 
BRANCH   7  10
ATOM     10  C   UNL     1      -6.538  -0.423 130.051  0.00  0.00    +0.000 A 
ATOM     11  N   UNL     1      -6.101   0.322 131.099  0.00  0.00    +0.000 NA
ATOM     12  C   UNL     1      -5.825  -0.319 132.244  0.00  0.00    +0.000 A 
ATOM     13  C   UNL     1      -5.955  -1.687 132.393  0.00  0.00    +0.000 A 
ATOM     14  C   UNL     1      -6.386  -2.438 131.304  0.00  0.00    +0.000 A 
ATOM     15  C   UNL     1      -6.688  -1.809 130.095  0.00  0.00    +0.000 A 
BRANCH  15  16
ATOM     16  C   UNL     1      -7.118  -2.593 128.886  0.00  0.00    +0.000 C 
ATOM     17  F   UNL     1      -8.318  -2.208 128.367  0.00  0.00    +0.000 F 
ATOM     18  F   UNL     1      -6.220  -2.529 127.863  0.00  0.00    +0.000 F 
ATOM     19  F   UNL     1      -7.276  -3.923 129.148  0.00  0.00    +0.000 F 
ENDBRANCH  15  16
ENDBRANCH   7  10
ENDBRANCH   2   4
BRANCH   3  20
ATOM     20  C   UNL     1      -8.618   2.248 122.888  0.00  0.00    +0.000 C 
BRANCH  20  21
ATOM     21  C   UNL     1      -7.705   3.101 122.067  0.00  0.00    +0.000 A 
ATOM     22  C   UNL     1      -6.366   3.318 122.388  0.00  0.00    +0.000 A 
ATOM     23  C   UNL     1      -5.585   4.051 121.491  0.00  0.00    +0.000 A 
ATOM     24  C   UNL     1      -6.066   4.330 120.209  0.00  0.00    +0.000 A 
ATOM     25  C   UNL     1      -7.391   4.106 119.918  0.00  0.00    +0.000 A 
ATOM     26  C   UNL     1      -8.216   3.740 120.951  0.00  0.00    +0.000 A 
ENDBRANCH  20  21
ENDBRANCH   3  20
BRANCH   3  27
ATOM     27  C   UNL     1      -8.183   0.121 124.105  0.00  0.00    +0.000 C 
BRANCH  27  28
ATOM     28  C   UNL     1      -6.923  -0.771 123.991  0.00  0.00    +0.000 C 
ATOM     29  C   UNL     1      -6.430  -1.497 122.740  0.00  0.00    +0.000 C 
ATOM     30  C   UNL     1      -5.785  -2.738 123.288  0.00  0.00    +0.000 C 
ATOM     31  C   UNL     1      -6.644  -3.035 124.492  0.00  0.00    +0.000 C 
ATOM     32  O   UNL     1      -7.044  -1.775 125.022  0.00  0.00    +0.000 OA
ENDBRANCH  27  28
ENDBRANCH   3  27
TORSDOF 7
ENDMDL
MODEL 8
REMARK VINA RESULT:      -8.2      6.319      8.062
REMARK  Name = CHEMBL482322
REMARK  7 active torsions:
REMARK  status: ('A' for Active; 'I' for Inactive)
REMARK    1  A    between atoms: C_2  and  C_3
REMARK    2  A    between atoms: C_6  and  C_7
REMARK    3  A    between atoms: C_12  and  C_13
REMARK    4  A    between atoms: N_19  and  C_20
REMARK    5  A    between atoms: N_19  and  C_27
REMARK    6  A    between atoms: C_20  and  C_21
REMARK    7  A    between atoms: C_27  and  C_28
REMARK                            x       y       z     vdW  Elec       q    Type
REMARK                         _______ _______ _______ _____ _____    ______ ____
ROOT
ATOM      1  O   UNL     1     -11.400   4.238 129.925  0.00  0.00    +0.000 OA
ATOM      2  C   UNL     1     -10.501   4.159 130.743  0.00  0.00    +0.000 C 
ATOM      3  N   UNL     1     -10.087   5.220 131.583  0.00  0.00    +0.000 N 
ENDROOT
BRANCH   2   4
ATOM      4  C   UNL     1      -9.859   2.828 130.786  0.00  0.00    +0.000 A 
ATOM      5  C   UNL     1      -9.914   1.906 131.829  0.00  0.00    +0.000 A 
ATOM      6  C   UNL     1      -9.024   0.841 131.827  0.00  0.00    +0.000 A 
ATOM      7  C   UNL     1      -8.254   0.572 130.687  0.00  0.00    +0.000 A 
ATOM      8  C   UNL     1      -8.381   1.384 129.560  0.00  0.00    +0.000 A 
ATOM      9  C   UNL     1      -9.138   2.526 129.627  0.00  0.00    +0.000 A 
BRANCH   7  10
ATOM     10  C   UNL     1      -7.337  -0.548 130.649  0.00  0.00    +0.000 A 
ATOM     11  N   UNL     1      -7.946  -1.742 130.432  0.00  0.00    +0.000 NA
ATOM     12  C   UNL     1      -7.161  -2.823 130.305  0.00  0.00    +0.000 A 
ATOM     13  C   UNL     1      -5.784  -2.772 130.396  0.00  0.00    +0.000 A 
ATOM     14  C   UNL     1      -5.178  -1.541 130.637  0.00  0.00    +0.000 A 
ATOM     15  C   UNL     1      -5.957  -0.391 130.771  0.00  0.00    +0.000 A 
BRANCH  15  16
ATOM     16  C   UNL     1      -5.340   0.946 131.072  0.00  0.00    +0.000 C 
ATOM     17  F   UNL     1      -4.054   0.880 131.519  0.00  0.00    +0.000 F 
ATOM     18  F   UNL     1      -5.329   1.782 129.997  0.00  0.00    +0.000 F 
ATOM     19  F   UNL     1      -6.001   1.625 132.054  0.00  0.00    +0.000 F 
ENDBRANCH  15  16
ENDBRANCH   7  10
ENDBRANCH   2   4
BRANCH   3  20
ATOM     20  C   UNL     1     -10.871   6.458 131.632  0.00  0.00    +0.000 C 
BRANCH  20  21
ATOM     21  C   UNL     1     -11.137   7.274 130.407  0.00  0.00    +0.000 A 
ATOM     22  C   UNL     1     -10.143   7.640 129.502  0.00  0.00    +0.000 A 
ATOM     23  C   UNL     1     -10.526   8.317 128.342  0.00  0.00    +0.000 A 
ATOM     24  C   UNL     1     -11.876   8.392 127.988  0.00  0.00    +0.000 A 
ATOM     25  C   UNL     1     -12.838   8.025 128.901  0.00  0.00    +0.000 A 
ATOM     26  C   UNL     1     -12.424   7.724 130.173  0.00  0.00    +0.000 A 
ENDBRANCH  20  21
ENDBRANCH   3  20
BRANCH   3  27
ATOM     27  C   UNL     1      -8.669   5.334 131.917  0.00  0.00    +0.000 C 
BRANCH  27  28
ATOM     28  C   UNL     1      -7.551   5.636 130.891  0.00  0.00    +0.000 C 
ATOM     29  C   UNL     1      -6.319   4.778 130.606  0.00  0.00    +0.000 C 
ATOM     30  C   UNL     1      -5.268   5.787 130.240  0.00  0.00    +0.000 C 
ATOM     31  C   UNL     1      -5.640   6.961 131.110  0.00  0.00    +0.000 C 
ATOM     32  O   UNL     1      -7.061   6.958 131.205  0.00  0.00    +0.000 OA
ENDBRANCH  27  28
ENDBRANCH   3  27
TORSDOF 7
ENDMDL
MODEL 9
REMARK VINA RESULT:      -8.1      4.815      7.083
REMARK  Name = CHEMBL482322
REMARK  7 active torsions:
REMARK  status: ('A' for Active; 'I' for Inactive)
REMARK    1  A    between atoms: C_2  and  C_3
REMARK    2  A    between atoms: C_6  and  C_7
REMARK    3  A    between atoms: C_12  and  C_13
REMARK    4  A    between atoms: N_19  and  C_20
REMARK    5  A    between atoms: N_19  and  C_27
REMARK    6  A    between atoms: C_20  and  C_21
REMARK    7  A    between atoms: C_27  and  C_28
REMARK                            x       y       z     vdW  Elec       q    Type
REMARK                         _______ _______ _______ _____ _____    ______ ____
ROOT
ATOM      1  O   UNL     1      -6.033   1.768 127.591  0.00  0.00    +0.000 OA
ATOM      2  C   UNL     1      -7.240   1.668 127.459  0.00  0.00    +0.000 C 
ATOM      3  N   UNL     1      -7.875   0.841 126.503  0.00  0.00    +0.000 N 
ENDROOT
BRANCH   2   4
ATOM      4  C   UNL     1      -8.007   2.504 128.407  0.00  0.00    +0.000 A 
ATOM      5  C   UNL     1      -8.818   2.060 129.448  0.00  0.00    +0.000 A 
ATOM      6  C   UNL     1      -9.687   2.960 130.049  0.00  0.00    +0.000 A 
ATOM      7  C   UNL     1      -9.579   4.330 129.773  0.00  0.00    +0.000 A 
ATOM      8  C   UNL     1      -8.602   4.783 128.887  0.00  0.00    +0.000 A 
ATOM      9  C   UNL     1      -7.857   3.876 128.176  0.00  0.00    +0.000 A 
BRANCH   7  10
ATOM     10  C   UNL     1     -10.456   5.293 130.405  0.00  0.00    +0.000 A 
ATOM     11  N   UNL     1     -11.488   5.690 129.616  0.00  0.00    +0.000 NA
ATOM     12  C   UNL     1     -12.393   6.524 130.151  0.00  0.00    +0.000 A 
ATOM     13  C   UNL     1     -12.311   6.996 131.447  0.00  0.00    +0.000 A 
ATOM     14  C   UNL     1     -11.237   6.593 132.236  0.00  0.00    +0.000 A 
ATOM     15  C   UNL     1     -10.275   5.722 131.719  0.00  0.00    +0.000 A 
BRANCH  15  16
ATOM     16  C   UNL     1      -9.082   5.299 132.529  0.00  0.00    +0.000 C 
ATOM     17  F   UNL     1      -8.859   6.062 133.636  0.00  0.00    +0.000 F 
ATOM     18  F   UNL     1      -9.161   4.010 132.961  0.00  0.00    +0.000 F 
ATOM     19  F   UNL     1      -7.914   5.376 131.828  0.00  0.00    +0.000 F 
ENDBRANCH  15  16
ENDBRANCH   7  10
ENDBRANCH   2   4
BRANCH   3  20
ATOM     20  C   UNL     1      -7.079  -0.105 125.714  0.00  0.00    +0.000 C 
BRANCH  20  21
ATOM     21  C   UNL     1      -7.707  -1.249 124.984  0.00  0.00    +0.000 A 
ATOM     22  C   UNL     1      -8.559  -2.169 125.593  0.00  0.00    +0.000 A 
ATOM     23  C   UNL     1      -9.166  -3.136 124.788  0.00  0.00    +0.000 A 
ATOM     24  C   UNL     1      -9.118  -3.020 123.396  0.00  0.00    +0.000 A 
ATOM     25  C   UNL     1      -8.268  -2.104 122.820  0.00  0.00    +0.000 A 
ATOM     26  C   UNL     1      -7.403  -1.433 123.647  0.00  0.00    +0.000 A 
ENDBRANCH  20  21
ENDBRANCH   3  20
BRANCH   3  27
ATOM     27  C   UNL     1      -9.124   1.302 125.900  0.00  0.00    +0.000 C 
BRANCH  27  28
ATOM     28  C   UNL     1      -9.208   2.181 124.629  0.00  0.00    +0.000 C 
ATOM     29  C   UNL     1      -9.218   1.693 123.182  0.00  0.00    +0.000 C 
ATOM     30  C   UNL     1      -8.520   2.795 122.436  0.00  0.00    +0.000 C 
ATOM     31  C   UNL     1      -7.513   3.274 123.452  0.00  0.00    +0.000 C 
ATOM     32  O   UNL     1      -8.132   3.138 124.728  0.00  0.00    +0.000 OA
ENDBRANCH  27  28
ENDBRANCH   3  27
TORSDOF 7
ENDMDL
