MODEL 1
REMARK VINA RESULT:      -8.0      0.000      0.000
REMARK  Name = CHEMBL1093744
REMARK  8 active torsions:
REMARK  status: ('A' for Active; 'I' for Inactive)
REMARK    1  A    between atoms: C_1  and  C_2
REMARK    2  A    between atoms: C_2  and  N_3
REMARK    3  A    between atoms: N_3  and  C_20
REMARK    4  A    between atoms: C_8  and  O_9
REMARK    5  A    between atoms: O_9  and  C_10
REMARK    6  A    between atoms: C_17  and  C_18
REMARK    7  A    between atoms: C_23  and  O_24
REMARK    8  A    between atoms: O_24  and  C_25
REMARK                            x       y       z     vdW  Elec       q    Type
REMARK                         _______ _______ _______ _____ _____    ______ ____
ROOT
ATOM      1  N   UNL     1      -6.433   3.703 126.339  0.00  0.00    +0.000 N 
ATOM      2  C   UNL     1      -7.603   4.217 127.009  0.00  0.00    +0.000 C 
ATOM      3  O   UNL     1      -8.558   4.686 126.368  0.00  0.00    +0.000 OA
ATOM      4  N   UNL     1      -7.718   4.011 128.399  0.00  0.00    +0.000 N 
ATOM      5  C   UNL     1      -8.887   4.025 129.295  0.00  0.00    +0.000 C 
ATOM      6  C   UNL     1      -8.152   5.042 130.222  0.00  0.00    +0.000 C 
ATOM      7  C   UNL     1      -6.924   4.604 129.476  0.00  0.00    +0.000 C 
ENDROOT
BRANCH   1   8
ATOM      8  C   UNL     1      -6.346   3.713 124.865  0.00  0.00    +0.000 A 
ATOM      9  C   UNL     1      -6.883   2.657 124.106  0.00  0.00    +0.000 A 
ATOM     10  C   UNL     1      -6.737   2.586 122.714  0.00  0.00    +0.000 A 
ATOM     11  C   UNL     1      -5.943   3.518 122.079  0.00  0.00    +0.000 A 
ATOM     12  N   UNL     1      -5.423   4.566 122.760  0.00  0.00    +0.000 NA
ATOM     13  C   UNL     1      -5.676   4.670 124.112  0.00  0.00    +0.000 A 
BRANCH  11  14
ATOM     14  O   UNL     1      -5.604   3.467 120.750  0.00  0.00    +0.000 OA
ATOM     15  C   UNL     1      -5.687   4.683 120.006  0.00  0.00    +0.000 C 
ENDBRANCH  11  14
ENDBRANCH   1   8
BRANCH   1  17
ATOM     16  C   UNL     1      -4.059   3.815 127.261  0.00  0.00    +0.000 C 
ATOM     17  C   UNL     1      -5.249   2.993 126.925  0.00  0.00    +0.000 C 
ENDBRANCH   1  17
BRANCH   6  18
ATOM     18  O   UNL     1      -8.445   6.463 130.166  0.00  0.00    +0.000 OA
BRANCH  18  19
ATOM     19  C   UNL     1      -9.773   6.847 130.033  0.00  0.00    +0.000 A 
ATOM     20  C   UNL     1     -10.085   7.497 128.834  0.00  0.00    +0.000 A 
ATOM     21  C   UNL     1     -11.346   8.070 128.657  0.00  0.00    +0.000 A 
ATOM     22  F   UNL     1     -11.626   8.710 127.515  0.00  0.00    +0.000 F 
ATOM     23  C   UNL     1     -12.315   8.009 129.642  0.00  0.00    +0.000 A 
ATOM     24  C   UNL     1     -12.014   7.354 130.819  0.00  0.00    +0.000 A 
ATOM     25  F   UNL     1     -12.955   7.289 131.774  0.00  0.00    +0.000 F 
ATOM     26  C   UNL     1     -10.758   6.775 131.044  0.00  0.00    +0.000 A 
ATOM     27  C   UNL     1     -10.606   6.121 132.374  0.00  0.00    +0.000 C 
ENDBRANCH  18  19
ENDBRANCH   6  18
TORSDOF 5
ENDMDL
MODEL 2
REMARK VINA RESULT:      -7.9      2.825      3.797
REMARK  Name = CHEMBL1093744
REMARK  8 active torsions:
REMARK  status: ('A' for Active; 'I' for Inactive)
REMARK    1  A    between atoms: C_1  and  C_2
REMARK    2  A    between atoms: C_2  and  N_3
REMARK    3  A    between atoms: N_3  and  C_20
REMARK    4  A    between atoms: C_8  and  O_9
REMARK    5  A    between atoms: O_9  and  C_10
REMARK    6  A    between atoms: C_17  and  C_18
REMARK    7  A    between atoms: C_23  and  O_24
REMARK    8  A    between atoms: O_24  and  C_25
REMARK                            x       y       z     vdW  Elec       q    Type
REMARK                         _______ _______ _______ _____ _____    ______ ____
ROOT
ATOM      1  N   UNL     1      -6.649   1.541 127.261  0.00  0.00    +0.000 N 
ATOM      2  C   UNL     1      -7.913   2.096 127.681  0.00  0.00    +0.000 C 
ATOM      3  O   UNL     1      -8.986   1.685 127.209  0.00  0.00    +0.000 OA
ATOM      4  N   UNL     1      -7.917   2.990 128.771  0.00  0.00    +0.000 N 
ATOM      5  C   UNL     1      -8.993   3.407 129.688  0.00  0.00    +0.000 C 
ATOM      6  C   UNL     1      -8.665   4.901 129.377  0.00  0.00    +0.000 C 
ATOM      7  C   UNL     1      -7.377   4.348 128.837  0.00  0.00    +0.000 C 
ENDROOT
BRANCH   1   8
ATOM      8  C   UNL     1      -6.600   0.458 126.260  0.00  0.00    +0.000 A 
ATOM      9  C   UNL     1      -6.153  -0.829 126.615  0.00  0.00    +0.000 A 
ATOM     10  C   UNL     1      -6.003  -1.856 125.672  0.00  0.00    +0.000 A 
ATOM     11  C   UNL     1      -6.190  -1.567 124.337  0.00  0.00    +0.000 A 
ATOM     12  N   UNL     1      -6.642  -0.352 123.946  0.00  0.00    +0.000 NA
ATOM     13  C   UNL     1      -6.886   0.606 124.908  0.00  0.00    +0.000 A 
BRANCH  11  14
ATOM     14  O   UNL     1      -5.930  -2.444 123.313  0.00  0.00    +0.000 OA
ATOM     15  C   UNL     1      -4.772  -3.270 123.438  0.00  0.00    +0.000 C 
ENDBRANCH  11  14
ENDBRANCH   1   8
BRANCH   1  17
ATOM     16  C   UNL     1      -4.304   2.469 126.886  0.00  0.00    +0.000 C 
ATOM     17  C   UNL     1      -5.276   1.816 127.799  0.00  0.00    +0.000 C 
ENDBRANCH   1  17
BRANCH   6  18
ATOM     18  O   UNL     1      -9.460   5.668 128.436  0.00  0.00    +0.000 OA
BRANCH  18  19
ATOM     19  C   UNL     1     -10.388   6.565 128.951  0.00  0.00    +0.000 A 
ATOM     20  C   UNL     1     -10.732   6.357 130.291  0.00  0.00    +0.000 A 
ATOM     21  C   UNL     1     -11.770   7.092 130.868  0.00  0.00    +0.000 A 
ATOM     22  F   UNL     1     -12.106   6.869 132.145  0.00  0.00    +0.000 F 
ATOM     23  C   UNL     1     -12.476   8.038 130.147  0.00  0.00    +0.000 A 
ATOM     24  C   UNL     1     -12.127   8.255 128.830  0.00  0.00    +0.000 A 
ATOM     25  F   UNL     1     -12.807   9.177 128.131  0.00  0.00    +0.000 F 
ATOM     26  C   UNL     1     -11.100   7.533 128.207  0.00  0.00    +0.000 A 
ATOM     27  C   UNL     1     -10.869   7.890 126.780  0.00  0.00    +0.000 C 
ENDBRANCH  18  19
ENDBRANCH   6  18
TORSDOF 5
ENDMDL
MODEL 3
REMARK VINA RESULT:      -7.9      5.073      9.133
REMARK  Name = CHEMBL1093744
REMARK  8 active torsions:
REMARK  status: ('A' for Active; 'I' for Inactive)
REMARK    1  A    between atoms: C_1  and  C_2
REMARK    2  A    between atoms: C_2  and  N_3
REMARK    3  A    between atoms: N_3  and  C_20
REMARK    4  A    between atoms: C_8  and  O_9
REMARK    5  A    between atoms: O_9  and  C_10
REMARK    6  A    between atoms: C_17  and  C_18
REMARK    7  A    between atoms: C_23  and  O_24
REMARK    8  A    between atoms: O_24  and  C_25
REMARK                            x       y       z     vdW  Elec       q    Type
REMARK                         _______ _______ _______ _____ _____    ______ ____
ROOT
ATOM      1  N   UNL     1      -9.006   3.472 130.190  0.00  0.00    +0.000 N 
ATOM      2  C   UNL     1      -8.494   3.013 128.922  0.00  0.00    +0.000 C 
ATOM      3  O   UNL     1      -8.662   3.673 127.882  0.00  0.00    +0.000 OA
ATOM      4  N   UNL     1      -7.642   1.890 128.914  0.00  0.00    +0.000 N 
ATOM      5  C   UNL     1      -6.658   1.416 127.926  0.00  0.00    +0.000 C 
ATOM      6  C   UNL     1      -7.341   0.013 127.933  0.00  0.00    +0.000 C 
ATOM      7  C   UNL     1      -7.973   0.495 129.208  0.00  0.00    +0.000 C 
ENDROOT
BRANCH   1   8
ATOM      8  C   UNL     1      -9.739   4.749 130.287  0.00  0.00    +0.000 A 
ATOM      9  C   UNL     1     -11.145   4.771 130.315  0.00  0.00    +0.000 A 
ATOM     10  C   UNL     1     -11.875   5.968 130.311  0.00  0.00    +0.000 A 
ATOM     11  C   UNL     1     -11.199   7.160 130.160  0.00  0.00    +0.000 A 
ATOM     12  N   UNL     1      -9.846   7.195 130.153  0.00  0.00    +0.000 NA
ATOM     13  C   UNL     1      -9.152   6.009 130.269  0.00  0.00    +0.000 A 
BRANCH  11  14
ATOM     14  O   UNL     1     -11.810   8.379 129.994  0.00  0.00    +0.000 OA
ATOM     15  C   UNL     1     -12.222   8.729 128.672  0.00  0.00    +0.000 C 
ENDBRANCH  11  14
ENDBRANCH   1   8
BRANCH   1  17
ATOM     16  C   UNL     1      -9.816   1.918 132.043  0.00  0.00    +0.000 C 
ATOM     17  C   UNL     1      -8.800   2.885 131.555  0.00  0.00    +0.000 C 
ENDBRANCH   1  17
BRANCH   6  18
ATOM     18  O   UNL     1      -8.266  -0.382 126.886  0.00  0.00    +0.000 OA
BRANCH  18  19
ATOM     19  C   UNL     1      -7.832  -1.321 125.958  0.00  0.00    +0.000 A 
ATOM     20  C   UNL     1      -7.172  -0.791 124.844  0.00  0.00    +0.000 A 
ATOM     21  C   UNL     1      -6.835  -1.620 123.771  0.00  0.00    +0.000 A 
ATOM     22  F   UNL     1      -6.224  -1.098 122.700  0.00  0.00    +0.000 F 
ATOM     23  C   UNL     1      -7.132  -2.971 123.778  0.00  0.00    +0.000 A 
ATOM     24  C   UNL     1      -7.769  -3.497 124.883  0.00  0.00    +0.000 A 
ATOM     25  F   UNL     1      -8.053  -4.809 124.894  0.00  0.00    +0.000 F 
ATOM     26  C   UNL     1      -8.136  -2.700 125.976  0.00  0.00    +0.000 A 
ATOM     27  C   UNL     1      -8.825  -3.434 127.074  0.00  0.00    +0.000 C 
ENDBRANCH  18  19
ENDBRANCH   6  18
TORSDOF 5
ENDMDL
MODEL 4
REMARK VINA RESULT:      -7.8      5.653      6.996
REMARK  Name = CHEMBL1093744
REMARK  8 active torsions:
REMARK  status: ('A' for Active; 'I' for Inactive)
REMARK    1  A    between atoms: C_1  and  C_2
REMARK    2  A    between atoms: C_2  and  N_3
REMARK    3  A    between atoms: N_3  and  C_20
REMARK    4  A    between atoms: C_8  and  O_9
REMARK    5  A    between atoms: O_9  and  C_10
REMARK    6  A    between atoms: C_17  and  C_18
REMARK    7  A    between atoms: C_23  and  O_24
REMARK    8  A    between atoms: O_24  and  C_25
REMARK                            x       y       z     vdW  Elec       q    Type
REMARK                         _______ _______ _______ _____ _____    ______ ____
ROOT
ATOM      1  N   UNL     1      -6.307   3.043 123.855  0.00  0.00    +0.000 N 
ATOM      2  C   UNL     1      -6.468   1.756 124.488  0.00  0.00    +0.000 C 
ATOM      3  O   UNL     1      -7.055   0.824 123.913  0.00  0.00    +0.000 OA
ATOM      4  N   UNL     1      -5.788   1.520 125.700  0.00  0.00    +0.000 N 
ATOM      5  C   UNL     1      -5.404   0.270 126.378  0.00  0.00    +0.000 C 
ATOM      6  C   UNL     1      -6.092   0.777 127.682  0.00  0.00    +0.000 C 
ATOM      7  C   UNL     1      -6.033   2.120 127.012  0.00  0.00    +0.000 C 
ENDROOT
BRANCH   1   8
ATOM      8  C   UNL     1      -6.830   3.283 122.497  0.00  0.00    +0.000 A 
ATOM      9  C   UNL     1      -5.972   3.685 121.456  0.00  0.00    +0.000 A 
ATOM     10  C   UNL     1      -6.447   4.012 120.179  0.00  0.00    +0.000 A 
ATOM     11  C   UNL     1      -7.808   4.054 119.965  0.00  0.00    +0.000 A 
ATOM     12  N   UNL     1      -8.675   3.655 120.925  0.00  0.00    +0.000 NA
ATOM     13  C   UNL     1      -8.172   3.232 122.137  0.00  0.00    +0.000 A 
BRANCH  11  14
ATOM     14  O   UNL     1      -8.395   4.503 118.807  0.00  0.00    +0.000 OA
ATOM     15  C   UNL     1      -9.822   4.494 118.750  0.00  0.00    +0.000 C 
ENDBRANCH  11  14
ENDBRANCH   1   8
BRANCH   1  17
ATOM     16  C   UNL     1      -6.267   5.260 125.114  0.00  0.00    +0.000 C 
ATOM     17  C   UNL     1      -5.531   4.234 124.333  0.00  0.00    +0.000 C 
ENDBRANCH   1  17
BRANCH   6  18
ATOM     18  O   UNL     1      -7.419   0.325 128.062  0.00  0.00    +0.000 OA
BRANCH  18  19
ATOM     19  C   UNL     1      -7.573  -1.010 128.413  0.00  0.00    +0.000 A 
ATOM     20  C   UNL     1      -7.995  -1.851 127.376  0.00  0.00    +0.000 A 
ATOM     21  C   UNL     1      -8.338  -3.177 127.647  0.00  0.00    +0.000 A 
ATOM     22  F   UNL     1      -8.762  -3.966 126.652  0.00  0.00    +0.000 F 
ATOM     23  C   UNL     1      -8.268  -3.697 128.927  0.00  0.00    +0.000 A 
ATOM     24  C   UNL     1      -7.838  -2.873 129.947  0.00  0.00    +0.000 A 
ATOM     25  F   UNL     1      -7.764  -3.378 131.189  0.00  0.00    +0.000 F 
ATOM     26  C   UNL     1      -7.495  -1.533 129.723  0.00  0.00    +0.000 A 
ATOM     27  C   UNL     1      -7.064  -0.792 130.941  0.00  0.00    +0.000 C 
ENDBRANCH  18  19
ENDBRANCH   6  18
TORSDOF 5
ENDMDL
MODEL 5
REMARK VINA RESULT:      -7.8      4.752      5.911
REMARK  Name = CHEMBL1093744
REMARK  8 active torsions:
REMARK  status: ('A' for Active; 'I' for Inactive)
REMARK    1  A    between atoms: C_1  and  C_2
REMARK    2  A    between atoms: C_2  and  N_3
REMARK    3  A    between atoms: N_3  and  C_20
REMARK    4  A    between atoms: C_8  and  O_9
REMARK    5  A    between atoms: O_9  and  C_10
REMARK    6  A    between atoms: C_17  and  C_18
REMARK    7  A    between atoms: C_23  and  O_24
REMARK    8  A    between atoms: O_24  and  C_25
REMARK                            x       y       z     vdW  Elec       q    Type
REMARK                         _______ _______ _______ _____ _____    ______ ____
ROOT
ATOM      1  N   UNL     1      -7.007   2.679 123.818  0.00  0.00    +0.000 N 
ATOM      2  C   UNL     1      -6.403   3.524 124.819  0.00  0.00    +0.000 C 
ATOM      3  O   UNL     1      -5.893   4.617 124.519  0.00  0.00    +0.000 OA
ATOM      4  N   UNL     1      -6.562   3.169 126.175  0.00  0.00    +0.000 N 
ATOM      5  C   UNL     1      -6.450   3.961 127.412  0.00  0.00    +0.000 C 
ATOM      6  C   UNL     1      -5.455   2.905 127.986  0.00  0.00    +0.000 C 
ATOM      7  C   UNL     1      -5.989   2.028 126.890  0.00  0.00    +0.000 C 
ENDROOT
BRANCH   1   8
ATOM      8  C   UNL     1      -7.044   3.099 122.404  0.00  0.00    +0.000 A 
ATOM      9  C   UNL     1      -5.853   3.354 121.698  0.00  0.00    +0.000 A 
ATOM     10  C   UNL     1      -5.852   3.844 120.385  0.00  0.00    +0.000 A 
ATOM     11  C   UNL     1      -7.052   4.197 119.804  0.00  0.00    +0.000 A 
ATOM     12  N   UNL     1      -8.226   3.950 120.432  0.00  0.00    +0.000 NA
ATOM     13  C   UNL     1      -8.200   3.364 121.680  0.00  0.00    +0.000 A 
BRANCH  11  14
ATOM     14  O   UNL     1      -7.167   4.823 118.588  0.00  0.00    +0.000 OA
ATOM     15  C   UNL     1      -6.118   5.714 118.208  0.00  0.00    +0.000 C 
ENDBRANCH  11  14
ENDBRANCH   1   8
BRANCH   1  17
ATOM     16  C   UNL     1      -7.038   0.130 123.787  0.00  0.00    +0.000 C 
ATOM     17  C   UNL     1      -7.772   1.403 124.003  0.00  0.00    +0.000 C 
ENDBRANCH   1  17
BRANCH   6  18
ATOM     18  O   UNL     1      -4.021   3.129 127.965  0.00  0.00    +0.000 OA
BRANCH  18  19
ATOM     19  C   UNL     1      -3.522   4.204 128.689  0.00  0.00    +0.000 A 
ATOM     20  C   UNL     1      -2.985   5.240 127.917  0.00  0.00    +0.000 A 
ATOM     21  C   UNL     1      -2.311   6.296 128.536  0.00  0.00    +0.000 A 
ATOM     22  F   UNL     1      -1.782   7.271 127.786  0.00  0.00    +0.000 F 
ATOM     23  C   UNL     1      -2.160   6.354 129.909  0.00  0.00    +0.000 A 
ATOM     24  C   UNL     1      -2.702   5.340 130.672  0.00  0.00    +0.000 A 
ATOM     25  F   UNL     1      -2.561   5.398 132.006  0.00  0.00    +0.000 F 
ATOM     26  C   UNL     1      -3.376   4.256 130.094  0.00  0.00    +0.000 A 
ATOM     27  C   UNL     1      -3.884   3.251 131.068  0.00  0.00    +0.000 C 
ENDBRANCH  18  19
ENDBRANCH   6  18
TORSDOF 5
ENDMDL
MODEL 6
REMARK VINA RESULT:      -7.8      4.392      7.182
REMARK  Name = CHEMBL1093744
REMARK  8 active torsions:
REMARK  status: ('A' for Active; 'I' for Inactive)
REMARK    1  A    between atoms: C_1  and  C_2
REMARK    2  A    between atoms: C_2  and  N_3
REMARK    3  A    between atoms: N_3  and  C_20
REMARK    4  A    between atoms: C_8  and  O_9
REMARK    5  A    between atoms: O_9  and  C_10
REMARK    6  A    between atoms: C_17  and  C_18
REMARK    7  A    between atoms: C_23  and  O_24
REMARK    8  A    between atoms: O_24  and  C_25
REMARK                            x       y       z     vdW  Elec       q    Type
REMARK                         _______ _______ _______ _____ _____    ______ ____
ROOT
ATOM      1  N   UNL     1      -4.924   5.732 131.908  0.00  0.00    +0.000 N 
ATOM      2  C   UNL     1      -5.634   5.864 130.659  0.00  0.00    +0.000 C 
ATOM      3  O   UNL     1      -5.105   6.396 129.669  0.00  0.00    +0.000 OA
ATOM      4  N   UNL     1      -6.879   5.214 130.530  0.00  0.00    +0.000 N 
ATOM      5  C   UNL     1      -7.648   4.803 129.342  0.00  0.00    +0.000 C 
ATOM      6  C   UNL     1      -8.896   5.552 129.904  0.00  0.00    +0.000 C 
ATOM      7  C   UNL     1      -8.141   5.523 131.202  0.00  0.00    +0.000 C 
ENDROOT
BRANCH   1   8
ATOM      8  C   UNL     1      -3.537   6.221 132.038  0.00  0.00    +0.000 A 
ATOM      9  C   UNL     1      -2.465   5.317 132.155  0.00  0.00    +0.000 A 
ATOM     10  C   UNL     1      -1.147   5.745 132.375  0.00  0.00    +0.000 A 
ATOM     11  C   UNL     1      -0.910   7.084 132.599  0.00  0.00    +0.000 A 
ATOM     12  N   UNL     1      -1.903   7.996 132.474  0.00  0.00    +0.000 NA
ATOM     13  C   UNL     1      -3.169   7.557 132.148  0.00  0.00    +0.000 A 
BRANCH  11  14
ATOM     14  O   UNL     1       0.307   7.601 132.970  0.00  0.00    +0.000 OA
ATOM     15  C   UNL     1       0.299   8.801 133.745  0.00  0.00    +0.000 C 
ENDBRANCH  11  14
ENDBRANCH   1   8
BRANCH   1  17
ATOM     16  C   UNL     1      -5.595   5.846 134.365  0.00  0.00    +0.000 C 
ATOM     17  C   UNL     1      -5.344   5.018 133.158  0.00  0.00    +0.000 C 
ENDBRANCH   1  17
BRANCH   6  18
ATOM     18  O   UNL     1      -9.265   6.871 129.424  0.00  0.00    +0.000 OA
BRANCH  18  19
ATOM     19  C   UNL     1     -10.615   7.136 129.227  0.00  0.00    +0.000 A 
ATOM     20  C   UNL     1     -11.391   7.157 130.391  0.00  0.00    +0.000 A 
ATOM     21  C   UNL     1     -12.782   7.252 130.302  0.00  0.00    +0.000 A 
ATOM     22  F   UNL     1     -13.516   7.249 131.421  0.00  0.00    +0.000 F 
ATOM     23  C   UNL     1     -13.426   7.332 129.081  0.00  0.00    +0.000 A 
ATOM     24  C   UNL     1     -12.661   7.327 127.933  0.00  0.00    +0.000 A 
ATOM     25  F   UNL     1     -13.284   7.411 126.747  0.00  0.00    +0.000 F 
ATOM     26  C   UNL     1     -11.264   7.221 127.974  0.00  0.00    +0.000 A 
ATOM     27  C   UNL     1     -10.602   7.219 126.640  0.00  0.00    +0.000 C 
ENDBRANCH  18  19
ENDBRANCH   6  18
TORSDOF 5
ENDMDL
MODEL 7
REMARK VINA RESULT:      -7.7      5.699      9.018
REMARK  Name = CHEMBL1093744
REMARK  8 active torsions:
REMARK  status: ('A' for Active; 'I' for Inactive)
REMARK    1  A    between atoms: C_1  and  C_2
REMARK    2  A    between atoms: C_2  and  N_3
REMARK    3  A    between atoms: N_3  and  C_20
REMARK    4  A    between atoms: C_8  and  O_9
REMARK    5  A    between atoms: O_9  and  C_10
REMARK    6  A    between atoms: C_17  and  C_18
REMARK    7  A    between atoms: C_23  and  O_24
REMARK    8  A    between atoms: O_24  and  C_25
REMARK                            x       y       z     vdW  Elec       q    Type
REMARK                         _______ _______ _______ _____ _____    ______ ____
ROOT
ATOM      1  N   UNL     1      -9.070   5.539 130.906  0.00  0.00    +0.000 N 
ATOM      2  C   UNL     1      -8.998   4.295 130.179  0.00  0.00    +0.000 C 
ATOM      3  O   UNL     1      -9.809   4.028 129.276  0.00  0.00    +0.000 OA
ATOM      4  N   UNL     1      -7.879   3.465 130.390  0.00  0.00    +0.000 N 
ATOM      5  C   UNL     1      -7.292   2.389 129.572  0.00  0.00    +0.000 C 
ATOM      6  C   UNL     1      -7.343   1.436 130.807  0.00  0.00    +0.000 C 
ATOM      7  C   UNL     1      -7.521   2.706 131.589  0.00  0.00    +0.000 C 
ENDROOT
BRANCH   1   8
ATOM      8  C   UNL     1     -10.110   6.537 130.587  0.00  0.00    +0.000 A 
ATOM      9  C   UNL     1     -11.358   6.507 131.236  0.00  0.00    +0.000 A 
ATOM     10  C   UNL     1     -12.401   7.379 130.891  0.00  0.00    +0.000 A 
ATOM     11  C   UNL     1     -12.241   8.214 129.807  0.00  0.00    +0.000 A 
ATOM     12  N   UNL     1     -11.052   8.297 129.164  0.00  0.00    +0.000 NA
ATOM     13  C   UNL     1     -10.008   7.506 129.596  0.00  0.00    +0.000 A 
BRANCH  11  14
ATOM     14  O   UNL     1     -13.237   9.001 129.283  0.00  0.00    +0.000 OA
ATOM     15  C   UNL     1     -13.272  10.370 129.690  0.00  0.00    +0.000 C 
ENDBRANCH  11  14
ENDBRANCH   1   8
BRANCH   1  17
ATOM     16  C   UNL     1      -6.875   6.726 131.431  0.00  0.00    +0.000 C 
ATOM     17  C   UNL     1      -8.120   6.087 131.929  0.00  0.00    +0.000 C 
ENDBRANCH   1  17
BRANCH   6  18
ATOM     18  O   UNL     1      -8.401   0.453 130.959  0.00  0.00    +0.000 OA
BRANCH  18  19
ATOM     19  C   UNL     1      -8.038  -0.842 131.304  0.00  0.00    +0.000 A 
ATOM     20  C   UNL     1      -7.879  -1.068 132.675  0.00  0.00    +0.000 A 
ATOM     21  C   UNL     1      -7.360  -2.284 133.129  0.00  0.00    +0.000 A 
ATOM     22  F   UNL     1      -7.192  -2.481 134.442  0.00  0.00    +0.000 F 
ATOM     23  C   UNL     1      -6.999  -3.289 132.250  0.00  0.00    +0.000 A 
ATOM     24  C   UNL     1      -7.169  -3.073 130.899  0.00  0.00    +0.000 A 
ATOM     25  F   UNL     1      -6.824  -4.051 130.046  0.00  0.00    +0.000 F 
ATOM     26  C   UNL     1      -7.674  -1.865 130.399  0.00  0.00    +0.000 A 
ATOM     27  C   UNL     1      -7.779  -1.804 128.915  0.00  0.00    +0.000 C 
ENDBRANCH  18  19
ENDBRANCH   6  18
TORSDOF 5
ENDMDL
MODEL 8
REMARK VINA RESULT:      -7.5      5.627      8.813
REMARK  Name = CHEMBL1093744
REMARK  8 active torsions:
REMARK  status: ('A' for Active; 'I' for Inactive)
REMARK    1  A    between atoms: C_1  and  C_2
REMARK    2  A    between atoms: C_2  and  N_3
REMARK    3  A    between atoms: N_3  and  C_20
REMARK    4  A    between atoms: C_8  and  O_9
REMARK    5  A    between atoms: O_9  and  C_10
REMARK    6  A    between atoms: C_17  and  C_18
REMARK    7  A    between atoms: C_23  and  O_24
REMARK    8  A    between atoms: O_24  and  C_25
REMARK                            x       y       z     vdW  Elec       q    Type
REMARK                         _______ _______ _______ _____ _____    ______ ____
ROOT
ATOM      1  N   UNL     1      -9.157   5.584 130.757  0.00  0.00    +0.000 N 
ATOM      2  C   UNL     1      -8.937   4.289 130.159  0.00  0.00    +0.000 C 
ATOM      3  O   UNL     1      -9.660   3.872 129.239  0.00  0.00    +0.000 OA
ATOM      4  N   UNL     1      -7.771   3.580 130.516  0.00  0.00    +0.000 N 
ATOM      5  C   UNL     1      -7.046   2.489 129.843  0.00  0.00    +0.000 C 
ATOM      6  C   UNL     1      -7.105   1.652 131.158  0.00  0.00    +0.000 C 
ATOM      7  C   UNL     1      -7.437   2.968 131.802  0.00  0.00    +0.000 C 
ENDROOT
BRANCH   1   8
ATOM      8  C   UNL     1     -10.249   6.455 130.281  0.00  0.00    +0.000 A 
ATOM      9  C   UNL     1     -10.026   7.390 129.253  0.00  0.00    +0.000 A 
ATOM     10  C   UNL     1     -11.012   8.297 128.841  0.00  0.00    +0.000 A 
ATOM     11  C   UNL     1     -12.199   8.355 129.539  0.00  0.00    +0.000 A 
ATOM     12  N   UNL     1     -12.471   7.462 130.520  0.00  0.00    +0.000 NA
ATOM     13  C   UNL     1     -11.524   6.509 130.830  0.00  0.00    +0.000 A 
BRANCH  11  14
ATOM     14  O   UNL     1     -13.176   9.297 129.327  0.00  0.00    +0.000 OA
ATOM     15  C   UNL     1     -13.220  10.407 130.225  0.00  0.00    +0.000 C 
ENDBRANCH  11  14
ENDBRANCH   1   8
BRANCH   1  17
ATOM     16  C   UNL     1      -7.025   6.859 131.327  0.00  0.00    +0.000 C 
ATOM     17  C   UNL     1      -8.325   6.302 131.777  0.00  0.00    +0.000 C 
ENDBRANCH   1  17
BRANCH   6  18
ATOM     18  O   UNL     1      -8.089   0.600 131.341  0.00  0.00    +0.000 OA
BRANCH  18  19
ATOM     19  C   UNL     1      -7.706  -0.703 131.050  0.00  0.00    +0.000 A 
ATOM     20  C   UNL     1      -7.938  -1.108 129.731  0.00  0.00    +0.000 A 
ATOM     21  C   UNL     1      -7.744  -2.442 129.365  0.00  0.00    +0.000 A 
ATOM     22  F   UNL     1      -7.991  -2.824 128.105  0.00  0.00    +0.000 F 
ATOM     23  C   UNL     1      -7.318  -3.390 130.278  0.00  0.00    +0.000 A 
ATOM     24  C   UNL     1      -7.075  -2.988 131.575  0.00  0.00    +0.000 A 
ATOM     25  F   UNL     1      -6.655  -3.905 132.461  0.00  0.00    +0.000 F 
ATOM     26  C   UNL     1      -7.267  -1.663 131.989  0.00  0.00    +0.000 A 
ATOM     27  C   UNL     1      -6.966  -1.413 133.426  0.00  0.00    +0.000 C 
ENDBRANCH  18  19
ENDBRANCH   6  18
TORSDOF 5
ENDMDL
MODEL 9
REMARK VINA RESULT:      -7.5      4.226      5.932
REMARK  Name = CHEMBL1093744
REMARK  8 active torsions:
REMARK  status: ('A' for Active; 'I' for Inactive)
REMARK    1  A    between atoms: C_1  and  C_2
REMARK    2  A    between atoms: C_2  and  N_3
REMARK    3  A    between atoms: N_3  and  C_20
REMARK    4  A    between atoms: C_8  and  O_9
REMARK    5  A    between atoms: O_9  and  C_10
REMARK    6  A    between atoms: C_17  and  C_18
REMARK    7  A    between atoms: C_23  and  O_24
REMARK    8  A    between atoms: O_24  and  C_25
REMARK                            x       y       z     vdW  Elec       q    Type
REMARK                         _______ _______ _______ _____ _____    ______ ____
ROOT
ATOM      1  N   UNL     1      -6.326   3.039 123.905  0.00  0.00    +0.000 N 
ATOM      2  C   UNL     1      -6.503   1.758 124.544  0.00  0.00    +0.000 C 
ATOM      3  O   UNL     1      -7.097   0.828 123.972  0.00  0.00    +0.000 OA
ATOM      4  N   UNL     1      -5.832   1.523 125.762  0.00  0.00    +0.000 N 
ATOM      5  C   UNL     1      -5.465   0.272 126.450  0.00  0.00    +0.000 C 
ATOM      6  C   UNL     1      -6.155   0.795 127.748  0.00  0.00    +0.000 C 
ATOM      7  C   UNL     1      -6.078   2.133 127.069  0.00  0.00    +0.000 C 
ENDROOT
BRANCH   1   8
ATOM      8  C   UNL     1      -6.839   3.275 122.542  0.00  0.00    +0.000 A 
ATOM      9  C   UNL     1      -5.971   3.659 121.503  0.00  0.00    +0.000 A 
ATOM     10  C   UNL     1      -6.436   3.984 120.221  0.00  0.00    +0.000 A 
ATOM     11  C   UNL     1      -7.795   4.040 119.999  0.00  0.00    +0.000 A 
ATOM     12  N   UNL     1      -8.671   3.658 120.958  0.00  0.00    +0.000 NA
ATOM     13  C   UNL     1      -8.179   3.237 122.176  0.00  0.00    +0.000 A 
BRANCH  11  14
ATOM     14  O   UNL     1      -8.370   4.487 118.836  0.00  0.00    +0.000 OA
ATOM     15  C   UNL     1      -9.796   4.450 118.754  0.00  0.00    +0.000 C 
ENDBRANCH  11  14
ENDBRANCH   1   8
BRANCH   1  17
ATOM     16  C   UNL     1      -6.275   5.276 125.126  0.00  0.00    +0.000 C 
ATOM     17  C   UNL     1      -5.540   4.225 124.379  0.00  0.00    +0.000 C 
ENDBRANCH   1  17
BRANCH   6  18
ATOM     18  O   UNL     1      -7.488   0.359 128.122  0.00  0.00    +0.000 OA
BRANCH  18  19
ATOM     19  C   UNL     1      -7.750   0.160 129.472  0.00  0.00    +0.000 A 
ATOM     20  C   UNL     1      -7.409  -1.106 129.961  0.00  0.00    +0.000 A 
ATOM     21  C   UNL     1      -7.773  -1.476 131.258  0.00  0.00    +0.000 A 
ATOM     22  F   UNL     1      -7.462  -2.698 131.708  0.00  0.00    +0.000 F 
ATOM     23  C   UNL     1      -8.465  -0.615 132.090  0.00  0.00    +0.000 A 
ATOM     24  C   UNL     1      -8.787   0.639 131.614  0.00  0.00    +0.000 A 
ATOM     25  F   UNL     1      -9.454   1.479 132.423  0.00  0.00    +0.000 F 
ATOM     26  C   UNL     1      -8.453   1.048 130.316  0.00  0.00    +0.000 A 
ATOM     27  C   UNL     1      -8.890   2.429 129.969  0.00  0.00    +0.000 C 
ENDBRANCH  18  19
ENDBRANCH   6  18
TORSDOF 5
ENDMDL
