MODEL 1
REMARK VINA RESULT:      -9.6      0.000      0.000
REMARK  Name = CHEMBL2037505
REMARK  10 active torsions:
REMARK  status: ('A' for Active; 'I' for Inactive)
REMARK    1  A    between atoms: CD1_1  and  CG1_2
REMARK    2  A    between atoms: CG1_2  and  CB_3
REMARK    3  A    between atoms: CB_3  and  CG2_4
REMARK    4  A    between atoms: CB_3  and  CA_5
REMARK    5  A    between atoms: C_9  and  C_10
REMARK    6  A    between atoms: N_21  and  C_22
REMARK    7  A    between atoms: C_22  and  C_23
REMARK    8  A    between atoms: C_22  and  C_31
REMARK    9  A    between atoms: C_33  and  C_34
REMARK   10  A    between atoms: C_37  and  C_38
REMARK                            x       y       z     vdW  Elec       q    Type
REMARK                         _______ _______ _______ _____ _____    ______ ____
ROOT
ATOM      1  CA  ILE A   2      -5.463   3.131 128.150  0.00  0.00    +0.000 C 
ATOM      2  C   ILE A   2      -5.248   2.561 129.600  0.00  0.00    +0.000 C 
ATOM      3  O   ILE A   2      -4.189   2.292 130.175  0.00  0.00    +0.000 OA
ATOM      4  N   UNK A   1      -6.404   2.466 130.289  0.00  0.00    +0.000 N 
ATOM      5  C   UNK A   1      -7.626   3.025 129.750  0.00  0.00    +0.000 C 
ATOM      6  C   UNK A   1      -7.812   2.460 128.367  0.00  0.00    +0.000 C 
ATOM      7  O   UNK A   1      -8.970   2.161 127.994  0.00  0.00    +0.000 OA
ATOM      8  N   ILE A   2      -6.674   2.356 127.595  0.00  0.00    +0.000 N 
ATOM      9  H   UNK A   1      -6.304   2.175 131.255  0.00  0.00    +0.000 HD
ENDROOT
BRANCH   5  10
ATOM     10  C   UNK A   1      -8.876   2.587 130.512  0.00  0.00    +0.000 C 
ATOM     11  C   UNK A   1      -9.738   3.794 130.849  0.00  0.00    +0.000 C 
ATOM     12  C   UNK A   1      -9.191   4.157 132.195  0.00  0.00    +0.000 A 
ATOM     13  C   UNK A   1      -9.218   5.397 132.797  0.00  0.00    +0.000 A 
ATOM     14  C   UNK A   1      -8.526   5.559 133.997  0.00  0.00    +0.000 A 
ATOM     15  C   UNK A   1      -7.804   4.497 134.567  0.00  0.00    +0.000 A 
ATOM     16  C   UNK A   1      -7.758   3.252 133.943  0.00  0.00    +0.000 A 
ATOM     17  C   UNK A   1      -8.470   3.095 132.766  0.00  0.00    +0.000 A 
ATOM     18  C   UNK A   1      -8.485   1.906 131.861  0.00  0.00    +0.000 C 
ENDBRANCH   5  10
BRANCH   1  19
ATOM     19  CB  ILE A   2      -4.167   3.098 127.340  0.00  0.00    +0.000 C 
ATOM     20  CG2 ILE A   2      -4.233   4.242 126.440  0.00  0.00    +0.000 C 
BRANCH  19  22
ATOM     21  CD1 ILE A   2      -1.911   3.029 126.562  0.00  0.00    +0.000 C 
ATOM     22  CG1 ILE A   2      -2.760   3.343 127.746  0.00  0.00    +0.000 C 
ENDBRANCH  19  22
ENDBRANCH   1  19
BRANCH   8  23
ATOM     23  C   UNK A   0      -6.664   1.341 126.405  0.00  0.00    +0.000 C 
BRANCH  23  24
ATOM     24  C   UNK A   0      -6.764  -0.572 126.598  0.00  0.00    +0.000 C 
ATOM     25  O   UNK A   0      -7.110  -1.060 127.694  0.00  0.00    +0.000 OA
ATOM     26  N   UNK A   0      -6.845  -1.653 125.431  0.00  0.00    +0.000 N 
ATOM     27  C   UNK A   0      -6.313  -1.680 123.952  0.00  0.00    +0.000 C 
ATOM     28  C   UNK A   0      -7.488  -1.755 122.801  0.00  0.00    +0.000 C 
ATOM     29  O   UNK A   0      -8.411  -2.804 123.063  0.00  0.00    +0.000 OA
ATOM     30  C   UNK A   0      -9.039  -2.572 124.349  0.00  0.00    +0.000 C 
ATOM     31  C   UNK A   0      -7.969  -2.631 125.517  0.00  0.00    +0.000 C 
ENDBRANCH  23  24
BRANCH  23  32
ATOM     32  C   UNK A   0      -7.326   1.928 125.149  0.00  0.00    +0.000 A 
ATOM     33  C   UNK A   0      -6.498   2.734 124.419  0.00  0.00    +0.000 A 
ATOM     34  C   UNK A   0      -6.810   3.176 123.172  0.00  0.00    +0.000 A 
ATOM     35  C   UNK A   0      -5.754   4.005 122.533  0.00  0.00    +0.000 C 
ATOM     36  C   UNK A   0      -8.017   2.761 122.655  0.00  0.00    +0.000 A 
ATOM     37  N   UNK A   0      -8.949   2.058 123.361  0.00  0.00    +0.000 NA
ATOM     38  C   UNK A   0      -8.623   1.651 124.622  0.00  0.00    +0.000 A 
ATOM     39  C   UNK A   0      -9.670   0.783 125.316  0.00  0.00    +0.000 C 
ENDBRANCH  23  32
ENDBRANCH   8  23
TORSDOF 6
ENDMDL
MODEL 2
REMARK VINA RESULT:      -9.5      3.858      6.654
REMARK  Name = CHEMBL2037505
REMARK  10 active torsions:
REMARK  status: ('A' for Active; 'I' for Inactive)
REMARK    1  A    between atoms: CD1_1  and  CG1_2
REMARK    2  A    between atoms: CG1_2  and  CB_3
REMARK    3  A    between atoms: CB_3  and  CG2_4
REMARK    4  A    between atoms: CB_3  and  CA_5
REMARK    5  A    between atoms: C_9  and  C_10
REMARK    6  A    between atoms: N_21  and  C_22
REMARK    7  A    between atoms: C_22  and  C_23
REMARK    8  A    between atoms: C_22  and  C_31
REMARK    9  A    between atoms: C_33  and  C_34
REMARK   10  A    between atoms: C_37  and  C_38
REMARK                            x       y       z     vdW  Elec       q    Type
REMARK                         _______ _______ _______ _____ _____    ______ ____
ROOT
ATOM      1  CA  ILE A   2      -8.525   2.556 130.343  0.00  0.00    +0.000 C 
ATOM      2  C   ILE A   2      -8.493   3.640 129.205  0.00  0.00    +0.000 C 
ATOM      3  O   ILE A   2      -8.195   3.502 128.016  0.00  0.00    +0.000 OA
ATOM      4  N   UNK A   1      -8.956   4.836 129.625  0.00  0.00    +0.000 N 
ATOM      5  C   UNK A   1      -9.568   4.968 130.930  0.00  0.00    +0.000 C 
ATOM      6  C   UNK A   1      -8.603   4.413 131.943  0.00  0.00    +0.000 C 
ATOM      7  O   UNK A   1      -8.493   4.996 133.046  0.00  0.00    +0.000 OA
ATOM      8  N   ILE A   2      -7.937   3.262 131.581  0.00  0.00    +0.000 N 
ATOM      9  H   UNK A   1      -9.025   5.546 128.904  0.00  0.00    +0.000 HD
ENDROOT
BRANCH   5  10
ATOM     10  C   UNK A   1      -9.774   6.420 131.355  0.00  0.00    +0.000 C 
ATOM     11  C   UNK A   1     -11.244   6.680 131.652  0.00  0.00    +0.000 C 
ATOM     12  C   UNK A   1     -11.722   7.132 130.306  0.00  0.00    +0.000 A 
ATOM     13  C   UNK A   1     -13.007   7.060 129.813  0.00  0.00    +0.000 A 
ATOM     14  C   UNK A   1     -13.218   7.405 128.478  0.00  0.00    +0.000 A 
ATOM     15  C   UNK A   1     -12.149   7.795 127.653  0.00  0.00    +0.000 A 
ATOM     16  C   UNK A   1     -10.848   7.844 128.149  0.00  0.00    +0.000 A 
ATOM     17  C   UNK A   1     -10.654   7.524 129.481  0.00  0.00    +0.000 A 
ATOM     18  C   UNK A   1      -9.355   7.392 130.208  0.00  0.00    +0.000 C 
ENDBRANCH   5  10
BRANCH   1  19
ATOM     19  CB  ILE A   2      -7.869   1.252 129.890  0.00  0.00    +0.000 C 
ATOM     20  CG2 ILE A   2      -8.503   0.196 130.671  0.00  0.00    +0.000 C 
BRANCH  19  22
ATOM     21  CD1 ILE A   2      -6.551   0.242 128.175  0.00  0.00    +0.000 C 
ATOM     22  CG1 ILE A   2      -7.952   0.518 128.602  0.00  0.00    +0.000 C 
ENDBRANCH  19  22
ENDBRANCH   1  19
BRANCH   8  23
ATOM     23  C   UNK A   0      -6.589   2.916 132.296  0.00  0.00    +0.000 C 
BRANCH  23  24
ATOM     24  C   UNK A   0      -6.223   1.252 133.193  0.00  0.00    +0.000 C 
ATOM     25  O   UNK A   0      -7.044   0.810 134.023  0.00  0.00    +0.000 OA
ATOM     26  N   UNK A   0      -5.187   0.127 132.745  0.00  0.00    +0.000 N 
ATOM     27  C   UNK A   0      -3.833   0.168 131.947  0.00  0.00    +0.000 C 
ATOM     28  C   UNK A   0      -3.858  -0.634 130.509  0.00  0.00    +0.000 C 
ATOM     29  O   UNK A   0      -4.359  -1.956 130.657  0.00  0.00    +0.000 OA
ATOM     30  C   UNK A   0      -5.712  -1.895 131.176  0.00  0.00    +0.000 C 
ATOM     31  C   UNK A   0      -5.731  -1.258 132.626  0.00  0.00    +0.000 C 
ENDBRANCH  23  24
BRANCH  23  32
ATOM     32  C   UNK A   0      -5.390   3.594 131.615  0.00  0.00    +0.000 A 
ATOM     33  C   UNK A   0      -4.987   2.968 130.468  0.00  0.00    +0.000 A 
ATOM     34  C   UNK A   0      -4.094   3.519 129.603  0.00  0.00    +0.000 A 
ATOM     35  C   UNK A   0      -3.824   2.696 128.395  0.00  0.00    +0.000 C 
ATOM     36  C   UNK A   0      -3.609   4.765 129.928  0.00  0.00    +0.000 A 
ATOM     37  N   UNK A   0      -3.868   5.403 131.107  0.00  0.00    +0.000 NA
ATOM     38  C   UNK A   0      -4.745   4.815 131.972  0.00  0.00    +0.000 A 
ATOM     39  C   UNK A   0      -5.067   5.629 133.223  0.00  0.00    +0.000 C 
ENDBRANCH  23  32
ENDBRANCH   8  23
TORSDOF 6
ENDMDL
MODEL 3
REMARK VINA RESULT:      -9.5      3.353      5.977
REMARK  Name = CHEMBL2037505
REMARK  10 active torsions:
REMARK  status: ('A' for Active; 'I' for Inactive)
REMARK    1  A    between atoms: CD1_1  and  CG1_2
REMARK    2  A    between atoms: CG1_2  and  CB_3
REMARK    3  A    between atoms: CB_3  and  CG2_4
REMARK    4  A    between atoms: CB_3  and  CA_5
REMARK    5  A    between atoms: C_9  and  C_10
REMARK    6  A    between atoms: N_21  and  C_22
REMARK    7  A    between atoms: C_22  and  C_23
REMARK    8  A    between atoms: C_22  and  C_31
REMARK    9  A    between atoms: C_33  and  C_34
REMARK   10  A    between atoms: C_37  and  C_38
REMARK                            x       y       z     vdW  Elec       q    Type
REMARK                         _______ _______ _______ _____ _____    ______ ____
ROOT
ATOM      1  CA  ILE A   2      -7.497   2.956 128.699  0.00  0.00    +0.000 C 
ATOM      2  C   ILE A   2      -7.892   4.305 127.992  0.00  0.00    +0.000 C 
ATOM      3  O   ILE A   2      -7.745   4.628 126.810  0.00  0.00    +0.000 OA
ATOM      4  N   UNK A   1      -8.562   5.137 128.815  0.00  0.00    +0.000 N 
ATOM      5  C   UNK A   1      -8.992   4.684 130.122  0.00  0.00    +0.000 C 
ATOM      6  C   UNK A   1      -7.785   4.132 130.831  0.00  0.00    +0.000 C 
ATOM      7  O   UNK A   1      -7.660   4.352 132.058  0.00  0.00    +0.000 OA
ATOM      8  N   ILE A   2      -6.922   3.379 130.065  0.00  0.00    +0.000 N 
ATOM      9  H   UNK A   1      -8.904   5.987 128.381  0.00  0.00    +0.000 HD
ENDROOT
BRANCH   5  10
ATOM     10  C   UNK A   1      -9.478   5.819 131.023  0.00  0.00    +0.000 C 
ATOM     11  C   UNK A   1     -10.991   5.767 131.167  0.00  0.00    +0.000 C 
ATOM     12  C   UNK A   1     -11.408   6.651 130.032  0.00  0.00    +0.000 A 
ATOM     13  C   UNK A   1     -12.610   6.627 129.359  0.00  0.00    +0.000 A 
ATOM     14  C   UNK A   1     -12.748   7.441 128.234  0.00  0.00    +0.000 A 
ATOM     15  C   UNK A   1     -11.687   8.246 127.787  0.00  0.00    +0.000 A 
ATOM     16  C   UNK A   1     -10.465   8.249 128.457  0.00  0.00    +0.000 A 
ATOM     17  C   UNK A   1     -10.348   7.457 129.586  0.00  0.00    +0.000 A 
ATOM     18  C   UNK A   1      -9.120   7.204 130.399  0.00  0.00    +0.000 C 
ENDBRANCH   5  10
BRANCH   1  19
ATOM     19  CB  ILE A   2      -6.619   2.089 127.796  0.00  0.00    +0.000 C 
ATOM     20  CG2 ILE A   2      -7.512   1.101 127.205  0.00  0.00    +0.000 C 
BRANCH  19  22
ATOM     21  CD1 ILE A   2      -5.072   1.225 126.195  0.00  0.00    +0.000 C 
ATOM     22  CG1 ILE A   2      -5.925   2.404 126.522  0.00  0.00    +0.000 C 
ENDBRANCH  19  22
ENDBRANCH   1  19
BRANCH   8  23
ATOM     23  C   UNK A   0      -5.441   3.213 130.543  0.00  0.00    +0.000 C 
BRANCH  23  24
ATOM     24  C   UNK A   0      -4.683   1.571 131.202  0.00  0.00    +0.000 C 
ATOM     25  O   UNK A   0      -3.695   1.615 131.964  0.00  0.00    +0.000 OA
ATOM     26  N   UNK A   0      -5.375   0.136 131.231  0.00  0.00    +0.000 N 
ATOM     27  C   UNK A   0      -6.461  -0.553 130.326  0.00  0.00    +0.000 C 
ATOM     28  C   UNK A   0      -7.868  -0.917 131.097  0.00  0.00    +0.000 C 
ATOM     29  O   UNK A   0      -7.635  -1.634 132.302  0.00  0.00    +0.000 OA
ATOM     30  C   UNK A   0      -6.819  -0.823 133.186  0.00  0.00    +0.000 C 
ATOM     31  C   UNK A   0      -5.392  -0.559 132.552  0.00  0.00    +0.000 C 
ENDBRANCH  23  24
BRANCH  23  32
ATOM     32  C   UNK A   0      -4.486   4.137 129.773  0.00  0.00    +0.000 A 
ATOM     33  C   UNK A   0      -3.648   3.472 128.923  0.00  0.00    +0.000 A 
ATOM     34  C   UNK A   0      -2.880   4.106 127.997  0.00  0.00    +0.000 A 
ATOM     35  C   UNK A   0      -2.073   3.197 127.142  0.00  0.00    +0.000 C 
ATOM     36  C   UNK A   0      -2.991   5.478 127.940  0.00  0.00    +0.000 A 
ATOM     37  N   UNK A   0      -3.711   6.224 128.828  0.00  0.00    +0.000 NA
ATOM     38  C   UNK A   0      -4.449   5.564 129.767  0.00  0.00    +0.000 A 
ATOM     39  C   UNK A   0      -5.308   6.454 130.661  0.00  0.00    +0.000 C 
ENDBRANCH  23  32
ENDBRANCH   8  23
TORSDOF 6
ENDMDL
MODEL 4
REMARK VINA RESULT:      -9.4      1.379      2.229
REMARK  Name = CHEMBL2037505
REMARK  10 active torsions:
REMARK  status: ('A' for Active; 'I' for Inactive)
REMARK    1  A    between atoms: CD1_1  and  CG1_2
REMARK    2  A    between atoms: CG1_2  and  CB_3
REMARK    3  A    between atoms: CB_3  and  CG2_4
REMARK    4  A    between atoms: CB_3  and  CA_5
REMARK    5  A    between atoms: C_9  and  C_10
REMARK    6  A    between atoms: N_21  and  C_22
REMARK    7  A    between atoms: C_22  and  C_23
REMARK    8  A    between atoms: C_22  and  C_31
REMARK    9  A    between atoms: C_33  and  C_34
REMARK   10  A    between atoms: C_37  and  C_38
REMARK                            x       y       z     vdW  Elec       q    Type
REMARK                         _______ _______ _______ _____ _____    ______ ____
ROOT
ATOM      1  CA  ILE A   2      -5.718   3.391 127.548  0.00  0.00    +0.000 C 
ATOM      2  C   ILE A   2      -5.421   2.724 128.941  0.00  0.00    +0.000 C 
ATOM      3  O   ILE A   2      -4.330   2.524 129.484  0.00  0.00    +0.000 OA
ATOM      4  N   UNK A   1      -6.549   2.445 129.626  0.00  0.00    +0.000 N 
ATOM      5  C   UNK A   1      -7.832   2.912 129.145  0.00  0.00    +0.000 C 
ATOM      6  C   UNK A   1      -7.977   2.452 127.719  0.00  0.00    +0.000 C 
ATOM      7  O   UNK A   1      -9.102   2.062 127.328  0.00  0.00    +0.000 OA
ATOM      8  N   ILE A   2      -6.847   2.539 126.934  0.00  0.00    +0.000 N 
ATOM      9  H   UNK A   1      -6.404   2.084 130.562  0.00  0.00    +0.000 HD
ENDROOT
BRANCH   5  10
ATOM     10  C   UNK A   1      -9.016   2.276 129.873  0.00  0.00    +0.000 C 
ATOM     11  C   UNK A   1      -9.952   3.354 130.400  0.00  0.00    +0.000 C 
ATOM     12  C   UNK A   1      -9.382   3.571 131.767  0.00  0.00    +0.000 A 
ATOM     13  C   UNK A   1      -9.478   4.710 132.537  0.00  0.00    +0.000 A 
ATOM     14  C   UNK A   1      -8.754   4.761 133.728  0.00  0.00    +0.000 A 
ATOM     15  C   UNK A   1      -7.933   3.691 134.123  0.00  0.00    +0.000 A 
ATOM     16  C   UNK A   1      -7.819   2.551 133.330  0.00  0.00    +0.000 A 
ATOM     17  C   UNK A   1      -8.562   2.501 132.164  0.00  0.00    +0.000 A 
ATOM     18  C   UNK A   1      -8.523   1.450 131.102  0.00  0.00    +0.000 C 
ENDBRANCH   5  10
BRANCH   1  19
ATOM     19  CB  ILE A   2      -4.439   3.570 126.730  0.00  0.00    +0.000 C 
ATOM     20  CG2 ILE A   2      -3.709   4.657 127.370  0.00  0.00    +0.000 C 
BRANCH  19  22
ATOM     21  CD1 ILE A   2      -2.056   3.537 126.878  0.00  0.00    +0.000 C 
ATOM     22  CG1 ILE A   2      -3.250   2.694 126.581  0.00  0.00    +0.000 C 
ENDBRANCH  19  22
ENDBRANCH   1  19
BRANCH   8  23
ATOM     23  C   UNK A   0      -6.746   1.638 125.659  0.00  0.00    +0.000 C 
BRANCH  23  24
ATOM     24  C   UNK A   0      -6.957  -0.276 125.654  0.00  0.00    +0.000 C 
ATOM     25  O   UNK A   0      -6.701  -0.918 124.615  0.00  0.00    +0.000 OA
ATOM     26  N   UNK A   0      -7.046  -1.236 126.922  0.00  0.00    +0.000 N 
ATOM     27  C   UNK A   0      -7.566  -1.032 128.392  0.00  0.00    +0.000 C 
ATOM     28  C   UNK A   0      -6.413  -1.183 129.557  0.00  0.00    +0.000 C 
ATOM     29  O   UNK A   0      -5.673  -2.387 129.407  0.00  0.00    +0.000 OA
ATOM     30  C   UNK A   0      -5.023  -2.386 128.111  0.00  0.00    +0.000 C 
ATOM     31  C   UNK A   0      -6.094  -2.386 126.944  0.00  0.00    +0.000 C 
ENDBRANCH  23  24
BRANCH  23  32
ATOM     32  C   UNK A   0      -7.228   2.374 124.400  0.00  0.00    +0.000 A 
ATOM     33  C   UNK A   0      -6.242   3.077 123.766  0.00  0.00    +0.000 A 
ATOM     34  C   UNK A   0      -6.401   3.618 122.528  0.00  0.00    +0.000 A 
ATOM     35  C   UNK A   0      -5.195   4.304 121.999  0.00  0.00    +0.000 C 
ATOM     36  C   UNK A   0      -7.619   3.414 121.919  0.00  0.00    +0.000 A 
ATOM     37  N   UNK A   0      -8.691   2.829 122.529  0.00  0.00    +0.000 NA
ATOM     38  C   UNK A   0      -8.514   2.321 123.784  0.00  0.00    +0.000 A 
ATOM     39  C   UNK A   0      -9.722   1.592 124.366  0.00  0.00    +0.000 C 
ENDBRANCH  23  32
ENDBRANCH   8  23
TORSDOF 6
ENDMDL
MODEL 5
REMARK VINA RESULT:      -9.4      2.575      8.289
REMARK  Name = CHEMBL2037505
REMARK  10 active torsions:
REMARK  status: ('A' for Active; 'I' for Inactive)
REMARK    1  A    between atoms: CD1_1  and  CG1_2
REMARK    2  A    between atoms: CG1_2  and  CB_3
REMARK    3  A    between atoms: CB_3  and  CG2_4
REMARK    4  A    between atoms: CB_3  and  CA_5
REMARK    5  A    between atoms: C_9  and  C_10
REMARK    6  A    between atoms: N_21  and  C_22
REMARK    7  A    between atoms: C_22  and  C_23
REMARK    8  A    between atoms: C_22  and  C_31
REMARK    9  A    between atoms: C_33  and  C_34
REMARK   10  A    between atoms: C_37  and  C_38
REMARK                            x       y       z     vdW  Elec       q    Type
REMARK                         _______ _______ _______ _____ _____    ______ ____
ROOT
ATOM      1  CA  ILE A   2      -4.060   2.340 127.626  0.00  0.00    +0.000 C 
ATOM      2  C   ILE A   2      -4.987   2.452 126.361  0.00  0.00    +0.000 C 
ATOM      3  O   ILE A   2      -5.014   3.335 125.500  0.00  0.00    +0.000 OA
ATOM      4  N   UNK A   1      -5.765   1.362 126.199  0.00  0.00    +0.000 N 
ATOM      5  C   UNK A   1      -5.568   0.191 127.028  0.00  0.00    +0.000 C 
ATOM      6  C   UNK A   1      -5.615   0.639 128.464  0.00  0.00    +0.000 C 
ATOM      7  O   UNK A   1      -6.181  -0.100 129.303  0.00  0.00    +0.000 OA
ATOM      8  N   ILE A   2      -4.983   1.831 128.750  0.00  0.00    +0.000 N 
ATOM      9  H   UNK A   1      -6.325   1.356 125.353  0.00  0.00    +0.000 HD
ENDROOT
BRANCH   5  10
ATOM     10  C   UNK A   1      -6.699  -0.829 126.910  0.00  0.00    +0.000 C 
ATOM     11  C   UNK A   1      -6.131  -2.230 126.741  0.00  0.00    +0.000 C 
ATOM     12  C   UNK A   1      -6.055  -2.319 125.248  0.00  0.00    +0.000 A 
ATOM     13  C   UNK A   1      -5.213  -3.118 124.505  0.00  0.00    +0.000 A 
ATOM     14  C   UNK A   1      -5.201  -2.949 123.120  0.00  0.00    +0.000 A 
ATOM     15  C   UNK A   1      -6.007  -1.979 122.501  0.00  0.00    +0.000 A 
ATOM     16  C   UNK A   1      -6.839  -1.157 123.258  0.00  0.00    +0.000 A 
ATOM     17  C   UNK A   1      -6.862  -1.350 124.628  0.00  0.00    +0.000 A 
ATOM     18  C   UNK A   1      -7.576  -0.531 125.653  0.00  0.00    +0.000 C 
ENDBRANCH   5  10
BRANCH   1  19
ATOM     19  CB  ILE A   2      -3.291   3.638 127.871  0.00  0.00    +0.000 C 
ATOM     20  CG2 ILE A   2      -2.085   3.545 127.059  0.00  0.00    +0.000 C 
BRANCH  19  22
ATOM     21  CD1 ILE A   2      -2.560   5.898 128.119  0.00  0.00    +0.000 C 
ATOM     22  CG1 ILE A   2      -3.596   5.038 127.479  0.00  0.00    +0.000 C 
ENDBRANCH  19  22
ENDBRANCH   1  19
BRANCH   8  23
ATOM     23  C   UNK A   0      -5.406   2.616 130.035  0.00  0.00    +0.000 C 
BRANCH  23  24
ATOM     24  C   UNK A   0      -7.190   2.648 130.760  0.00  0.00    +0.000 C 
ATOM     25  O   UNK A   0      -7.570   1.711 131.493  0.00  0.00    +0.000 OA
ATOM     26  N   UNK A   0      -8.155   3.909 130.883  0.00  0.00    +0.000 N 
ATOM     27  C   UNK A   0      -8.311   5.230 130.045  0.00  0.00    +0.000 C 
ATOM     28  C   UNK A   0      -7.972   6.613 130.871  0.00  0.00    +0.000 C 
ATOM     29  O   UNK A   0      -8.675   6.670 132.105  0.00  0.00    +0.000 OA
ATOM     30  C   UNK A   0      -8.289   5.536 132.923  0.00  0.00    +0.000 C 
ATOM     31  C   UNK A   0      -8.721   4.175 132.239  0.00  0.00    +0.000 C 
ENDBRANCH  23  24
BRANCH  23  32
ATOM     32  C   UNK A   0      -4.261   2.700 131.057  0.00  0.00    +0.000 A 
ATOM     33  C   UNK A   0      -3.634   3.914 131.077  0.00  0.00    +0.000 A 
ATOM     34  C   UNK A   0      -2.747   4.270 132.046  0.00  0.00    +0.000 A 
ATOM     35  C   UNK A   0      -2.213   5.649 131.910  0.00  0.00    +0.000 C 
ATOM     36  C   UNK A   0      -2.509   3.341 133.033  0.00  0.00    +0.000 A 
ATOM     37  N   UNK A   0      -3.000   2.068 133.021  0.00  0.00    +0.000 NA
ATOM     38  C   UNK A   0      -3.865   1.726 132.021  0.00  0.00    +0.000 A 
ATOM     39  C   UNK A   0      -4.455   0.322 132.124  0.00  0.00    +0.000 C 
ENDBRANCH  23  32
ENDBRANCH   8  23
TORSDOF 6
ENDMDL
MODEL 6
REMARK VINA RESULT:      -9.4      2.422      4.425
REMARK  Name = CHEMBL2037505
REMARK  10 active torsions:
REMARK  status: ('A' for Active; 'I' for Inactive)
REMARK    1  A    between atoms: CD1_1  and  CG1_2
REMARK    2  A    between atoms: CG1_2  and  CB_3
REMARK    3  A    between atoms: CB_3  and  CG2_4
REMARK    4  A    between atoms: CB_3  and  CA_5
REMARK    5  A    between atoms: C_9  and  C_10
REMARK    6  A    between atoms: N_21  and  C_22
REMARK    7  A    between atoms: C_22  and  C_23
REMARK    8  A    between atoms: C_22  and  C_31
REMARK    9  A    between atoms: C_33  and  C_34
REMARK   10  A    between atoms: C_37  and  C_38
REMARK                            x       y       z     vdW  Elec       q    Type
REMARK                         _______ _______ _______ _____ _____    ______ ____
ROOT
ATOM      1  CA  ILE A   2      -6.164   2.028 128.749  0.00  0.00    +0.000 C 
ATOM      2  C   ILE A   2      -6.665   3.517 128.822  0.00  0.00    +0.000 C 
ATOM      3  O   ILE A   2      -7.759   3.945 129.202  0.00  0.00    +0.000 OA
ATOM      4  N   UNK A   1      -5.696   4.399 128.506  0.00  0.00    +0.000 N 
ATOM      5  C   UNK A   1      -4.331   3.953 128.321  0.00  0.00    +0.000 C 
ATOM      6  C   UNK A   1      -4.351   2.838 127.310  0.00  0.00    +0.000 C 
ATOM      7  O   UNK A   1      -3.424   2.775 126.470  0.00  0.00    +0.000 OA
ATOM      8  N   ILE A   2      -5.388   1.936 127.420  0.00  0.00    +0.000 N 
ATOM      9  H   UNK A   1      -5.952   5.374 128.613  0.00  0.00    +0.000 HD
ENDROOT
BRANCH   5  10
ATOM     10  C   UNK A   1      -3.428   5.016 127.698  0.00  0.00    +0.000 C 
ATOM     11  C   UNK A   1      -2.114   5.106 128.460  0.00  0.00    +0.000 C 
ATOM     12  C   UNK A   1      -2.453   6.157 129.471  0.00  0.00    +0.000 A 
ATOM     13  C   UNK A   1      -1.871   6.341 130.707  0.00  0.00    +0.000 A 
ATOM     14  C   UNK A   1      -2.428   7.293 131.560  0.00  0.00    +0.000 A 
ATOM     15  C   UNK A   1      -3.563   8.030 131.181  0.00  0.00    +0.000 A 
ATOM     16  C   UNK A   1      -4.163   7.825 129.941  0.00  0.00    +0.000 A 
ATOM     17  C   UNK A   1      -3.587   6.896 129.092  0.00  0.00    +0.000 A 
ATOM     18  C   UNK A   1      -4.104   6.421 127.773  0.00  0.00    +0.000 C 
ENDBRANCH   5  10
BRANCH   1  19
ATOM     19  CB  ILE A   2      -7.310   1.041 128.972  0.00  0.00    +0.000 C 
ATOM     20  CG2 ILE A   2      -6.726  -0.093 129.676  0.00  0.00    +0.000 C 
BRANCH  19  22
ATOM     21  CD1 ILE A   2      -8.318   0.119 130.930  0.00  0.00    +0.000 C 
ATOM     22  CG1 ILE A   2      -8.508   1.124 129.845  0.00  0.00    +0.000 C 
ENDBRANCH  19  22
ENDBRANCH   1  19
BRANCH   8  23
ATOM     23  C   UNK A   0      -5.788   1.093 126.165  0.00  0.00    +0.000 C 
BRANCH  23  24
ATOM     24  C   UNK A   0      -5.883  -0.830 126.124  0.00  0.00    +0.000 C 
ATOM     25  O   UNK A   0      -5.479  -1.484 127.107  0.00  0.00    +0.000 OA
ATOM     26  N   UNK A   0      -6.777  -1.728 125.157  0.00  0.00    +0.000 N 
ATOM     27  C   UNK A   0      -7.326  -1.520 123.699  0.00  0.00    +0.000 C 
ATOM     28  C   UNK A   0      -8.967  -1.455 123.585  0.00  0.00    +0.000 C 
ATOM     29  O   UNK A   0      -9.581  -2.557 124.241  0.00  0.00    +0.000 OA
ATOM     30  C   UNK A   0      -9.214  -2.536 125.645  0.00  0.00    +0.000 C 
ATOM     31  C   UNK A   0      -7.653  -2.738 125.822  0.00  0.00    +0.000 C 
ENDBRANCH  23  24
BRANCH  23  32
ATOM     32  C   UNK A   0      -6.794   1.838 125.274  0.00  0.00    +0.000 A 
ATOM     33  C   UNK A   0      -6.207   2.566 124.277  0.00  0.00    +0.000 A 
ATOM     34  C   UNK A   0      -6.914   3.121 123.256  0.00  0.00    +0.000 A 
ATOM     35  C   UNK A   0      -6.082   3.835 122.253  0.00  0.00    +0.000 C 
ATOM     36  C   UNK A   0      -8.273   2.904 123.258  0.00  0.00    +0.000 A 
ATOM     37  N   UNK A   0      -8.949   2.293 124.274  0.00  0.00    +0.000 NA
ATOM     38  C   UNK A   0      -8.219   1.771 125.303  0.00  0.00    +0.000 A 
ATOM     39  C   UNK A   0      -9.027   1.013 126.353  0.00  0.00    +0.000 C 
ENDBRANCH  23  32
ENDBRANCH   8  23
TORSDOF 6
ENDMDL
MODEL 7
REMARK VINA RESULT:      -9.2      3.382      7.305
REMARK  Name = CHEMBL2037505
REMARK  10 active torsions:
REMARK  status: ('A' for Active; 'I' for Inactive)
REMARK    1  A    between atoms: CD1_1  and  CG1_2
REMARK    2  A    between atoms: CG1_2  and  CB_3
REMARK    3  A    between atoms: CB_3  and  CG2_4
REMARK    4  A    between atoms: CB_3  and  CA_5
REMARK    5  A    between atoms: C_9  and  C_10
REMARK    6  A    between atoms: N_21  and  C_22
REMARK    7  A    between atoms: C_22  and  C_23
REMARK    8  A    between atoms: C_22  and  C_31
REMARK    9  A    between atoms: C_33  and  C_34
REMARK   10  A    between atoms: C_37  and  C_38
REMARK                            x       y       z     vdW  Elec       q    Type
REMARK                         _______ _______ _______ _____ _____    ______ ____
ROOT
ATOM      1  CA  ILE A   2      -7.986   2.771 128.358  0.00  0.00    +0.000 C 
ATOM      2  C   ILE A   2      -7.819   4.277 127.935  0.00  0.00    +0.000 C 
ATOM      3  O   ILE A   2      -7.259   4.741 126.939  0.00  0.00    +0.000 OA
ATOM      4  N   UNK A   1      -8.480   5.115 128.760  0.00  0.00    +0.000 N 
ATOM      5  C   UNK A   1      -9.371   4.594 129.776  0.00  0.00    +0.000 C 
ATOM      6  C   UNK A   1      -8.595   3.591 130.587  0.00  0.00    +0.000 C 
ATOM      7  O   UNK A   1      -8.786   3.548 131.825  0.00  0.00    +0.000 OA
ATOM      8  N   ILE A   2      -7.753   2.759 129.881  0.00  0.00    +0.000 N 
ATOM      9  H   UNK A   1      -8.464   6.091 128.482  0.00  0.00    +0.000 HD
ENDROOT
BRANCH   5  10
ATOM     10  C   UNK A   1      -9.810   5.648 130.790  0.00  0.00    +0.000 C 
ATOM     11  C   UNK A   1     -11.323   5.628 130.951  0.00  0.00    +0.000 C 
ATOM     12  C   UNK A   1     -11.725   6.631 129.915  0.00  0.00    +0.000 A 
ATOM     13  C   UNK A   1     -12.935   6.710 129.260  0.00  0.00    +0.000 A 
ATOM     14  C   UNK A   1     -13.060   7.634 128.223  0.00  0.00    +0.000 A 
ATOM     15  C   UNK A   1     -11.980   8.448 127.842  0.00  0.00    +0.000 A 
ATOM     16  C   UNK A   1     -10.751   8.348 128.491  0.00  0.00    +0.000 A 
ATOM     17  C   UNK A   1     -10.645   7.445 129.534  0.00  0.00    +0.000 A 
ATOM     18  C   UNK A   1      -9.416   7.077 130.301  0.00  0.00    +0.000 C 
ENDBRANCH   5  10
BRANCH   1  19
ATOM     19  CB  ILE A   2      -7.119   1.851 127.499  0.00  0.00    +0.000 C 
ATOM     20  CG2 ILE A   2      -7.908   0.644 127.289  0.00  0.00    +0.000 C 
BRANCH  19  22
ATOM     21  CD1 ILE A   2      -6.365   0.583 125.621  0.00  0.00    +0.000 C 
ATOM     22  CG1 ILE A   2      -6.688   1.964 126.082  0.00  0.00    +0.000 C 
ENDBRANCH  19  22
ENDBRANCH   1  19
BRANCH   8  23
ATOM     23  C   UNK A   0      -6.564   2.077 130.636  0.00  0.00    +0.000 C 
BRANCH  23  24
ATOM     24  C   UNK A   0      -5.025   3.011 131.320  0.00  0.00    +0.000 C 
ATOM     25  O   UNK A   0      -3.896   2.488 131.220  0.00  0.00    +0.000 OA
ATOM     26  N   UNK A   0      -4.917   4.564 131.661  0.00  0.00    +0.000 N 
ATOM     27  C   UNK A   0      -5.965   5.638 132.130  0.00  0.00    +0.000 C 
ATOM     28  C   UNK A   0      -6.213   6.868 131.065  0.00  0.00    +0.000 C 
ATOM     29  O   UNK A   0      -4.987   7.455 130.648  0.00  0.00    +0.000 OA
ATOM     30  C   UNK A   0      -4.172   6.442 130.004  0.00  0.00    +0.000 C 
ATOM     31  C   UNK A   0      -3.782   5.298 131.028  0.00  0.00    +0.000 C 
ENDBRANCH  23  24
BRANCH  23  32
ATOM     32  C   UNK A   0      -7.025   0.854 131.442  0.00  0.00    +0.000 A 
ATOM     33  C   UNK A   0      -7.345  -0.224 130.666  0.00  0.00    +0.000 A 
ATOM     34  C   UNK A   0      -7.566  -1.464 131.180  0.00  0.00    +0.000 A 
ATOM     35  C   UNK A   0      -7.857  -2.507 130.163  0.00  0.00    +0.000 C 
ATOM     36  C   UNK A   0      -7.441  -1.596 132.545  0.00  0.00    +0.000 A 
ATOM     37  N   UNK A   0      -7.243  -0.550 133.399  0.00  0.00    +0.000 NA
ATOM     38  C   UNK A   0      -7.053   0.689 132.859  0.00  0.00    +0.000 A 
ATOM     39  C   UNK A   0      -6.736   1.794 133.864  0.00  0.00    +0.000 C 
ENDBRANCH  23  32
ENDBRANCH   8  23
TORSDOF 6
ENDMDL
MODEL 8
REMARK VINA RESULT:      -9.1      2.414      8.313
REMARK  Name = CHEMBL2037505
REMARK  10 active torsions:
REMARK  status: ('A' for Active; 'I' for Inactive)
REMARK    1  A    between atoms: CD1_1  and  CG1_2
REMARK    2  A    between atoms: CG1_2  and  CB_3
REMARK    3  A    between atoms: CB_3  and  CG2_4
REMARK    4  A    between atoms: CB_3  and  CA_5
REMARK    5  A    between atoms: C_9  and  C_10
REMARK    6  A    between atoms: N_21  and  C_22
REMARK    7  A    between atoms: C_22  and  C_23
REMARK    8  A    between atoms: C_22  and  C_31
REMARK    9  A    between atoms: C_33  and  C_34
REMARK   10  A    between atoms: C_37  and  C_38
REMARK                            x       y       z     vdW  Elec       q    Type
REMARK                         _______ _______ _______ _____ _____    ______ ____
ROOT
ATOM      1  CA  ILE A   2      -8.581   1.760 128.907  0.00  0.00    +0.000 C 
ATOM      2  C   ILE A   2      -7.550   0.573 128.905  0.00  0.00    +0.000 C 
ATOM      3  O   ILE A   2      -7.184  -0.133 129.849  0.00  0.00    +0.000 OA
ATOM      4  N   UNK A   1      -7.118   0.272 127.663  0.00  0.00    +0.000 N 
ATOM      5  C   UNK A   1      -7.728   0.892 126.505  0.00  0.00    +0.000 C 
ATOM      6  C   UNK A   1      -7.682   2.383 126.712  0.00  0.00    +0.000 C 
ATOM      7  O   UNK A   1      -7.440   3.116 125.725  0.00  0.00    +0.000 OA
ATOM      8  N   ILE A   2      -7.957   2.828 127.987  0.00  0.00    +0.000 N 
ATOM      9  H   UNK A   1      -6.510  -0.537 127.605  0.00  0.00    +0.000 HD
ENDROOT
BRANCH   5  10
ATOM     10  C   UNK A   1      -6.943   0.662 125.215  0.00  0.00    +0.000 C 
ATOM     11  C   UNK A   1      -7.895   0.419 124.054  0.00  0.00    +0.000 C 
ATOM     12  C   UNK A   1      -8.018  -1.072 124.104  0.00  0.00    +0.000 A 
ATOM     13  C   UNK A   1      -9.067  -1.836 123.640  0.00  0.00    +0.000 A 
ATOM     14  C   UNK A   1      -9.053  -3.204 123.911  0.00  0.00    +0.000 A 
ATOM     15  C   UNK A   1      -8.010  -3.786 124.652  0.00  0.00    +0.000 A 
ATOM     16  C   UNK A   1      -6.963  -3.006 125.140  0.00  0.00    +0.000 A 
ATOM     17  C   UNK A   1      -6.975  -1.654 124.844  0.00  0.00    +0.000 A 
ATOM     18  C   UNK A   1      -6.037  -0.603 125.343  0.00  0.00    +0.000 C 
ENDBRANCH   5  10
BRANCH   1  19
ATOM     19  CB  ILE A   2      -8.951   2.177 130.330  0.00  0.00    +0.000 C 
ATOM     20  CG2 ILE A   2     -10.249   2.830 130.228  0.00  0.00    +0.000 C 
BRANCH  19  22
ATOM     21  CD1 ILE A   2      -8.696   2.028 132.700  0.00  0.00    +0.000 C 
ATOM     22  CG1 ILE A   2      -9.315   1.363 131.518  0.00  0.00    +0.000 C 
ENDBRANCH  19  22
ENDBRANCH   1  19
BRANCH   8  23
ATOM     23  C   UNK A   0      -7.441   4.241 128.417  0.00  0.00    +0.000 C 
BRANCH  23  24
ATOM     24  C   UNK A   0      -8.567   5.673 129.042  0.00  0.00    +0.000 C 
ATOM     25  O   UNK A   0      -9.645   5.904 128.456  0.00  0.00    +0.000 OA
ATOM     26  N   UNK A   0      -8.516   6.383 130.467  0.00  0.00    +0.000 N 
ATOM     27  C   UNK A   0      -7.360   6.641 131.500  0.00  0.00    +0.000 C 
ATOM     28  C   UNK A   0      -7.550   5.885 132.949  0.00  0.00    +0.000 C 
ATOM     29  O   UNK A   0      -8.835   6.134 133.504  0.00  0.00    +0.000 OA
ATOM     30  C   UNK A   0      -9.849   5.643 132.590  0.00  0.00    +0.000 C 
ATOM     31  C   UNK A   0      -9.804   6.438 131.220  0.00  0.00    +0.000 C 
ENDBRANCH  23  24
BRANCH  23  32
ATOM     32  C   UNK A   0      -6.034   4.172 129.030  0.00  0.00    +0.000 A 
ATOM     33  C   UNK A   0      -6.017   3.683 130.306  0.00  0.00    +0.000 A 
ATOM     34  C   UNK A   0      -4.868   3.339 130.949  0.00  0.00    +0.000 A 
ATOM     35  C   UNK A   0      -5.070   2.787 132.313  0.00  0.00    +0.000 C 
ATOM     36  C   UNK A   0      -3.697   3.496 130.242  0.00  0.00    +0.000 A 
ATOM     37  N   UNK A   0      -3.617   4.087 129.015  0.00  0.00    +0.000 NA
ATOM     38  C   UNK A   0      -4.782   4.450 128.404  0.00  0.00    +0.000 A 
ATOM     39  C   UNK A   0      -4.629   5.010 126.992  0.00  0.00    +0.000 C 
ENDBRANCH  23  32
ENDBRANCH   8  23
TORSDOF 6
ENDMDL
MODEL 9
REMARK VINA RESULT:      -9.0      2.254      8.061
REMARK  Name = CHEMBL2037505
REMARK  10 active torsions:
REMARK  status: ('A' for Active; 'I' for Inactive)
REMARK    1  A    between atoms: CD1_1  and  CG1_2
REMARK    2  A    between atoms: CG1_2  and  CB_3
REMARK    3  A    between atoms: CB_3  and  CG2_4
REMARK    4  A    between atoms: CB_3  and  CA_5
REMARK    5  A    between atoms: C_9  and  C_10
REMARK    6  A    between atoms: N_21  and  C_22
REMARK    7  A    between atoms: C_22  and  C_23
REMARK    8  A    between atoms: C_22  and  C_31
REMARK    9  A    between atoms: C_33  and  C_34
REMARK   10  A    between atoms: C_37  and  C_38
REMARK                            x       y       z     vdW  Elec       q    Type
REMARK                         _______ _______ _______ _____ _____    ______ ____
ROOT
ATOM      1  CA  ILE A   2      -5.069   2.834 127.557  0.00  0.00    +0.000 C 
ATOM      2  C   ILE A   2      -5.415   2.969 126.029  0.00  0.00    +0.000 C 
ATOM      3  O   ILE A   2      -4.889   3.695 125.181  0.00  0.00    +0.000 OA
ATOM      4  N   UNK A   1      -6.351   2.081 125.636  0.00  0.00    +0.000 N 
ATOM      5  C   UNK A   1      -6.792   1.035 126.534  0.00  0.00    +0.000 C 
ATOM      6  C   UNK A   1      -7.223   1.692 127.818  0.00  0.00    +0.000 C 
ATOM      7  O   UNK A   1      -8.230   1.241 128.411  0.00  0.00    +0.000 OA
ATOM      8  N   ILE A   2      -6.434   2.730 128.265  0.00  0.00    +0.000 N 
ATOM      9  H   UNK A   1      -6.550   2.081 124.641  0.00  0.00    +0.000 HD
ENDROOT
BRANCH   5  10
ATOM     10  C   UNK A   1      -8.039   0.304 126.042  0.00  0.00    +0.000 C 
ATOM     11  C   UNK A   1      -7.947  -1.179 126.371  0.00  0.00    +0.000 C 
ATOM     12  C   UNK A   1      -7.297  -1.698 125.126  0.00  0.00    +0.000 A 
ATOM     13  C   UNK A   1      -6.538  -2.841 124.999  0.00  0.00    +0.000 A 
ATOM     14  C   UNK A   1      -5.901  -3.075 123.780  0.00  0.00    +0.000 A 
ATOM     15  C   UNK A   1      -6.013  -2.162 122.718  0.00  0.00    +0.000 A 
ATOM     16  C   UNK A   1      -6.762  -0.996 122.857  0.00  0.00    +0.000 A 
ATOM     17  C   UNK A   1      -7.410  -0.787 124.062  0.00  0.00    +0.000 A 
ATOM     18  C   UNK A   1      -8.170   0.426 124.491  0.00  0.00    +0.000 C 
ENDBRANCH   5  10
BRANCH   1  19
ATOM     19  CB  ILE A   2      -4.114   3.936 128.014  0.00  0.00    +0.000 C 
ATOM     20  CG2 ILE A   2      -3.436   3.412 129.192  0.00  0.00    +0.000 C 
BRANCH  19  22
ATOM     21  CD1 ILE A   2      -2.008   3.300 127.086  0.00  0.00    +0.000 C 
ATOM     22  CG1 ILE A   2      -2.878   4.472 127.389  0.00  0.00    +0.000 C 
ENDBRANCH  19  22
ENDBRANCH   1  19
BRANCH   8  23
ATOM     23  C   UNK A   0      -7.055   3.777 129.248  0.00  0.00    +0.000 C 
BRANCH  23  24
ATOM     24  C   UNK A   0      -8.314   5.141 128.740  0.00  0.00    +0.000 C 
ATOM     25  O   UNK A   0      -8.780   5.144 127.581  0.00  0.00    +0.000 OA
ATOM     26  N   UNK A   0      -9.171   6.069 129.712  0.00  0.00    +0.000 N 
ATOM     27  C   UNK A   0      -8.924   6.626 131.161  0.00  0.00    +0.000 C 
ATOM     28  C   UNK A   0      -9.991   6.091 132.294  0.00  0.00    +0.000 C 
ATOM     29  O   UNK A   0     -11.336   6.266 131.870  0.00  0.00    +0.000 OA
ATOM     30  C   UNK A   0     -11.548   5.518 130.646  0.00  0.00    +0.000 C 
ATOM     31  C   UNK A   0     -10.645   6.086 129.475  0.00  0.00    +0.000 C 
ENDBRANCH  23  24
BRANCH  23  32
ATOM     32  C   UNK A   0      -7.215   3.204 130.665  0.00  0.00    +0.000 A 
ATOM     33  C   UNK A   0      -6.062   3.229 131.399  0.00  0.00    +0.000 A 
ATOM     34  C   UNK A   0      -6.033   2.974 132.735  0.00  0.00    +0.000 A 
ATOM     35  C   UNK A   0      -4.687   3.096 133.352  0.00  0.00    +0.000 C 
ATOM     36  C   UNK A   0      -7.240   2.694 133.335  0.00  0.00    +0.000 A 
ATOM     37  N   UNK A   0      -8.412   2.533 132.656  0.00  0.00    +0.000 NA
ATOM     38  C   UNK A   0      -8.409   2.766 131.311  0.00  0.00    +0.000 A 
ATOM     39  C   UNK A   0      -9.773   2.667 130.631  0.00  0.00    +0.000 C 
ENDBRANCH  23  32
ENDBRANCH   8  23
TORSDOF 6
ENDMDL
