MODEL 1
REMARK VINA RESULT:      -9.7      0.000      0.000
REMARK  Name = CHEMBL284419
REMARK  7 active torsions:
REMARK  status: ('A' for Active; 'I' for Inactive)
REMARK    1  A    between atoms: C_1  and  C_2
REMARK    2  A    between atoms: N_4  and  C_5
REMARK    3  A    between atoms: C_5  and  C_6
REMARK    4  A    between atoms: N_8  and  C_9
REMARK    5  A    between atoms: C_9  and  C_10
REMARK    6  A    between atoms: C_14  and  C_15
REMARK    7  A    between atoms: C_20  and  N_21
REMARK                            x       y       z     vdW  Elec       q    Type
REMARK                         _______ _______ _______ _____ _____    ______ ____
ROOT
ATOM      1  C   UNL     1      -8.657   4.098 133.243  0.00  0.00    +0.000 A 
ATOM      2  C   UNL     1      -9.157   3.112 132.417  0.00  0.00    +0.000 A 
ATOM      3  C   UNL     1      -8.345   1.965 132.569  0.00  0.00    +0.000 A 
ATOM      4  C   UNL     1      -8.331   0.683 131.986  0.00  0.00    +0.000 A 
ATOM      5  C   UNL     1      -7.344  -0.242 132.368  0.00  0.00    +0.000 A 
ATOM      6  C   UNL     1      -6.372   0.148 133.305  0.00  0.00    +0.000 A 
ATOM      7  C   UNL     1      -6.389   1.414 133.924  0.00  0.00    +0.000 A 
ATOM      8  C   UNL     1      -7.387   2.300 133.517  0.00  0.00    +0.000 A 
ATOM      9  O   UNL     1      -7.579   3.594 133.939  0.00  0.00    +0.000 OA
ENDROOT
BRANCH   5  10
ATOM     10  C   UNL     1      -7.321  -1.578 131.673  0.00  0.00    +0.000 C 
ATOM     11  O   UNL     1      -7.472  -2.614 132.315  0.00  0.00    +0.000 OA
ATOM     12  N   UNL     1      -7.224  -1.586 130.291  0.00  0.00    +0.000 N 
ATOM     13  C   UNL     1      -8.209  -2.311 129.496  0.00  0.00    +0.000 C 
ATOM     14  C   UNL     1      -7.556  -3.345 128.596  0.00  0.00    +0.000 C 
ATOM     15  C   UNL     1      -6.434  -2.715 127.740  0.00  0.00    +0.000 C 
ATOM     16  C   UNL     1      -5.422  -2.010 128.655  0.00  0.00    +0.000 C 
ATOM     17  C   UNL     1      -6.075  -1.014 129.602  0.00  0.00    +0.000 C 
BRANCH  15  18
ATOM     18  N   UNL     1      -6.972  -1.896 126.603  0.00  0.00    +0.000 N 
ATOM     19  C   UNL     1      -7.989  -0.952 126.738  0.00  0.00    +0.000 C 
ATOM     20  O   UNL     1      -8.036  -0.001 127.510  0.00  0.00    +0.000 OA
ATOM     21  O   UNL     1      -9.050  -1.195 125.931  0.00  0.00    +0.000 OA
ATOM     22  C   UNL     1      -8.693  -0.948 124.589  0.00  0.00    +0.000 C 
ATOM     23  C   UNL     1      -7.426  -1.662 124.234  0.00  0.00    +0.000 A 
ATOM     24  C   UNL     1      -7.079  -1.798 122.889  0.00  0.00    +0.000 A 
ATOM     25  C   UNL     1      -5.893  -2.432 122.545  0.00  0.00    +0.000 A 
ATOM     26  C   UNL     1      -5.053  -2.922 123.543  0.00  0.00    +0.000 A 
ATOM     27  C   UNL     1      -5.398  -2.792 124.893  0.00  0.00    +0.000 A 
ATOM     28  C   UNL     1      -6.591  -2.163 125.252  0.00  0.00    +0.000 A 
ENDBRANCH  15  18
ENDBRANCH   5  10
BRANCH   1  29
ATOM     29  C   UNL     1      -9.073   5.518 133.489  0.00  0.00    +0.000 C 
BRANCH  29  32
ATOM     30  C   UNL     1     -10.691   6.485 131.845  0.00  0.00    +0.000 C 
ATOM     31  O   UNL     1      -9.793   6.990 131.174  0.00  0.00    +0.000 OA
ATOM     32  N   UNL     1     -10.437   5.754 132.990  0.00  0.00    +0.000 N 
ATOM     33  H   UNL     1     -11.212   5.335 133.481  0.00  0.00    +0.000 HD
BRANCH  30  34
ATOM     34  C   UNL     1     -12.183   6.640 131.457  0.00  0.00    +0.000 C 
BRANCH  34  38
ATOM     35  C   UNL     1     -12.741   8.550 128.182  0.00  0.00    +0.000 C 
ATOM     36  C   UNL     1     -12.553   7.370 129.110  0.00  0.00    +0.000 C 
ATOM     37  O   UNL     1     -12.557   6.216 128.692  0.00  0.00    +0.000 OA
ATOM     38  N   UNL     1     -12.379   7.676 130.440  0.00  0.00    +0.000 N 
ATOM     39  H   UNL     1     -12.380   8.639 130.759  0.00  0.00    +0.000 HD
ENDBRANCH  34  38
ENDBRANCH  30  34
ENDBRANCH  29  32
ENDBRANCH   1  29
TORSDOF 6
ENDMDL
MODEL 2
REMARK VINA RESULT:      -9.6      1.291      1.489
REMARK  Name = CHEMBL284419
REMARK  7 active torsions:
REMARK  status: ('A' for Active; 'I' for Inactive)
REMARK    1  A    between atoms: C_1  and  C_2
REMARK    2  A    between atoms: N_4  and  C_5
REMARK    3  A    between atoms: C_5  and  C_6
REMARK    4  A    between atoms: N_8  and  C_9
REMARK    5  A    between atoms: C_9  and  C_10
REMARK    6  A    between atoms: C_14  and  C_15
REMARK    7  A    between atoms: C_20  and  N_21
REMARK                            x       y       z     vdW  Elec       q    Type
REMARK                         _______ _______ _______ _____ _____    ______ ____
ROOT
ATOM      1  C   UNL     1      -8.957   4.282 132.943  0.00  0.00    +0.000 A 
ATOM      2  C   UNL     1      -9.360   3.310 132.050  0.00  0.00    +0.000 A 
ATOM      3  C   UNL     1      -8.549   2.171 132.252  0.00  0.00    +0.000 A 
ATOM      4  C   UNL     1      -8.458   0.904 131.643  0.00  0.00    +0.000 A 
ATOM      5  C   UNL     1      -7.498  -0.017 132.096  0.00  0.00    +0.000 A 
ATOM      6  C   UNL     1      -6.626   0.363 133.130  0.00  0.00    +0.000 A 
ATOM      7  C   UNL     1      -6.722   1.613 133.775  0.00  0.00    +0.000 A 
ATOM      8  C   UNL     1      -7.691   2.495 133.294  0.00  0.00    +0.000 A 
ATOM      9  O   UNL     1      -7.942   3.776 133.727  0.00  0.00    +0.000 OA
ENDROOT
BRANCH   5  10
ATOM     10  C   UNL     1      -7.388  -1.334 131.375  0.00  0.00    +0.000 C 
ATOM     11  O   UNL     1      -7.591  -2.388 131.973  0.00  0.00    +0.000 OA
ATOM     12  N   UNL     1      -7.149  -1.307 130.011  0.00  0.00    +0.000 N 
ATOM     13  C   UNL     1      -8.038  -2.020 129.101  0.00  0.00    +0.000 C 
ATOM     14  C   UNL     1      -7.283  -3.025 128.249  0.00  0.00    +0.000 C 
ATOM     15  C   UNL     1      -6.087  -2.364 127.528  0.00  0.00    +0.000 C 
ATOM     16  C   UNL     1      -5.183  -1.672 128.560  0.00  0.00    +0.000 C 
ATOM     17  C   UNL     1      -5.942  -0.707 129.457  0.00  0.00    +0.000 C 
BRANCH  15  18
ATOM     18  N   UNL     1      -6.515  -1.521 126.362  0.00  0.00    +0.000 N 
ATOM     19  C   UNL     1      -6.160  -0.184 126.198  0.00  0.00    +0.000 C 
ATOM     20  O   UNL     1      -5.035   0.303 126.199  0.00  0.00    +0.000 OA
ATOM     21  O   UNL     1      -7.230   0.639 126.079  0.00  0.00    +0.000 OA
ATOM     22  C   UNL     1      -7.862   0.421 124.836  0.00  0.00    +0.000 C 
ATOM     23  C   UNL     1      -8.132  -1.036 124.623  0.00  0.00    +0.000 A 
ATOM     24  C   UNL     1      -9.016  -1.420 123.614  0.00  0.00    +0.000 A 
ATOM     25  C   UNL     1      -9.255  -2.768 123.385  0.00  0.00    +0.000 A 
ATOM     26  C   UNL     1      -8.605  -3.729 124.157  0.00  0.00    +0.000 A 
ATOM     27  C   UNL     1      -7.720  -3.349 125.172  0.00  0.00    +0.000 A 
ATOM     28  C   UNL     1      -7.477  -1.997 125.418  0.00  0.00    +0.000 A 
ENDBRANCH  15  18
ENDBRANCH   5  10
BRANCH   1  29
ATOM     29  C   UNL     1      -9.418   5.690 133.181  0.00  0.00    +0.000 C 
BRANCH  29  32
ATOM     30  C   UNL     1     -10.891   6.575 131.365  0.00  0.00    +0.000 C 
ATOM     31  O   UNL     1      -9.935   7.018 130.729  0.00  0.00    +0.000 OA
ATOM     32  N   UNL     1     -10.736   5.916 132.569  0.00  0.00    +0.000 N 
ATOM     33  H   UNL     1     -11.554   5.544 133.029  0.00  0.00    +0.000 HD
BRANCH  30  34
ATOM     34  C   UNL     1     -12.347   6.730 130.858  0.00  0.00    +0.000 C 
BRANCH  34  38
ATOM     35  C   UNL     1     -13.203  10.330 129.865  0.00  0.00    +0.000 C 
ATOM     36  C   UNL     1     -12.725   8.903 129.713  0.00  0.00    +0.000 C 
ATOM     37  O   UNL     1     -12.318   8.471 128.638  0.00  0.00    +0.000 OA
ATOM     38  N   UNL     1     -12.777   8.130 130.850  0.00  0.00    +0.000 N 
ATOM     39  H   UNL     1     -13.118   8.512 131.726  0.00  0.00    +0.000 HD
ENDBRANCH  34  38
ENDBRANCH  30  34
ENDBRANCH  29  32
ENDBRANCH   1  29
TORSDOF 6
ENDMDL
MODEL 3
REMARK VINA RESULT:      -9.5      2.474      3.031
REMARK  Name = CHEMBL284419
REMARK  7 active torsions:
REMARK  status: ('A' for Active; 'I' for Inactive)
REMARK    1  A    between atoms: C_1  and  C_2
REMARK    2  A    between atoms: N_4  and  C_5
REMARK    3  A    between atoms: C_5  and  C_6
REMARK    4  A    between atoms: N_8  and  C_9
REMARK    5  A    between atoms: C_9  and  C_10
REMARK    6  A    between atoms: C_14  and  C_15
REMARK    7  A    between atoms: C_20  and  N_21
REMARK                            x       y       z     vdW  Elec       q    Type
REMARK                         _______ _______ _______ _____ _____    ______ ____
ROOT
ATOM      1  C   UNL     1      -9.852   5.222 131.679  0.00  0.00    +0.000 A 
ATOM      2  C   UNL     1      -9.786   3.931 131.198  0.00  0.00    +0.000 A 
ATOM      3  C   UNL     1      -8.426   3.616 130.983  0.00  0.00    +0.000 A 
ATOM      4  C   UNL     1      -7.740   2.489 130.487  0.00  0.00    +0.000 A 
ATOM      5  C   UNL     1      -6.338   2.517 130.391  0.00  0.00    +0.000 A 
ATOM      6  C   UNL     1      -5.653   3.685 130.765  0.00  0.00    +0.000 A 
ATOM      7  C   UNL     1      -6.318   4.810 131.295  0.00  0.00    +0.000 A 
ATOM      8  C   UNL     1      -7.709   4.739 131.374  0.00  0.00    +0.000 A 
ATOM      9  O   UNL     1      -8.572   5.717 131.809  0.00  0.00    +0.000 OA
ENDROOT
BRANCH   5  10
ATOM     10  C   UNL     1      -5.648   1.319 129.794  0.00  0.00    +0.000 C 
ATOM     11  O   UNL     1      -4.920   0.613 130.487  0.00  0.00    +0.000 OA
ATOM     12  N   UNL     1      -5.939   0.995 128.479  0.00  0.00    +0.000 N 
ATOM     13  C   UNL     1      -6.393  -0.351 128.143  0.00  0.00    +0.000 C 
ATOM     14  C   UNL     1      -5.497  -1.005 127.107  0.00  0.00    +0.000 C 
ATOM     15  C   UNL     1      -5.322  -0.100 125.866  0.00  0.00    +0.000 C 
ATOM     16  C   UNL     1      -4.805   1.279 126.303  0.00  0.00    +0.000 C 
ATOM     17  C   UNL     1      -5.663   1.916 127.384  0.00  0.00    +0.000 C 
BRANCH  15  18
ATOM     18  N   UNL     1      -6.536  -0.096 124.984  0.00  0.00    +0.000 N 
ATOM     19  C   UNL     1      -7.158   1.063 124.523  0.00  0.00    +0.000 C 
ATOM     20  O   UNL     1      -6.651   1.998 123.912  0.00  0.00    +0.000 OA
ATOM     21  O   UNL     1      -8.467   1.136 124.863  0.00  0.00    +0.000 OA
ATOM     22  C   UNL     1      -9.203   0.180 124.131  0.00  0.00    +0.000 C 
ATOM     23  C   UNL     1      -8.574  -1.174 124.238  0.00  0.00    +0.000 A 
ATOM     24  C   UNL     1      -9.311  -2.295 123.850  0.00  0.00    +0.000 A 
ATOM     25  C   UNL     1      -8.732  -3.555 123.915  0.00  0.00    +0.000 A 
ATOM     26  C   UNL     1      -7.419  -3.693 124.361  0.00  0.00    +0.000 A 
ATOM     27  C   UNL     1      -6.677  -2.573 124.754  0.00  0.00    +0.000 A 
ATOM     28  C   UNL     1      -7.250  -1.301 124.700  0.00  0.00    +0.000 A 
ENDBRANCH  15  18
ENDBRANCH   5  10
BRANCH   1  29
ATOM     29  C   UNL     1     -11.007   6.102 132.057  0.00  0.00    +0.000 C 
BRANCH  29  32
ATOM     30  C   UNL     1     -12.482   7.663 130.775  0.00  0.00    +0.000 C 
ATOM     31  O   UNL     1     -13.487   7.300 131.383  0.00  0.00    +0.000 OA
ATOM     32  N   UNL     1     -11.231   7.134 131.033  0.00  0.00    +0.000 N 
ATOM     33  H   UNL     1     -10.437   7.495 130.526  0.00  0.00    +0.000 HD
BRANCH  30  34
ATOM     34  C   UNL     1     -12.546   8.742 129.664  0.00  0.00    +0.000 C 
BRANCH  34  38
ATOM     35  C   UNL     1     -10.992   7.515 126.384  0.00  0.00    +0.000 C 
ATOM     36  C   UNL     1     -11.067   8.134 127.762  0.00  0.00    +0.000 C 
ATOM     37  O   UNL     1     -10.068   8.574 128.325  0.00  0.00    +0.000 OA
ATOM     38  N   UNL     1     -12.317   8.171 128.335  0.00  0.00    +0.000 N 
ATOM     39  H   UNL     1     -13.127   7.800 127.847  0.00  0.00    +0.000 HD
ENDBRANCH  34  38
ENDBRANCH  30  34
ENDBRANCH  29  32
ENDBRANCH   1  29
TORSDOF 6
ENDMDL
MODEL 4
REMARK VINA RESULT:      -9.5      7.373     11.034
REMARK  Name = CHEMBL284419
REMARK  7 active torsions:
REMARK  status: ('A' for Active; 'I' for Inactive)
REMARK    1  A    between atoms: C_1  and  C_2
REMARK    2  A    between atoms: N_4  and  C_5
REMARK    3  A    between atoms: C_5  and  C_6
REMARK    4  A    between atoms: N_8  and  C_9
REMARK    5  A    between atoms: C_9  and  C_10
REMARK    6  A    between atoms: C_14  and  C_15
REMARK    7  A    between atoms: C_20  and  N_21
REMARK                            x       y       z     vdW  Elec       q    Type
REMARK                         _______ _______ _______ _____ _____    ______ ____
ROOT
ATOM      1  C   UNL     1      -9.606   5.979 132.224  0.00  0.00    +0.000 A 
ATOM      2  C   UNL     1      -8.460   6.119 131.467  0.00  0.00    +0.000 A 
ATOM      3  C   UNL     1      -7.351   5.916 132.318  0.00  0.00    +0.000 A 
ATOM      4  C   UNL     1      -5.953   5.956 132.143  0.00  0.00    +0.000 A 
ATOM      5  C   UNL     1      -5.109   5.710 133.239  0.00  0.00    +0.000 A 
ATOM      6  C   UNL     1      -5.683   5.459 134.497  0.00  0.00    +0.000 A 
ATOM      7  C   UNL     1      -7.078   5.381 134.686  0.00  0.00    +0.000 A 
ATOM      8  C   UNL     1      -7.878   5.631 133.570  0.00  0.00    +0.000 A 
ATOM      9  O   UNL     1      -9.252   5.657 133.517  0.00  0.00    +0.000 OA
ENDROOT
BRANCH   5  10
ATOM     10  C   UNL     1      -3.623   5.829 133.027  0.00  0.00    +0.000 C 
ATOM     11  O   UNL     1      -3.006   4.938 132.449  0.00  0.00    +0.000 OA
ATOM     12  N   UNL     1      -3.007   7.007 133.415  0.00  0.00    +0.000 N 
ATOM     13  C   UNL     1      -2.195   7.754 132.461  0.00  0.00    +0.000 C 
ATOM     14  C   UNL     1      -0.779   7.962 132.968  0.00  0.00    +0.000 C 
ATOM     15  C   UNL     1      -0.775   8.586 134.381  0.00  0.00    +0.000 C 
ATOM     16  C   UNL     1      -1.617   7.719 135.330  0.00  0.00    +0.000 C 
ATOM     17  C   UNL     1      -3.018   7.456 134.802  0.00  0.00    +0.000 C 
BRANCH  15  18
ATOM     18  N   UNL     1      -1.107  10.050 134.362  0.00  0.00    +0.000 N 
ATOM     19  C   UNL     1      -2.215  10.603 135.002  0.00  0.00    +0.000 C 
ATOM     20  O   UNL     1      -2.535  10.496 136.181  0.00  0.00    +0.000 OA
ATOM     21  O   UNL     1      -3.027  11.290 134.162  0.00  0.00    +0.000 OA
ATOM     22  C   UNL     1      -2.389  12.479 133.749  0.00  0.00    +0.000 C 
ATOM     23  C   UNL     1      -1.010  12.195 133.239  0.00  0.00    +0.000 A 
ATOM     24  C   UNL     1      -0.345  13.178 132.505  0.00  0.00    +0.000 A 
ATOM     25  C   UNL     1       0.945  12.942 132.049  0.00  0.00    +0.000 A 
ATOM     26  C   UNL     1       1.570  11.729 132.333  0.00  0.00    +0.000 A 
ATOM     27  C   UNL     1       0.906  10.739 133.065  0.00  0.00    +0.000 A 
ATOM     28  C   UNL     1      -0.394  10.960 133.523  0.00  0.00    +0.000 A 
ENDBRANCH  15  18
ENDBRANCH   5  10
BRANCH   1  29
ATOM     29  C   UNL     1     -11.062   6.108 131.887  0.00  0.00    +0.000 C 
BRANCH  29  32
ATOM     30  C   UNL     1     -12.504   7.765 130.691  0.00  0.00    +0.000 C 
ATOM     31  O   UNL     1     -13.502   7.444 131.333  0.00  0.00    +0.000 OA
ATOM     32  N   UNL     1     -11.273   7.168 130.890  0.00  0.00    +0.000 N 
ATOM     33  H   UNL     1     -10.482   7.497 130.356  0.00  0.00    +0.000 HD
BRANCH  30  34
ATOM     34  C   UNL     1     -12.556   8.866 129.602  0.00  0.00    +0.000 C 
BRANCH  34  38
ATOM     35  C   UNL     1     -10.945   7.654 126.343  0.00  0.00    +0.000 C 
ATOM     36  C   UNL     1     -11.039   8.236 127.737  0.00  0.00    +0.000 C 
ATOM     37  O   UNL     1     -10.041   8.604 128.350  0.00  0.00    +0.000 OA
ATOM     38  N   UNL     1     -12.307   8.324 128.264  0.00  0.00    +0.000 N 
ATOM     39  H   UNL     1     -13.115   8.012 127.736  0.00  0.00    +0.000 HD
ENDBRANCH  34  38
ENDBRANCH  30  34
ENDBRANCH  29  32
ENDBRANCH   1  29
TORSDOF 6
ENDMDL
MODEL 5
REMARK VINA RESULT:      -9.4      2.083      2.729
REMARK  Name = CHEMBL284419
REMARK  7 active torsions:
REMARK  status: ('A' for Active; 'I' for Inactive)
REMARK    1  A    between atoms: C_1  and  C_2
REMARK    2  A    between atoms: N_4  and  C_5
REMARK    3  A    between atoms: C_5  and  C_6
REMARK    4  A    between atoms: N_8  and  C_9
REMARK    5  A    between atoms: C_9  and  C_10
REMARK    6  A    between atoms: C_14  and  C_15
REMARK    7  A    between atoms: C_20  and  N_21
REMARK                            x       y       z     vdW  Elec       q    Type
REMARK                         _______ _______ _______ _____ _____    ______ ____
ROOT
ATOM      1  C   UNL     1      -9.441   5.830 130.475  0.00  0.00    +0.000 A 
ATOM      2  C   UNL     1      -9.008   4.852 129.605  0.00  0.00    +0.000 A 
ATOM      3  C   UNL     1      -8.931   3.636 130.321  0.00  0.00    +0.000 A 
ATOM      4  C   UNL     1      -8.535   2.323 129.996  0.00  0.00    +0.000 A 
ATOM      5  C   UNL     1      -8.571   1.324 130.983  0.00  0.00    +0.000 A 
ATOM      6  C   UNL     1      -8.972   1.667 132.285  0.00  0.00    +0.000 A 
ATOM      7  C   UNL     1      -9.403   2.967 132.622  0.00  0.00    +0.000 A 
ATOM      8  C   UNL     1      -9.354   3.927 131.611  0.00  0.00    +0.000 A 
ATOM      9  O   UNL     1      -9.677   5.259 131.708  0.00  0.00    +0.000 OA
ENDROOT
BRANCH   5  10
ATOM     10  C   UNL     1      -8.076  -0.050 130.615  0.00  0.00    +0.000 C 
ATOM     11  O   UNL     1      -8.337  -1.015 131.329  0.00  0.00    +0.000 OA
ATOM     12  N   UNL     1      -7.412  -0.197 129.409  0.00  0.00    +0.000 N 
ATOM     13  C   UNL     1      -7.865  -1.191 128.442  0.00  0.00    +0.000 C 
ATOM     14  C   UNL     1      -6.760  -2.168 128.080  0.00  0.00    +0.000 C 
ATOM     15  C   UNL     1      -5.482  -1.426 127.628  0.00  0.00    +0.000 C 
ATOM     16  C   UNL     1      -5.052  -0.431 128.716  0.00  0.00    +0.000 C 
ATOM     17  C   UNL     1      -6.170   0.513 129.129  0.00  0.00    +0.000 C 
BRANCH  15  18
ATOM     18  N   UNL     1      -5.604  -0.868 126.240  0.00  0.00    +0.000 N 
ATOM     19  C   UNL     1      -5.843   0.476 125.961  0.00  0.00    +0.000 C 
ATOM     20  O   UNL     1      -5.208   1.451 126.350  0.00  0.00    +0.000 OA
ATOM     21  O   UNL     1      -6.952   0.674 125.209  0.00  0.00    +0.000 OA
ATOM     22  C   UNL     1      -6.725   0.210 123.895  0.00  0.00    +0.000 C 
ATOM     23  C   UNL     1      -6.185  -1.186 123.909  0.00  0.00    +0.000 A 
ATOM     24  C   UNL     1      -6.190  -1.925 122.725  0.00  0.00    +0.000 A 
ATOM     25  C   UNL     1      -5.667  -3.211 122.714  0.00  0.00    +0.000 A 
ATOM     26  C   UNL     1      -5.133  -3.752 123.882  0.00  0.00    +0.000 A 
ATOM     27  C   UNL     1      -5.129  -3.018 125.072  0.00  0.00    +0.000 A 
ATOM     28  C   UNL     1      -5.659  -1.726 125.099  0.00  0.00    +0.000 A 
ENDBRANCH  15  18
ENDBRANCH   5  10
BRANCH   1  29
ATOM     29  C   UNL     1      -9.683   7.301 130.304  0.00  0.00    +0.000 C 
BRANCH  29  32
ATOM     30  C   UNL     1     -11.428   8.304 128.820  0.00  0.00    +0.000 C 
ATOM     31  O   UNL     1     -10.587   8.806 128.077  0.00  0.00    +0.000 OA
ATOM     32  N   UNL     1     -11.083   7.557 129.930  0.00  0.00    +0.000 N 
ATOM     33  H   UNL     1     -11.817   7.141 130.483  0.00  0.00    +0.000 HD
BRANCH  30  34
ATOM     34  C   UNL     1     -12.947   8.479 128.566  0.00  0.00    +0.000 C 
BRANCH  34  38
ATOM     35  C   UNL     1     -13.861  12.030 129.678  0.00  0.00    +0.000 C 
ATOM     36  C   UNL     1     -13.430  10.584 129.794  0.00  0.00    +0.000 C 
ATOM     37  O   UNL     1     -13.169  10.076 130.881  0.00  0.00    +0.000 OA
ATOM     38  N   UNL     1     -13.350   9.886 128.612  0.00  0.00    +0.000 N 
ATOM     39  H   UNL     1     -13.570  10.331 127.726  0.00  0.00    +0.000 HD
ENDBRANCH  34  38
ENDBRANCH  30  34
ENDBRANCH  29  32
ENDBRANCH   1  29
TORSDOF 6
ENDMDL
MODEL 6
REMARK VINA RESULT:      -9.2      3.569      8.244
REMARK  Name = CHEMBL284419
REMARK  7 active torsions:
REMARK  status: ('A' for Active; 'I' for Inactive)
REMARK    1  A    between atoms: C_1  and  C_2
REMARK    2  A    between atoms: N_4  and  C_5
REMARK    3  A    between atoms: C_5  and  C_6
REMARK    4  A    between atoms: N_8  and  C_9
REMARK    5  A    between atoms: C_9  and  C_10
REMARK    6  A    between atoms: C_14  and  C_15
REMARK    7  A    between atoms: C_20  and  N_21
REMARK                            x       y       z     vdW  Elec       q    Type
REMARK                         _______ _______ _______ _____ _____    ______ ____
ROOT
ATOM      1  C   UNL     1      -8.751  -1.794 124.744  0.00  0.00    +0.000 A 
ATOM      2  C   UNL     1      -8.014  -1.108 125.688  0.00  0.00    +0.000 A 
ATOM      3  C   UNL     1      -8.092  -1.823 126.904  0.00  0.00    +0.000 A 
ATOM      4  C   UNL     1      -7.587  -1.616 128.203  0.00  0.00    +0.000 A 
ATOM      5  C   UNL     1      -7.874  -2.549 129.215  0.00  0.00    +0.000 A 
ATOM      6  C   UNL     1      -8.687  -3.654 128.911  0.00  0.00    +0.000 A 
ATOM      7  C   UNL     1      -9.173  -3.896 127.610  0.00  0.00    +0.000 A 
ATOM      8  C   UNL     1      -8.863  -2.946 126.637  0.00  0.00    +0.000 A 
ATOM      9  O   UNL     1      -9.258  -2.940 125.320  0.00  0.00    +0.000 OA
ENDROOT
BRANCH   5  10
ATOM     10  C   UNL     1      -7.374  -2.259 130.605  0.00  0.00    +0.000 C 
ATOM     11  O   UNL     1      -7.124  -3.179 131.380  0.00  0.00    +0.000 OA
ATOM     12  N   UNL     1      -7.117  -0.939 130.938  0.00  0.00    +0.000 N 
ATOM     13  C   UNL     1      -5.811  -0.561 131.466  0.00  0.00    +0.000 C 
ATOM     14  C   UNL     1      -5.926   0.117 132.820  0.00  0.00    +0.000 C 
ATOM     15  C   UNL     1      -6.922   1.297 132.773  0.00  0.00    +0.000 C 
ATOM     16  C   UNL     1      -8.279   0.806 132.245  0.00  0.00    +0.000 C 
ATOM     17  C   UNL     1      -8.165   0.073 130.918  0.00  0.00    +0.000 C 
BRANCH  15  18
ATOM     18  N   UNL     1      -6.350   2.504 132.088  0.00  0.00    +0.000 N 
ATOM     19  C   UNL     1      -7.005   3.208 131.080  0.00  0.00    +0.000 C 
ATOM     20  O   UNL     1      -8.128   3.699 131.111  0.00  0.00    +0.000 OA
ATOM     21  O   UNL     1      -6.287   3.286 129.933  0.00  0.00    +0.000 OA
ATOM     22  C   UNL     1      -5.180   4.140 130.121  0.00  0.00    +0.000 C 
ATOM     23  C   UNL     1      -4.413   3.757 131.348  0.00  0.00    +0.000 A 
ATOM     24  C   UNL     1      -3.129   4.273 131.531  0.00  0.00    +0.000 A 
ATOM     25  C   UNL     1      -2.415   3.950 132.677  0.00  0.00    +0.000 A 
ATOM     26  C   UNL     1      -2.986   3.120 133.640  0.00  0.00    +0.000 A 
ATOM     27  C   UNL     1      -4.271   2.597 133.459  0.00  0.00    +0.000 A 
ATOM     28  C   UNL     1      -4.997   2.908 132.308  0.00  0.00    +0.000 A 
ENDBRANCH  15  18
ENDBRANCH   5  10
BRANCH   1  29
ATOM     29  C   UNL     1      -9.058  -1.515 123.303  0.00  0.00    +0.000 C 
BRANCH  29  32
ATOM     30  C   UNL     1      -9.804   0.810 122.764  0.00  0.00    +0.000 C 
ATOM     31  O   UNL     1     -10.993   0.503 122.829  0.00  0.00    +0.000 OA
ATOM     32  N   UNL     1      -8.792  -0.106 122.978  0.00  0.00    +0.000 N 
ATOM     33  H   UNL     1      -7.834   0.212 122.946  0.00  0.00    +0.000 HD
BRANCH  30  34
ATOM     34  C   UNL     1      -9.354   2.255 122.432  0.00  0.00    +0.000 C 
BRANCH  34  38
ATOM     35  C   UNL     1      -6.540   3.463 124.736  0.00  0.00    +0.000 C 
ATOM     36  C   UNL     1      -7.949   3.201 124.251  0.00  0.00    +0.000 C 
ATOM     37  O   UNL     1      -8.929   3.532 124.912  0.00  0.00    +0.000 OA
ATOM     38  N   UNL     1      -8.056   2.574 123.031  0.00  0.00    +0.000 N 
ATOM     39  H   UNL     1      -7.228   2.310 122.505  0.00  0.00    +0.000 HD
ENDBRANCH  34  38
ENDBRANCH  30  34
ENDBRANCH  29  32
ENDBRANCH   1  29
TORSDOF 6
ENDMDL
MODEL 7
REMARK VINA RESULT:      -9.2      8.784     12.989
REMARK  Name = CHEMBL284419
REMARK  7 active torsions:
REMARK  status: ('A' for Active; 'I' for Inactive)
REMARK    1  A    between atoms: C_1  and  C_2
REMARK    2  A    between atoms: N_4  and  C_5
REMARK    3  A    between atoms: C_5  and  C_6
REMARK    4  A    between atoms: N_8  and  C_9
REMARK    5  A    between atoms: C_9  and  C_10
REMARK    6  A    between atoms: C_14  and  C_15
REMARK    7  A    between atoms: C_20  and  N_21
REMARK                            x       y       z     vdW  Elec       q    Type
REMARK                         _______ _______ _______ _____ _____    ______ ____
ROOT
ATOM      1  C   UNL     1      -4.881   4.024 127.573  0.00  0.00    +0.000 A 
ATOM      2  C   UNL     1      -4.666   3.789 128.915  0.00  0.00    +0.000 A 
ATOM      3  C   UNL     1      -3.704   4.718 129.370  0.00  0.00    +0.000 A 
ATOM      4  C   UNL     1      -3.068   4.954 130.605  0.00  0.00    +0.000 A 
ATOM      5  C   UNL     1      -2.119   5.986 130.711  0.00  0.00    +0.000 A 
ATOM      6  C   UNL     1      -1.805   6.741 129.569  0.00  0.00    +0.000 A 
ATOM      7  C   UNL     1      -2.453   6.542 128.332  0.00  0.00    +0.000 A 
ATOM      8  C   UNL     1      -3.389   5.509 128.273  0.00  0.00    +0.000 A 
ATOM      9  O   UNL     1      -4.111   5.098 127.178  0.00  0.00    +0.000 OA
ENDROOT
BRANCH   5  10
ATOM     10  C   UNL     1      -1.413   6.163 132.029  0.00  0.00    +0.000 C 
ATOM     11  O   UNL     1      -0.901   5.199 132.593  0.00  0.00    +0.000 OA
ATOM     12  N   UNL     1      -1.279   7.450 132.523  0.00  0.00    +0.000 N 
ATOM     13  C   UNL     1       0.040   7.960 132.884  0.00  0.00    +0.000 C 
ATOM     14  C   UNL     1       0.089   8.421 134.330  0.00  0.00    +0.000 C 
ATOM     15  C   UNL     1      -1.048   9.420 134.638  0.00  0.00    +0.000 C 
ATOM     16  C   UNL     1      -2.401   8.792 134.268  0.00  0.00    +0.000 C 
ATOM     17  C   UNL     1      -2.439   8.273 132.839  0.00  0.00    +0.000 C 
BRANCH  15  18
ATOM     18  N   UNL     1      -0.782  10.784 134.072  0.00  0.00    +0.000 N 
ATOM     19  C   UNL     1      -1.669  11.468 133.242  0.00  0.00    +0.000 C 
ATOM     20  O   UNL     1      -2.847  11.733 133.455  0.00  0.00    +0.000 OA
ATOM     21  O   UNL     1      -1.124  11.813 132.051  0.00  0.00    +0.000 OA
ATOM     22  C   UNL     1      -0.166  12.831 132.242  0.00  0.00    +0.000 C 
ATOM     23  C   UNL     1       0.803  12.456 133.320  0.00  0.00    +0.000 A 
ATOM     24  C   UNL     1       1.991  13.178 133.442  0.00  0.00    +0.000 A 
ATOM     25  C   UNL     1       2.887  12.861 134.454  0.00  0.00    +0.000 A 
ATOM     26  C   UNL     1       2.592  11.832 135.346  0.00  0.00    +0.000 A 
ATOM     27  C   UNL     1       1.404  11.103 135.225  0.00  0.00    +0.000 A 
ATOM     28  C   UNL     1       0.497  11.406 134.208  0.00  0.00    +0.000 A 
ENDBRANCH  15  18
ENDBRANCH   5  10
BRANCH   1  29
ATOM     29  C   UNL     1      -5.755   3.352 126.556  0.00  0.00    +0.000 C 
BRANCH  29  32
ATOM     30  C   UNL     1      -6.061   4.016 124.164  0.00  0.00    +0.000 C 
ATOM     31  O   UNL     1      -7.263   4.223 124.317  0.00  0.00    +0.000 OA
ATOM     32  N   UNL     1      -5.247   3.588 125.196  0.00  0.00    +0.000 N 
ATOM     33  H   UNL     1      -4.260   3.469 125.019  0.00  0.00    +0.000 HD
BRANCH  30  34
ATOM     34  C   UNL     1      -5.368   4.218 122.792  0.00  0.00    +0.000 C 
BRANCH  34  38
ATOM     35  C   UNL     1      -7.150   4.259 119.400  0.00  0.00    +0.000 C 
ATOM     36  C   UNL     1      -6.113   4.591 120.451  0.00  0.00    +0.000 C 
ATOM     37  O   UNL     1      -5.177   5.350 120.215  0.00  0.00    +0.000 OA
ATOM     38  N   UNL     1      -6.290   3.992 121.677  0.00  0.00    +0.000 N 
ATOM     39  H   UNL     1      -7.072   3.368 121.846  0.00  0.00    +0.000 HD
ENDBRANCH  34  38
ENDBRANCH  30  34
ENDBRANCH  29  32
ENDBRANCH   1  29
TORSDOF 6
ENDMDL
MODEL 8
REMARK VINA RESULT:      -9.1      7.794     11.881
REMARK  Name = CHEMBL284419
REMARK  7 active torsions:
REMARK  status: ('A' for Active; 'I' for Inactive)
REMARK    1  A    between atoms: C_1  and  C_2
REMARK    2  A    between atoms: N_4  and  C_5
REMARK    3  A    between atoms: C_5  and  C_6
REMARK    4  A    between atoms: N_8  and  C_9
REMARK    5  A    between atoms: C_9  and  C_10
REMARK    6  A    between atoms: C_14  and  C_15
REMARK    7  A    between atoms: C_20  and  N_21
REMARK                            x       y       z     vdW  Elec       q    Type
REMARK                         _______ _______ _______ _____ _____    ______ ____
ROOT
ATOM      1  C   UNL     1      -8.835   6.134 131.859  0.00  0.00    +0.000 A 
ATOM      2  C   UNL     1      -7.953   5.723 132.837  0.00  0.00    +0.000 A 
ATOM      3  C   UNL     1      -6.659   6.149 132.462  0.00  0.00    +0.000 A 
ATOM      4  C   UNL     1      -5.373   6.009 133.022  0.00  0.00    +0.000 A 
ATOM      5  C   UNL     1      -4.264   6.564 132.360  0.00  0.00    +0.000 A 
ATOM      6  C   UNL     1      -4.462   7.221 131.135  0.00  0.00    +0.000 A 
ATOM      7  C   UNL     1      -5.744   7.402 130.575  0.00  0.00    +0.000 A 
ATOM      8  C   UNL     1      -6.816   6.836 131.266  0.00  0.00    +0.000 A 
ATOM      9  O   UNL     1      -8.141   6.840 130.899  0.00  0.00    +0.000 OA
ENDROOT
BRANCH   5  10
ATOM     10  C   UNL     1      -2.900   6.334 132.955  0.00  0.00    +0.000 C 
ATOM     11  O   UNL     1      -2.418   5.205 132.984  0.00  0.00    +0.000 OA
ATOM     12  N   UNL     1      -2.181   7.443 133.370  0.00  0.00    +0.000 N 
ATOM     13  C   UNL     1      -0.828   7.664 132.870  0.00  0.00    +0.000 C 
ATOM     14  C   UNL     1       0.179   7.773 134.002  0.00  0.00    +0.000 C 
ATOM     15  C   UNL     1      -0.259   8.827 135.043  0.00  0.00    +0.000 C 
ATOM     16  C   UNL     1      -1.673   8.498 135.546  0.00  0.00    +0.000 C 
ATOM     17  C   UNL     1      -2.677   8.329 134.416  0.00  0.00    +0.000 C 
BRANCH  15  18
ATOM     18  N   UNL     1      -0.045  10.232 134.561  0.00  0.00    +0.000 N 
ATOM     19  C   UNL     1      -0.873  10.873 133.642  0.00  0.00    +0.000 C 
ATOM     20  O   UNL     1      -2.088  11.028 133.702  0.00  0.00    +0.000 OA
ATOM     21  O   UNL     1      -0.210  11.315 132.546  0.00  0.00    +0.000 OA
ATOM     22  C   UNL     1       0.619  12.401 132.897  0.00  0.00    +0.000 C 
ATOM     23  C   UNL     1       1.468  12.063 134.083  0.00  0.00    +0.000 A 
ATOM     24  C   UNL     1       2.561  12.878 134.387  0.00  0.00    +0.000 A 
ATOM     25  C   UNL     1       3.341  12.595 135.499  0.00  0.00    +0.000 A 
ATOM     26  C   UNL     1       3.025  11.506 136.310  0.00  0.00    +0.000 A 
ATOM     27  C   UNL     1       1.933  10.685 136.008  0.00  0.00    +0.000 A 
ATOM     28  C   UNL     1       1.145  10.953 134.887  0.00  0.00    +0.000 A 
ENDBRANCH  15  18
ENDBRANCH   5  10
BRANCH   1  29
ATOM     29  C   UNL     1     -10.315   5.953 131.692  0.00  0.00    +0.000 C 
BRANCH  29  32
ATOM     30  C   UNL     1     -12.168   7.356 130.768  0.00  0.00    +0.000 C 
ATOM     31  O   UNL     1     -12.973   6.936 131.598  0.00  0.00    +0.000 OA
ATOM     32  N   UNL     1     -10.853   6.933 130.736  0.00  0.00    +0.000 N 
ATOM     33  H   UNL     1     -10.229   7.338 130.053  0.00  0.00    +0.000 HD
BRANCH  30  34
ATOM     34  C   UNL     1     -12.575   8.392 129.691  0.00  0.00    +0.000 C 
BRANCH  34  38
ATOM     35  C   UNL     1     -10.839   7.617 126.363  0.00  0.00    +0.000 C 
ATOM     36  C   UNL     1     -11.862   7.524 127.474  0.00  0.00    +0.000 C 
ATOM     37  O   UNL     1     -12.805   6.739 127.416  0.00  0.00    +0.000 OA
ATOM     38  N   UNL     1     -11.667   8.369 128.541  0.00  0.00    +0.000 N 
ATOM     39  H   UNL     1     -10.880   9.010 128.563  0.00  0.00    +0.000 HD
ENDBRANCH  34  38
ENDBRANCH  30  34
ENDBRANCH  29  32
ENDBRANCH   1  29
TORSDOF 6
ENDMDL
MODEL 9
REMARK VINA RESULT:      -8.9      2.387      3.063
REMARK  Name = CHEMBL284419
REMARK  7 active torsions:
REMARK  status: ('A' for Active; 'I' for Inactive)
REMARK    1  A    between atoms: C_1  and  C_2
REMARK    2  A    between atoms: N_4  and  C_5
REMARK    3  A    between atoms: C_5  and  C_6
REMARK    4  A    between atoms: N_8  and  C_9
REMARK    5  A    between atoms: C_9  and  C_10
REMARK    6  A    between atoms: C_14  and  C_15
REMARK    7  A    between atoms: C_20  and  N_21
REMARK                            x       y       z     vdW  Elec       q    Type
REMARK                         _______ _______ _______ _____ _____    ______ ____
ROOT
ATOM      1  C   UNL     1      -9.510   5.448 131.585  0.00  0.00    +0.000 A 
ATOM      2  C   UNL     1      -9.263   4.094 131.487  0.00  0.00    +0.000 A 
ATOM      3  C   UNL     1      -7.939   3.927 131.021  0.00  0.00    +0.000 A 
ATOM      4  C   UNL     1      -7.140   2.811 130.701  0.00  0.00    +0.000 A 
ATOM      5  C   UNL     1      -5.827   3.009 130.238  0.00  0.00    +0.000 A 
ATOM      6  C   UNL     1      -5.354   4.321 130.075  0.00  0.00    +0.000 A 
ATOM      7  C   UNL     1      -6.126   5.449 130.421  0.00  0.00    +0.000 A 
ATOM      8  C   UNL     1      -7.421   5.207 130.879  0.00  0.00    +0.000 A 
ATOM      9  O   UNL     1      -8.370   6.138 131.231  0.00  0.00    +0.000 OA
ENDROOT
BRANCH   5  10
ATOM     10  C   UNL     1      -5.028   1.795 129.842  0.00  0.00    +0.000 C 
ATOM     11  O   UNL     1      -3.920   1.595 130.333  0.00  0.00    +0.000 OA
ATOM     12  N   UNL     1      -5.624   0.878 128.992  0.00  0.00    +0.000 N 
ATOM     13  C   UNL     1      -5.697  -0.529 129.373  0.00  0.00    +0.000 C 
ATOM     14  C   UNL     1      -5.043  -1.426 128.337  0.00  0.00    +0.000 C 
ATOM     15  C   UNL     1      -5.606  -1.154 126.924  0.00  0.00    +0.000 C 
ATOM     16  C   UNL     1      -5.454   0.337 126.587  0.00  0.00    +0.000 C 
ATOM     17  C   UNL     1      -6.053   1.246 127.649  0.00  0.00    +0.000 C 
BRANCH  15  18
ATOM     18  N   UNL     1      -6.977  -1.734 126.731  0.00  0.00    +0.000 N 
ATOM     19  C   UNL     1      -7.816  -2.109 127.779  0.00  0.00    +0.000 C 
ATOM     20  O   UNL     1      -8.185  -1.429 128.730  0.00  0.00    +0.000 OA
ATOM     21  O   UNL     1      -8.200  -3.407 127.714  0.00  0.00    +0.000 OA
ATOM     22  C   UNL     1      -9.092  -3.587 126.636  0.00  0.00    +0.000 C 
ATOM     23  C   UNL     1      -8.530  -3.007 125.375  0.00  0.00    +0.000 A 
ATOM     24  C   UNL     1      -9.110  -3.354 124.154  0.00  0.00    +0.000 A 
ATOM     25  C   UNL     1      -8.619  -2.803 122.978  0.00  0.00    +0.000 A 
ATOM     26  C   UNL     1      -7.556  -1.903 123.025  0.00  0.00    +0.000 A 
ATOM     27  C   UNL     1      -6.968  -1.556 124.246  0.00  0.00    +0.000 A 
ATOM     28  C   UNL     1      -7.447  -2.108 125.435  0.00  0.00    +0.000 A 
ENDBRANCH  15  18
ENDBRANCH   5  10
BRANCH   1  29
ATOM     29  C   UNL     1     -10.727   6.226 131.989  0.00  0.00    +0.000 C 
BRANCH  29  32
ATOM     30  C   UNL     1     -12.489   7.535 130.789  0.00  0.00    +0.000 C 
ATOM     31  O   UNL     1     -13.348   7.246 131.620  0.00  0.00    +0.000 OA
ATOM     32  N   UNL     1     -11.186   7.083 130.885  0.00  0.00    +0.000 N 
ATOM     33  H   UNL     1     -10.516   7.381 130.191  0.00  0.00    +0.000 HD
BRANCH  30  34
ATOM     34  C   UNL     1     -12.809   8.429 129.565  0.00  0.00    +0.000 C 
BRANCH  34  38
ATOM     35  C   UNL     1     -10.711   7.472 126.504  0.00  0.00    +0.000 C 
ATOM     36  C   UNL     1     -11.862   7.450 127.486  0.00  0.00    +0.000 C 
ATOM     37  O   UNL     1     -12.813   6.686 127.346  0.00  0.00    +0.000 OA
ATOM     38  N   UNL     1     -11.772   8.336 128.535  0.00  0.00    +0.000 N 
ATOM     39  H   UNL     1     -10.975   8.957 128.626  0.00  0.00    +0.000 HD
ENDBRANCH  34  38
ENDBRANCH  30  34
ENDBRANCH  29  32
ENDBRANCH   1  29
TORSDOF 6
ENDMDL
