MODEL 1
REMARK VINA RESULT:      -9.4      0.000      0.000
REMARK  Name = CHEMBL2037489
REMARK  12 active torsions:
REMARK  status: ('A' for Active; 'I' for Inactive)
REMARK    1  A    between atoms: CD1_1  and  CG_2
REMARK    2  A    between atoms: CG_2  and  CD2_3
REMARK    3  A    between atoms: CG_2  and  CB_4
REMARK    4  A    between atoms: CB_4  and  CA_5
REMARK    5  A    between atoms: C_9  and  C_10
REMARK    6  A    between atoms: N_21  and  C_22
REMARK    7  A    between atoms: C_22  and  C_23
REMARK    8  A    between atoms: C_22  and  C_28
REMARK    9  A    between atoms: N_25  and  C_26
REMARK   10  A    between atoms: N_25  and  C_27
REMARK   11  A    between atoms: N_32  and  C_33
REMARK   12  A    between atoms: N_32  and  C_34
REMARK                            x       y       z     vdW  Elec       q    Type
REMARK                         _______ _______ _______ _____ _____    ______ ____
ROOT
ATOM      1  CA  LEU A   2      -5.393   3.319 128.125  0.00  0.00    +0.000 C 
ATOM      2  C   LEU A   2      -5.995   2.432 129.313  0.00  0.00    +0.000 C 
ATOM      3  O   LEU A   2      -5.577   1.394 129.759  0.00  0.00    +0.000 OA
ATOM      4  N   UNK A   1      -7.141   2.960 129.813  0.00  0.00    +0.000 N 
ATOM      5  C   UNK A   1      -7.658   4.206 129.318  0.00  0.00    +0.000 C 
ATOM      6  C   UNK A   1      -7.683   4.179 127.794  0.00  0.00    +0.000 C 
ATOM      7  O   UNK A   1      -8.577   4.778 127.238  0.00  0.00    +0.000 OA
ATOM      8  N   LEU A   2      -6.607   3.494 127.184  0.00  0.00    +0.000 N 
ATOM      9  H   UNK A   1      -7.563   2.416 130.556  0.00  0.00    +0.000 HD
ENDROOT
BRANCH   5  10
ATOM     10  C   UNK A   1      -9.114   4.455 129.737  0.00  0.00    +0.000 C 
ATOM     11  C   UNK A   1      -9.213   5.762 130.518  0.00  0.00    +0.000 C 
ATOM     12  C   UNK A   1      -9.030   5.266 131.919  0.00  0.00    +0.000 A 
ATOM     13  C   UNK A   1      -8.539   5.977 132.996  0.00  0.00    +0.000 A 
ATOM     14  C   UNK A   1      -8.301   5.287 134.185  0.00  0.00    +0.000 A 
ATOM     15  C   UNK A   1      -8.534   3.904 134.279  0.00  0.00    +0.000 A 
ATOM     16  C   UNK A   1      -9.004   3.185 133.181  0.00  0.00    +0.000 A 
ATOM     17  C   UNK A   1      -9.257   3.882 132.012  0.00  0.00    +0.000 A 
ATOM     18  C   UNK A   1      -9.635   3.323 130.677  0.00  0.00    +0.000 C 
ENDBRANCH   5  10
BRANCH   1  19
ATOM     19  CB  LEU A   2      -4.144   2.575 127.680  0.00  0.00    +0.000 C 
BRANCH  19  21
ATOM     20  CD1 LEU A   2      -1.570   3.020 126.458  0.00  0.00    +0.000 C 
ATOM     21  CG  LEU A   2      -2.618   3.238 127.647  0.00  0.00    +0.000 C 
ATOM     22  CD2 LEU A   2      -2.556   4.757 127.782  0.00  0.00    +0.000 C 
ENDBRANCH  19  21
ENDBRANCH   1  19
BRANCH   8  23
ATOM     23  C   UNK A   0      -6.835   2.970 125.731  0.00  0.00    +0.000 C 
BRANCH  23  24
ATOM     24  C   UNK A   0      -7.145   1.434 125.667  0.00  0.00    +0.000 A 
ATOM     25  C   UNK A   0      -6.192   0.499 125.215  0.00  0.00    +0.000 A 
ATOM     26  C   UNK A   0      -6.563  -0.823 124.983  0.00  0.00    +0.000 A 
ATOM     27  C   UNK A   0      -7.815  -1.271 125.375  0.00  0.00    +0.000 A 
ATOM     28  N   UNK A   0      -8.258  -2.555 125.200  0.00  0.00    +0.000 N 
ATOM     29  C   UNK A   0      -9.564  -2.920 125.735  0.00  0.00    +0.000 C 
ATOM     30  C   UNK A   0      -7.457  -3.589 124.593  0.00  0.00    +0.000 C 
ATOM     31  N   UNK A   0      -8.663  -0.418 125.966  0.00  0.00    +0.000 NA
ATOM     32  C   UNK A   0      -8.339   0.881 126.073  0.00  0.00    +0.000 A 
ENDBRANCH  23  24
BRANCH  23  33
ATOM     33  C   UNK A   0      -6.055   3.562 124.297  0.00  0.00    +0.000 C 
ATOM     34  O   UNK A   0      -4.953   4.116 124.365  0.00  0.00    +0.000 OA
ATOM     35  N   UNK A   0      -6.495   3.377 122.976  0.00  0.00    +0.000 N 
ATOM     36  C   UNK A   0      -7.774   3.031 122.634  0.00  0.00    +0.000 C 
ATOM     37  C   UNK A   0      -5.978   4.013 121.818  0.00  0.00    +0.000 C 
ENDBRANCH  23  33
ENDBRANCH   8  23
TORSDOF 6
ENDMDL
MODEL 2
REMARK VINA RESULT:      -9.3      4.125      7.835
REMARK  Name = CHEMBL2037489
REMARK  12 active torsions:
REMARK  status: ('A' for Active; 'I' for Inactive)
REMARK    1  A    between atoms: CD1_1  and  CG_2
REMARK    2  A    between atoms: CG_2  and  CD2_3
REMARK    3  A    between atoms: CG_2  and  CB_4
REMARK    4  A    between atoms: CB_4  and  CA_5
REMARK    5  A    between atoms: C_9  and  C_10
REMARK    6  A    between atoms: N_21  and  C_22
REMARK    7  A    between atoms: C_22  and  C_23
REMARK    8  A    between atoms: C_22  and  C_28
REMARK    9  A    between atoms: N_25  and  C_26
REMARK   10  A    between atoms: N_25  and  C_27
REMARK   11  A    between atoms: N_32  and  C_33
REMARK   12  A    between atoms: N_32  and  C_34
REMARK                            x       y       z     vdW  Elec       q    Type
REMARK                         _______ _______ _______ _____ _____    ______ ____
ROOT
ATOM      1  CA  LEU A   2      -8.729   3.217 130.836  0.00  0.00    +0.000 C 
ATOM      2  C   LEU A   2      -8.900   3.955 129.426  0.00  0.00    +0.000 C 
ATOM      3  O   LEU A   2      -8.491   3.612 128.346  0.00  0.00    +0.000 OA
ATOM      4  N   UNK A   1      -9.575   5.127 129.542  0.00  0.00    +0.000 N 
ATOM      5  C   UNK A   1     -10.094   5.557 130.811  0.00  0.00    +0.000 C 
ATOM      6  C   UNK A   1      -9.007   5.439 131.874  0.00  0.00    +0.000 C 
ATOM      7  O   UNK A   1      -9.006   6.258 132.765  0.00  0.00    +0.000 OA
ATOM      8  N   LEU A   2      -8.140   4.331 131.732  0.00  0.00    +0.000 N 
ATOM      9  H   UNK A   1      -9.687   5.632 128.672  0.00  0.00    +0.000 HD
ENDROOT
BRANCH   5  10
ATOM     10  C   UNK A   1     -10.499   7.038 130.817  0.00  0.00    +0.000 C 
ATOM     11  C   UNK A   1     -12.018   7.162 130.744  0.00  0.00    +0.000 C 
ATOM     12  C   UNK A   1     -12.222   7.244 129.263  0.00  0.00    +0.000 A 
ATOM     13  C   UNK A   1     -13.351   6.880 128.557  0.00  0.00    +0.000 A 
ATOM     14  C   UNK A   1     -13.286   6.889 127.163  0.00  0.00    +0.000 A 
ATOM     15  C   UNK A   1     -12.099   7.240 126.496  0.00  0.00    +0.000 A 
ATOM     16  C   UNK A   1     -10.953   7.580 127.213  0.00  0.00    +0.000 A 
ATOM     17  C   UNK A   1     -11.034   7.588 128.595  0.00  0.00    +0.000 A 
ATOM     18  C   UNK A   1      -9.922   7.788 129.575  0.00  0.00    +0.000 C 
ENDBRANCH   5  10
BRANCH   1  19
ATOM     19  CB  LEU A   2      -7.943   1.954 130.519  0.00  0.00    +0.000 C 
BRANCH  19  21
ATOM     20  CD1 LEU A   2      -7.905  -0.890 130.039  0.00  0.00    +0.000 C 
ATOM     21  CG  LEU A   2      -8.520   0.410 130.744  0.00  0.00    +0.000 C 
ATOM     22  CD2 LEU A   2      -8.570  -0.072 132.191  0.00  0.00    +0.000 C 
ENDBRANCH  19  21
ENDBRANCH   1  19
BRANCH   8  23
ATOM     23  C   UNK A   0      -6.740   4.436 132.414  0.00  0.00    +0.000 C 
BRANCH  23  24
ATOM     24  C   UNK A   0      -5.585   4.774 131.409  0.00  0.00    +0.000 A 
ATOM     25  C   UNK A   0      -4.969   6.043 131.379  0.00  0.00    +0.000 A 
ATOM     26  C   UNK A   0      -4.091   6.371 130.349  0.00  0.00    +0.000 A 
ATOM     27  C   UNK A   0      -3.670   5.395 129.460  0.00  0.00    +0.000 A 
ATOM     28  N   UNK A   0      -2.799   5.625 128.428  0.00  0.00    +0.000 N 
ATOM     29  C   UNK A   0      -2.369   4.494 127.615  0.00  0.00    +0.000 C 
ATOM     30  C   UNK A   0      -2.216   6.917 128.163  0.00  0.00    +0.000 C 
ATOM     31  N   UNK A   0      -4.125   4.143 129.595  0.00  0.00    +0.000 NA
ATOM     32  C   UNK A   0      -5.063   3.867 130.515  0.00  0.00    +0.000 A 
ENDBRANCH  23  24
BRANCH  23  33
ATOM     33  C   UNK A   0      -6.198   3.515 133.782  0.00  0.00    +0.000 C 
ATOM     34  O   UNK A   0      -6.369   2.292 133.823  0.00  0.00    +0.000 OA
ATOM     35  N   UNK A   0      -5.441   3.998 134.862  0.00  0.00    +0.000 N 
ATOM     36  C   UNK A   0      -5.329   5.322 135.189  0.00  0.00    +0.000 C 
ATOM     37  C   UNK A   0      -5.158   3.309 136.069  0.00  0.00    +0.000 C 
ENDBRANCH  23  33
ENDBRANCH   8  23
TORSDOF 6
ENDMDL
MODEL 3
REMARK VINA RESULT:      -9.2      3.135      7.302
REMARK  Name = CHEMBL2037489
REMARK  12 active torsions:
REMARK  status: ('A' for Active; 'I' for Inactive)
REMARK    1  A    between atoms: CD1_1  and  CG_2
REMARK    2  A    between atoms: CG_2  and  CD2_3
REMARK    3  A    between atoms: CG_2  and  CB_4
REMARK    4  A    between atoms: CB_4  and  CA_5
REMARK    5  A    between atoms: C_9  and  C_10
REMARK    6  A    between atoms: N_21  and  C_22
REMARK    7  A    between atoms: C_22  and  C_23
REMARK    8  A    between atoms: C_22  and  C_28
REMARK    9  A    between atoms: N_25  and  C_26
REMARK   10  A    between atoms: N_25  and  C_27
REMARK   11  A    between atoms: N_32  and  C_33
REMARK   12  A    between atoms: N_32  and  C_34
REMARK                            x       y       z     vdW  Elec       q    Type
REMARK                         _______ _______ _______ _____ _____    ______ ____
ROOT
ATOM      1  CA  LEU A   2      -8.398   2.556 129.127  0.00  0.00    +0.000 C 
ATOM      2  C   LEU A   2      -8.270   3.954 128.358  0.00  0.00    +0.000 C 
ATOM      3  O   LEU A   2      -7.775   4.175 127.283  0.00  0.00    +0.000 OA
ATOM      4  N   UNK A   1      -8.776   4.983 129.084  0.00  0.00    +0.000 N 
ATOM      5  C   UNK A   1      -9.392   4.754 130.362  0.00  0.00    +0.000 C 
ATOM      6  C   UNK A   1      -8.486   3.872 131.214  0.00  0.00    +0.000 C 
ATOM      7  O   UNK A   1      -8.483   4.063 132.410  0.00  0.00    +0.000 OA
ATOM      8  N   LEU A   2      -7.778   2.871 130.508  0.00  0.00    +0.000 N 
ATOM      9  H   UNK A   1      -8.696   5.888 128.637  0.00  0.00    +0.000 HD
ENDROOT
BRANCH   5  10
ATOM     10  C   UNK A   1      -9.573   6.043 131.176  0.00  0.00    +0.000 C 
ATOM     11  C   UNK A   1     -11.043   6.224 131.541  0.00  0.00    +0.000 C 
ATOM     12  C   UNK A   1     -11.523   7.040 130.381  0.00  0.00    +0.000 A 
ATOM     13  C   UNK A   1     -12.810   7.105 129.884  0.00  0.00    +0.000 A 
ATOM     14  C   UNK A   1     -13.021   7.807 128.698  0.00  0.00    +0.000 A 
ATOM     15  C   UNK A   1     -11.953   8.415 128.015  0.00  0.00    +0.000 A 
ATOM     16  C   UNK A   1     -10.652   8.323 128.506  0.00  0.00    +0.000 A 
ATOM     17  C   UNK A   1     -10.454   7.642 129.695  0.00  0.00    +0.000 A 
ATOM     18  C   UNK A   1      -9.154   7.299 130.348  0.00  0.00    +0.000 C 
ENDBRANCH   5  10
BRANCH   1  19
ATOM     19  CB  LEU A   2      -7.770   1.538 128.188  0.00  0.00    +0.000 C 
BRANCH  19  21
ATOM     20  CD1 LEU A   2      -8.872   1.264 125.538  0.00  0.00    +0.000 C 
ATOM     21  CG  LEU A   2      -8.603   0.706 127.013  0.00  0.00    +0.000 C 
ATOM     22  CD2 LEU A   2      -8.063  -0.681 126.679  0.00  0.00    +0.000 C 
ENDBRANCH  19  21
ENDBRANCH   1  19
BRANCH   8  23
ATOM     23  C   UNK A   0      -6.481   2.317 131.177  0.00  0.00    +0.000 C 
BRANCH  23  24
ATOM     24  C   UNK A   0      -5.232   3.241 130.969  0.00  0.00    +0.000 A 
ATOM     25  C   UNK A   0      -4.326   3.518 132.015  0.00  0.00    +0.000 A 
ATOM     26  C   UNK A   0      -3.347   4.495 131.852  0.00  0.00    +0.000 A 
ATOM     27  C   UNK A   0      -3.134   5.062 130.606  0.00  0.00    +0.000 A 
ATOM     28  N   UNK A   0      -2.186   6.017 130.352  0.00  0.00    +0.000 N 
ATOM     29  C   UNK A   0      -2.005   6.472 128.979  0.00  0.00    +0.000 C 
ATOM     30  C   UNK A   0      -1.294   6.530 131.363  0.00  0.00    +0.000 C 
ATOM     31  N   UNK A   0      -3.885   4.671 129.568  0.00  0.00    +0.000 NA
ATOM     32  C   UNK A   0      -4.904   3.819 129.764  0.00  0.00    +0.000 A 
ENDBRANCH  23  24
BRANCH  23  33
ATOM     33  C   UNK A   0      -6.060   0.642 131.357  0.00  0.00    +0.000 C 
ATOM     34  O   UNK A   0      -5.870  -0.067 130.363  0.00  0.00    +0.000 OA
ATOM     35  N   UNK A   0      -5.780  -0.020 132.563  0.00  0.00    +0.000 N 
ATOM     36  C   UNK A   0      -6.149   0.445 133.796  0.00  0.00    +0.000 C 
ATOM     37  C   UNK A   0      -5.625  -1.418 132.743  0.00  0.00    +0.000 C 
ENDBRANCH  23  33
ENDBRANCH   8  23
TORSDOF 6
ENDMDL
MODEL 4
REMARK VINA RESULT:      -9.1      3.605      7.182
REMARK  Name = CHEMBL2037489
REMARK  12 active torsions:
REMARK  status: ('A' for Active; 'I' for Inactive)
REMARK    1  A    between atoms: CD1_1  and  CG_2
REMARK    2  A    between atoms: CG_2  and  CD2_3
REMARK    3  A    between atoms: CG_2  and  CB_4
REMARK    4  A    between atoms: CB_4  and  CA_5
REMARK    5  A    between atoms: C_9  and  C_10
REMARK    6  A    between atoms: N_21  and  C_22
REMARK    7  A    between atoms: C_22  and  C_23
REMARK    8  A    between atoms: C_22  and  C_28
REMARK    9  A    between atoms: N_25  and  C_26
REMARK   10  A    between atoms: N_25  and  C_27
REMARK   11  A    between atoms: N_32  and  C_33
REMARK   12  A    between atoms: N_32  and  C_34
REMARK                            x       y       z     vdW  Elec       q    Type
REMARK                         _______ _______ _______ _____ _____    ______ ____
ROOT
ATOM      1  CA  LEU A   2      -5.160   3.233 129.719  0.00  0.00    +0.000 C 
ATOM      2  C   LEU A   2      -6.232   2.344 128.930  0.00  0.00    +0.000 C 
ATOM      3  O   LEU A   2      -6.527   2.386 127.763  0.00  0.00    +0.000 OA
ATOM      4  N   UNK A   1      -6.875   1.474 129.750  0.00  0.00    +0.000 N 
ATOM      5  C   UNK A   1      -6.536   1.383 131.143  0.00  0.00    +0.000 C 
ATOM      6  C   UNK A   1      -6.489   2.781 131.749  0.00  0.00    +0.000 C 
ATOM      7  O   UNK A   1      -6.830   2.901 132.905  0.00  0.00    +0.000 OA
ATOM      8  N   LEU A   2      -5.988   3.793 130.898  0.00  0.00    +0.000 N 
ATOM      9  H   UNK A   1      -7.575   0.906 129.289  0.00  0.00    +0.000 HD
ENDROOT
BRANCH   5  10
ATOM     10  C   UNK A   1      -7.589   0.627 131.965  0.00  0.00    +0.000 C 
ATOM     11  C   UNK A   1      -6.912  -0.436 132.825  0.00  0.00    +0.000 C 
ATOM     12  C   UNK A   1      -6.966  -1.617 131.906  0.00  0.00    +0.000 A 
ATOM     13  C   UNK A   1      -6.113  -2.703 131.894  0.00  0.00    +0.000 A 
ATOM     14  C   UNK A   1      -6.239  -3.627 130.857  0.00  0.00    +0.000 A 
ATOM     15  C   UNK A   1      -7.193  -3.448 129.840  0.00  0.00    +0.000 A 
ATOM     16  C   UNK A   1      -8.034  -2.336 129.841  0.00  0.00    +0.000 A 
ATOM     17  C   UNK A   1      -7.916  -1.436 130.886  0.00  0.00    +0.000 A 
ATOM     18  C   UNK A   1      -8.603  -0.116 131.039  0.00  0.00    +0.000 C 
ENDBRANCH   5  10
BRANCH   1  19
ATOM     19  CB  LEU A   2      -4.563   4.148 128.662  0.00  0.00    +0.000 C 
BRANCH  19  21
ATOM     20  CD1 LEU A   2      -2.175   3.733 127.098  0.00  0.00    +0.000 C 
ATOM     21  CG  LEU A   2      -2.932   4.319 128.381  0.00  0.00    +0.000 C 
ATOM     22  CD2 LEU A   2      -2.412   5.754 128.364  0.00  0.00    +0.000 C 
ENDBRANCH  19  21
ENDBRANCH   1  19
BRANCH   8  23
ATOM     23  C   UNK A   0      -6.401   5.263 131.227  0.00  0.00    +0.000 C 
BRANCH  23  24
ATOM     24  C   UNK A   0      -7.923   5.548 130.983  0.00  0.00    +0.000 A 
ATOM     25  C   UNK A   0      -8.571   5.171 129.789  0.00  0.00    +0.000 A 
ATOM     26  C   UNK A   0      -9.864   5.614 129.524  0.00  0.00    +0.000 A 
ATOM     27  C   UNK A   0     -10.590   6.264 130.509  0.00  0.00    +0.000 A 
ATOM     28  N   UNK A   0     -11.870   6.720 130.341  0.00  0.00    +0.000 N 
ATOM     29  C   UNK A   0     -12.555   7.313 131.484  0.00  0.00    +0.000 C 
ATOM     30  C   UNK A   0     -12.609   6.561 129.113  0.00  0.00    +0.000 C 
ATOM     31  N   UNK A   0     -10.031   6.471 131.709  0.00  0.00    +0.000 NA
ATOM     32  C   UNK A   0      -8.744   6.148 131.912  0.00  0.00    +0.000 A 
ENDBRANCH  23  24
BRANCH  23  33
ATOM     33  C   UNK A   0      -5.407   6.673 131.025  0.00  0.00    +0.000 C 
ATOM     34  O   UNK A   0      -5.814   7.638 130.370  0.00  0.00    +0.000 OA
ATOM     35  N   UNK A   0      -4.171   6.913 131.646  0.00  0.00    +0.000 N 
ATOM     36  C   UNK A   0      -3.391   5.938 132.204  0.00  0.00    +0.000 C 
ATOM     37  C   UNK A   0      -3.266   7.963 131.344  0.00  0.00    +0.000 C 
ENDBRANCH  23  33
ENDBRANCH   8  23
TORSDOF 6
ENDMDL
MODEL 5
REMARK VINA RESULT:      -9.1      3.762      7.711
REMARK  Name = CHEMBL2037489
REMARK  12 active torsions:
REMARK  status: ('A' for Active; 'I' for Inactive)
REMARK    1  A    between atoms: CD1_1  and  CG_2
REMARK    2  A    between atoms: CG_2  and  CD2_3
REMARK    3  A    between atoms: CG_2  and  CB_4
REMARK    4  A    between atoms: CB_4  and  CA_5
REMARK    5  A    between atoms: C_9  and  C_10
REMARK    6  A    between atoms: N_21  and  C_22
REMARK    7  A    between atoms: C_22  and  C_23
REMARK    8  A    between atoms: C_22  and  C_28
REMARK    9  A    between atoms: N_25  and  C_26
REMARK   10  A    between atoms: N_25  and  C_27
REMARK   11  A    between atoms: N_32  and  C_33
REMARK   12  A    between atoms: N_32  and  C_34
REMARK                            x       y       z     vdW  Elec       q    Type
REMARK                         _______ _______ _______ _____ _____    ______ ____
ROOT
ATOM      1  CA  LEU A   2      -6.915   2.192 132.231  0.00  0.00    +0.000 C 
ATOM      2  C   LEU A   2      -5.623   1.266 132.047  0.00  0.00    +0.000 C 
ATOM      3  O   LEU A   2      -4.628   1.225 132.723  0.00  0.00    +0.000 OA
ATOM      4  N   UNK A   1      -5.717   0.472 130.950  0.00  0.00    +0.000 N 
ATOM      5  C   UNK A   1      -6.898   0.479 130.131  0.00  0.00    +0.000 C 
ATOM      6  C   UNK A   1      -7.284   1.917 129.806  0.00  0.00    +0.000 C 
ATOM      7  O   UNK A   1      -7.790   2.130 128.726  0.00  0.00    +0.000 OA
ATOM      8  N   LEU A   2      -7.058   2.854 130.841  0.00  0.00    +0.000 N 
ATOM      9  H   UNK A   1      -4.909  -0.117 130.790  0.00  0.00    +0.000 HD
ENDROOT
BRANCH   5  10
ATOM     10  C   UNK A   1      -6.682  -0.195 128.768  0.00  0.00    +0.000 C 
ATOM     11  C   UNK A   1      -7.572  -1.429 128.654  0.00  0.00    +0.000 C 
ATOM     12  C   UNK A   1      -6.652  -2.488 129.179  0.00  0.00    +0.000 A 
ATOM     13  C   UNK A   1      -7.010  -3.680 129.776  0.00  0.00    +0.000 A 
ATOM     14  C   UNK A   1      -6.001  -4.463 130.338  0.00  0.00    +0.000 A 
ATOM     15  C   UNK A   1      -4.660  -4.041 130.316  0.00  0.00    +0.000 A 
ATOM     16  C   UNK A   1      -4.307  -2.823 129.737  0.00  0.00    +0.000 A 
ATOM     17  C   UNK A   1      -5.312  -2.064 129.163  0.00  0.00    +0.000 A 
ATOM     18  C   UNK A   1      -5.208  -0.680 128.604  0.00  0.00    +0.000 C 
ENDBRANCH   5  10
BRANCH   1  19
ATOM     19  CB  LEU A   2      -6.628   3.015 133.476  0.00  0.00    +0.000 C 
BRANCH  19  21
ATOM     20  CD1 LEU A   2      -7.755   5.292 134.840  0.00  0.00    +0.000 C 
ATOM     21  CG  LEU A   2      -7.795   3.753 134.403  0.00  0.00    +0.000 C 
ATOM     22  CD2 LEU A   2      -9.219   3.667 133.862  0.00  0.00    +0.000 C 
ENDBRANCH  19  21
ENDBRANCH   1  19
BRANCH   8  23
ATOM     23  C   UNK A   0      -6.913   4.351 130.421  0.00  0.00    +0.000 C 
BRANCH  23  24
ATOM     24  C   UNK A   0      -8.282   5.113 130.359  0.00  0.00    +0.000 A 
ATOM     25  C   UNK A   0      -8.684   6.006 131.374  0.00  0.00    +0.000 A 
ATOM     26  C   UNK A   0      -9.983   6.510 131.388  0.00  0.00    +0.000 A 
ATOM     27  C   UNK A   0     -10.823   6.291 130.308  0.00  0.00    +0.000 A 
ATOM     28  N   UNK A   0     -12.107   6.760 130.231  0.00  0.00    +0.000 N 
ATOM     29  C   UNK A   0     -12.860   6.533 129.002  0.00  0.00    +0.000 C 
ATOM     30  C   UNK A   0     -12.723   7.547 131.271  0.00  0.00    +0.000 C 
ATOM     31  N   UNK A   0     -10.378   5.583 129.262  0.00  0.00    +0.000 NA
ATOM     32  C   UNK A   0      -9.169   5.001 129.313  0.00  0.00    +0.000 A 
ENDBRANCH  23  24
BRANCH  23  33
ATOM     33  C   UNK A   0      -5.731   4.994 129.324  0.00  0.00    +0.000 C 
ATOM     34  O   UNK A   0      -5.802   4.756 128.114  0.00  0.00    +0.000 OA
ATOM     35  N   UNK A   0      -4.707   5.901 129.645  0.00  0.00    +0.000 N 
ATOM     36  C   UNK A   0      -4.254   6.129 130.915  0.00  0.00    +0.000 C 
ATOM     37  C   UNK A   0      -3.626   6.282 128.809  0.00  0.00    +0.000 C 
ENDBRANCH  23  33
ENDBRANCH   8  23
TORSDOF 6
ENDMDL
MODEL 6
REMARK VINA RESULT:      -9.0      4.249      8.313
REMARK  Name = CHEMBL2037489
REMARK  12 active torsions:
REMARK  status: ('A' for Active; 'I' for Inactive)
REMARK    1  A    between atoms: CD1_1  and  CG_2
REMARK    2  A    between atoms: CG_2  and  CD2_3
REMARK    3  A    between atoms: CG_2  and  CB_4
REMARK    4  A    between atoms: CB_4  and  CA_5
REMARK    5  A    between atoms: C_9  and  C_10
REMARK    6  A    between atoms: N_21  and  C_22
REMARK    7  A    between atoms: C_22  and  C_23
REMARK    8  A    between atoms: C_22  and  C_28
REMARK    9  A    between atoms: N_25  and  C_26
REMARK   10  A    between atoms: N_25  and  C_27
REMARK   11  A    between atoms: N_32  and  C_33
REMARK   12  A    between atoms: N_32  and  C_34
REMARK                            x       y       z     vdW  Elec       q    Type
REMARK                         _______ _______ _______ _____ _____    ______ ____
ROOT
ATOM      1  CA  LEU A   2      -5.050   3.293 131.427  0.00  0.00    +0.000 C 
ATOM      2  C   LEU A   2      -5.950   2.777 130.208  0.00  0.00    +0.000 C 
ATOM      3  O   LEU A   2      -6.011   3.210 129.086  0.00  0.00    +0.000 OA
ATOM      4  N   UNK A   1      -6.744   1.736 130.566  0.00  0.00    +0.000 N 
ATOM      5  C   UNK A   1      -6.683   1.181 131.889  0.00  0.00    +0.000 C 
ATOM      6  C   UNK A   1      -6.751   2.305 132.918  0.00  0.00    +0.000 C 
ATOM      7  O   UNK A   1      -7.312   2.071 133.965  0.00  0.00    +0.000 OA
ATOM      8  N   LEU A   2      -6.090   3.500 132.552  0.00  0.00    +0.000 N 
ATOM      9  H   UNK A   1      -7.342   1.393 129.824  0.00  0.00    +0.000 HD
ENDROOT
BRANCH   5  10
ATOM     10  C   UNK A   1      -7.880   0.273 132.211  0.00  0.00    +0.000 C 
ATOM     11  C   UNK A   1      -7.391  -1.023 132.849  0.00  0.00    +0.000 C 
ATOM     12  C   UNK A   1      -7.223  -1.888 131.638  0.00  0.00    +0.000 A 
ATOM     13  C   UNK A   1      -6.372  -2.964 131.495  0.00  0.00    +0.000 A 
ATOM     14  C   UNK A   1      -6.253  -3.545 130.233  0.00  0.00    +0.000 A 
ATOM     15  C   UNK A   1      -6.963  -3.036 129.131  0.00  0.00    +0.000 A 
ATOM     16  C   UNK A   1      -7.801  -1.931 129.274  0.00  0.00    +0.000 A 
ATOM     17  C   UNK A   1      -7.929  -1.375 130.535  0.00  0.00    +0.000 A 
ATOM     18  C   UNK A   1      -8.654  -0.123 130.914  0.00  0.00    +0.000 C 
ENDBRANCH   5  10
BRANCH   1  19
ATOM     19  CB  LEU A   2      -4.255   4.456 130.856  0.00  0.00    +0.000 C 
BRANCH  19  21
ATOM     20  CD1 LEU A   2      -1.974   6.197 131.154  0.00  0.00    +0.000 C 
ATOM     21  CG  LEU A   2      -2.650   4.746 131.183  0.00  0.00    +0.000 C 
ATOM     22  CD2 LEU A   2      -2.152   4.249 132.537  0.00  0.00    +0.000 C 
ENDBRANCH  19  21
ENDBRANCH   1  19
BRANCH   8  23
ATOM     23  C   UNK A   0      -6.555   4.811 133.261  0.00  0.00    +0.000 C 
BRANCH  23  24
ATOM     24  C   UNK A   0      -7.687   5.569 132.484  0.00  0.00    +0.000 A 
ATOM     25  C   UNK A   0      -9.007   5.644 132.975  0.00  0.00    +0.000 A 
ATOM     26  C   UNK A   0     -10.025   6.149 132.170  0.00  0.00    +0.000 A 
ATOM     27  C   UNK A   0      -9.718   6.755 130.962  0.00  0.00    +0.000 A 
ATOM     28  N   UNK A   0     -10.651   7.291 130.115  0.00  0.00    +0.000 N 
ATOM     29  C   UNK A   0     -10.191   7.977 128.914  0.00  0.00    +0.000 C 
ATOM     30  C   UNK A   0     -12.065   7.289 130.399  0.00  0.00    +0.000 C 
ATOM     31  N   UNK A   0      -8.438   6.838 130.575  0.00  0.00    +0.000 NA
ATOM     32  C   UNK A   0      -7.480   6.240 131.300  0.00  0.00    +0.000 A 
ENDBRANCH  23  24
BRANCH  23  33
ATOM     33  C   UNK A   0      -5.555   5.872 134.204  0.00  0.00    +0.000 C 
ATOM     34  O   UNK A   0      -4.577   6.430 133.695  0.00  0.00    +0.000 OA
ATOM     35  N   UNK A   0      -5.799   6.290 135.523  0.00  0.00    +0.000 N 
ATOM     36  C   UNK A   0      -6.646   5.650 136.386  0.00  0.00    +0.000 C 
ATOM     37  C   UNK A   0      -4.901   6.995 136.364  0.00  0.00    +0.000 C 
ENDBRANCH  23  33
ENDBRANCH   8  23
TORSDOF 6
ENDMDL
MODEL 7
REMARK VINA RESULT:      -8.9      2.416      7.944
REMARK  Name = CHEMBL2037489
REMARK  12 active torsions:
REMARK  status: ('A' for Active; 'I' for Inactive)
REMARK    1  A    between atoms: CD1_1  and  CG_2
REMARK    2  A    between atoms: CG_2  and  CD2_3
REMARK    3  A    between atoms: CG_2  and  CB_4
REMARK    4  A    between atoms: CB_4  and  CA_5
REMARK    5  A    between atoms: C_9  and  C_10
REMARK    6  A    between atoms: N_21  and  C_22
REMARK    7  A    between atoms: C_22  and  C_23
REMARK    8  A    between atoms: C_22  and  C_28
REMARK    9  A    between atoms: N_25  and  C_26
REMARK   10  A    between atoms: N_25  and  C_27
REMARK   11  A    between atoms: N_32  and  C_33
REMARK   12  A    between atoms: N_32  and  C_34
REMARK                            x       y       z     vdW  Elec       q    Type
REMARK                         _______ _______ _______ _____ _____    ______ ____
ROOT
ATOM      1  CA  LEU A   2      -5.324   2.396 128.464  0.00  0.00    +0.000 C 
ATOM      2  C   LEU A   2      -6.068   2.764 127.096  0.00  0.00    +0.000 C 
ATOM      3  O   LEU A   2      -6.048   3.804 126.489  0.00  0.00    +0.000 OA
ATOM      4  N   UNK A   1      -6.826   1.737 126.635  0.00  0.00    +0.000 N 
ATOM      5  C   UNK A   1      -6.858   0.476 127.323  0.00  0.00    +0.000 C 
ATOM      6  C   UNK A   1      -7.095   0.712 128.810  0.00  0.00    +0.000 C 
ATOM      7  O   UNK A   1      -7.737  -0.119 129.413  0.00  0.00    +0.000 OA
ATOM      8  N   LEU A   2      -6.479   1.866 129.346  0.00  0.00    +0.000 N 
ATOM      9  H   UNK A   1      -7.328   1.939 125.779  0.00  0.00    +0.000 HD
ENDROOT
BRANCH   5  10
ATOM     10  C   UNK A   1      -8.020  -0.420 126.871  0.00  0.00    +0.000 C 
ATOM     11  C   UNK A   1      -7.560  -1.873 126.807  0.00  0.00    +0.000 C 
ATOM     12  C   UNK A   1      -7.106  -1.963 125.383  0.00  0.00    +0.000 A 
ATOM     13  C   UNK A   1      -6.163  -2.826 124.863  0.00  0.00    +0.000 A 
ATOM     14  C   UNK A   1      -5.768  -2.646 123.537  0.00  0.00    +0.000 A 
ATOM     15  C   UNK A   1      -6.298  -1.603 122.758  0.00  0.00    +0.000 A 
ATOM     16  C   UNK A   1      -7.230  -0.717 123.297  0.00  0.00    +0.000 A 
ATOM     17  C   UNK A   1      -7.632  -0.916 124.606  0.00  0.00    +0.000 A 
ATOM     18  C   UNK A   1      -8.508  -0.035 125.439  0.00  0.00    +0.000 C 
ENDBRANCH   5  10
BRANCH   1  19
ATOM     19  CB  LEU A   2      -4.552   3.652 128.836  0.00  0.00    +0.000 C 
BRANCH  19  21
ATOM     20  CD1 LEU A   2      -2.244   3.261 127.152  0.00  0.00    +0.000 C 
ATOM     21  CG  LEU A   2      -2.975   3.948 128.399  0.00  0.00    +0.000 C 
ATOM     22  CD2 LEU A   2      -2.626   5.411 128.139  0.00  0.00    +0.000 C 
ENDBRANCH  19  21
ENDBRANCH   1  19
BRANCH   8  23
ATOM     23  C   UNK A   0      -7.091   2.452 130.657  0.00  0.00    +0.000 C 
BRANCH  23  24
ATOM     24  C   UNK A   0      -8.154   3.575 130.398  0.00  0.00    +0.000 A 
ATOM     25  C   UNK A   0      -9.495   3.443 130.814  0.00  0.00    +0.000 A 
ATOM     26  C   UNK A   0     -10.451   4.365 130.395  0.00  0.00    +0.000 A 
ATOM     27  C   UNK A   0     -10.060   5.516 129.730  0.00  0.00    +0.000 A 
ATOM     28  N   UNK A   0     -10.930   6.481 129.296  0.00  0.00    +0.000 N 
ATOM     29  C   UNK A   0     -10.384   7.687 128.684  0.00  0.00    +0.000 C 
ATOM     30  C   UNK A   0     -12.356   6.404 129.495  0.00  0.00    +0.000 C 
ATOM     31  N   UNK A   0      -8.760   5.725 129.486  0.00  0.00    +0.000 NA
ATOM     32  C   UNK A   0      -7.862   4.773 129.786  0.00  0.00    +0.000 A 
ENDBRANCH  23  24
BRANCH  23  33
ATOM     33  C   UNK A   0      -6.267   2.637 132.175  0.00  0.00    +0.000 C 
ATOM     34  O   UNK A   0      -5.622   3.662 132.418  0.00  0.00    +0.000 OA
ATOM     35  N   UNK A   0      -6.343   1.764 133.272  0.00  0.00    +0.000 N 
ATOM     36  C   UNK A   0      -6.768   0.466 133.192  0.00  0.00    +0.000 C 
ATOM     37  C   UNK A   0      -5.533   1.800 134.436  0.00  0.00    +0.000 C 
ENDBRANCH  23  33
ENDBRANCH   8  23
TORSDOF 6
ENDMDL
MODEL 8
REMARK VINA RESULT:      -8.8      2.401      7.939
REMARK  Name = CHEMBL2037489
REMARK  12 active torsions:
REMARK  status: ('A' for Active; 'I' for Inactive)
REMARK    1  A    between atoms: CD1_1  and  CG_2
REMARK    2  A    between atoms: CG_2  and  CD2_3
REMARK    3  A    between atoms: CG_2  and  CB_4
REMARK    4  A    between atoms: CB_4  and  CA_5
REMARK    5  A    between atoms: C_9  and  C_10
REMARK    6  A    between atoms: N_21  and  C_22
REMARK    7  A    between atoms: C_22  and  C_23
REMARK    8  A    between atoms: C_22  and  C_28
REMARK    9  A    between atoms: N_25  and  C_26
REMARK   10  A    between atoms: N_25  and  C_27
REMARK   11  A    between atoms: N_32  and  C_33
REMARK   12  A    between atoms: N_32  and  C_34
REMARK                            x       y       z     vdW  Elec       q    Type
REMARK                         _______ _______ _______ _____ _____    ______ ____
ROOT
ATOM      1  CA  LEU A   2      -7.751   0.908 129.566  0.00  0.00    +0.000 C 
ATOM      2  C   LEU A   2      -6.666  -0.021 128.844  0.00  0.00    +0.000 C 
ATOM      3  O   LEU A   2      -5.738  -0.610 129.335  0.00  0.00    +0.000 OA
ATOM      4  N   UNK A   1      -6.859  -0.080 127.501  0.00  0.00    +0.000 N 
ATOM      5  C   UNK A   1      -7.967   0.594 126.883  0.00  0.00    +0.000 C 
ATOM      6  C   UNK A   1      -8.035   2.031 127.387  0.00  0.00    +0.000 C 
ATOM      7  O   UNK A   1      -8.427   2.877 126.614  0.00  0.00    +0.000 OA
ATOM      8  N   LEU A   2      -7.680   2.215 128.743  0.00  0.00    +0.000 N 
ATOM      9  H   UNK A   1      -6.180  -0.645 127.006  0.00  0.00    +0.000 HD
ENDROOT
BRANCH   5  10
ATOM     10  C   UNK A   1      -7.818   0.711 125.359  0.00  0.00    +0.000 C 
ATOM     11  C   UNK A   1      -9.000   0.036 124.669  0.00  0.00    +0.000 C 
ATOM     12  C   UNK A   1      -8.463  -1.350 124.487  0.00  0.00    +0.000 A 
ATOM     13  C   UNK A   1      -9.192  -2.518 124.383  0.00  0.00    +0.000 A 
ATOM     14  C   UNK A   1      -8.498  -3.728 124.371  0.00  0.00    +0.000 A 
ATOM     15  C   UNK A   1      -7.097  -3.759 124.483  0.00  0.00    +0.000 A 
ATOM     16  C   UNK A   1      -6.367  -2.579 124.616  0.00  0.00    +0.000 A 
ATOM     17  C   UNK A   1      -7.063  -1.383 124.605  0.00  0.00    +0.000 A 
ATOM     18  C   UNK A   1      -6.527  -0.010 124.859  0.00  0.00    +0.000 C 
ENDBRANCH   5  10
BRANCH   1  19
ATOM     19  CB  LEU A   2      -7.372   0.874 131.038  0.00  0.00    +0.000 C 
BRANCH  19  21
ATOM     20  CD1 LEU A   2      -8.176   2.473 133.299  0.00  0.00    +0.000 C 
ATOM     21  CG  LEU A   2      -8.406   1.258 132.283  0.00  0.00    +0.000 C 
ATOM     22  CD2 LEU A   2      -9.855   1.519 131.880  0.00  0.00    +0.000 C 
ENDBRANCH  19  21
ENDBRANCH   1  19
BRANCH   8  23
ATOM     23  C   UNK A   0      -7.212   3.643 129.165  0.00  0.00    +0.000 C 
BRANCH  23  24
ATOM     24  C   UNK A   0      -8.398   4.608 129.512  0.00  0.00    +0.000 A 
ATOM     25  C   UNK A   0      -8.835   4.806 130.839  0.00  0.00    +0.000 A 
ATOM     26  C   UNK A   0     -10.010   5.509 131.091  0.00  0.00    +0.000 A 
ATOM     27  C   UNK A   0     -10.652   6.179 130.061  0.00  0.00    +0.000 A 
ATOM     28  N   UNK A   0     -11.802   6.905 130.221  0.00  0.00    +0.000 N 
ATOM     29  C   UNK A   0     -12.331   7.634 129.074  0.00  0.00    +0.000 C 
ATOM     30  C   UNK A   0     -12.467   7.058 131.491  0.00  0.00    +0.000 C 
ATOM     31  N   UNK A   0     -10.137   6.132 128.825  0.00  0.00    +0.000 NA
ATOM     32  C   UNK A   0      -9.074   5.353 128.572  0.00  0.00    +0.000 A 
ENDBRANCH  23  24
BRANCH  23  33
ATOM     33  C   UNK A   0      -5.814   4.479 128.562  0.00  0.00    +0.000 C 
ATOM     34  O   UNK A   0      -5.731   4.783 127.367  0.00  0.00    +0.000 OA
ATOM     35  N   UNK A   0      -4.754   4.986 129.331  0.00  0.00    +0.000 N 
ATOM     36  C   UNK A   0      -4.472   4.585 130.609  0.00  0.00    +0.000 C 
ATOM     37  C   UNK A   0      -3.524   5.496 128.840  0.00  0.00    +0.000 C 
ENDBRANCH  23  33
ENDBRANCH   8  23
TORSDOF 6
ENDMDL
MODEL 9
REMARK VINA RESULT:      -8.7      3.586      6.379
REMARK  Name = CHEMBL2037489
REMARK  12 active torsions:
REMARK  status: ('A' for Active; 'I' for Inactive)
REMARK    1  A    between atoms: CD1_1  and  CG_2
REMARK    2  A    between atoms: CG_2  and  CD2_3
REMARK    3  A    between atoms: CG_2  and  CB_4
REMARK    4  A    between atoms: CB_4  and  CA_5
REMARK    5  A    between atoms: C_9  and  C_10
REMARK    6  A    between atoms: N_21  and  C_22
REMARK    7  A    between atoms: C_22  and  C_23
REMARK    8  A    between atoms: C_22  and  C_28
REMARK    9  A    between atoms: N_25  and  C_26
REMARK   10  A    between atoms: N_25  and  C_27
REMARK   11  A    between atoms: N_32  and  C_33
REMARK   12  A    between atoms: N_32  and  C_34
REMARK                            x       y       z     vdW  Elec       q    Type
REMARK                         _______ _______ _______ _____ _____    ______ ____
ROOT
ATOM      1  CA  LEU A   2      -7.923   2.700 128.937  0.00  0.00    +0.000 C 
ATOM      2  C   LEU A   2      -7.898   4.154 128.267  0.00  0.00    +0.000 C 
ATOM      3  O   LEU A   2      -7.323   4.509 127.270  0.00  0.00    +0.000 OA
ATOM      4  N   UNK A   1      -8.610   5.058 128.985  0.00  0.00    +0.000 N 
ATOM      5  C   UNK A   1      -9.325   4.666 130.168  0.00  0.00    +0.000 C 
ATOM      6  C   UNK A   1      -8.408   3.846 131.069  0.00  0.00    +0.000 C 
ATOM      7  O   UNK A   1      -8.561   3.951 132.266  0.00  0.00    +0.000 OA
ATOM      8  N   LEU A   2      -7.504   2.993 130.396  0.00  0.00    +0.000 N 
ATOM      9  H   UNK A   1      -8.603   5.995 128.601  0.00  0.00    +0.000 HD
ENDROOT
BRANCH   5  10
ATOM     10  C   UNK A   1      -9.762   5.862 131.025  0.00  0.00    +0.000 C 
ATOM     11  C   UNK A   1     -11.283   5.889 131.142  0.00  0.00    +0.000 C 
ATOM     12  C   UNK A   1     -11.639   6.759 129.976  0.00  0.00    +0.000 A 
ATOM     13  C   UNK A   1     -12.825   6.759 129.270  0.00  0.00    +0.000 A 
ATOM     14  C   UNK A   1     -12.903   7.539 128.116  0.00  0.00    +0.000 A 
ATOM     15  C   UNK A   1     -11.799   8.288 127.673  0.00  0.00    +0.000 A 
ATOM     16  C   UNK A   1     -10.594   8.263 128.374  0.00  0.00    +0.000 A 
ATOM     17  C   UNK A   1     -10.533   7.503 129.529  0.00  0.00    +0.000 A 
ATOM     18  C   UNK A   1      -9.332   7.214 130.372  0.00  0.00    +0.000 C 
ENDBRANCH   5  10
BRANCH   1  19
ATOM     19  CB  LEU A   2      -7.069   1.837 128.023  0.00  0.00    +0.000 C 
BRANCH  19  21
ATOM     20  CD1 LEU A   2      -7.867  -0.718 129.096  0.00  0.00    +0.000 C 
ATOM     21  CG  LEU A   2      -7.073   0.173 128.030  0.00  0.00    +0.000 C 
ATOM     22  CD2 LEU A   2      -7.530  -0.491 126.734  0.00  0.00    +0.000 C 
ENDBRANCH  19  21
ENDBRANCH   1  19
BRANCH   8  23
ATOM     23  C   UNK A   0      -6.224   2.559 131.180  0.00  0.00    +0.000 C 
BRANCH  23  24
ATOM     24  C   UNK A   0      -6.331   1.120 131.793  0.00  0.00    +0.000 A 
ATOM     25  C   UNK A   0      -5.329   0.148 131.592  0.00  0.00    +0.000 A 
ATOM     26  C   UNK A   0      -5.546  -1.172 131.979  0.00  0.00    +0.000 A 
ATOM     27  C   UNK A   0      -6.663  -1.498 132.733  0.00  0.00    +0.000 A 
ATOM     28  N   UNK A   0      -6.948  -2.765 133.168  0.00  0.00    +0.000 N 
ATOM     29  C   UNK A   0      -8.110  -2.962 134.026  0.00  0.00    +0.000 C 
ATOM     30  C   UNK A   0      -6.104  -3.902 132.894  0.00  0.00    +0.000 C 
ATOM     31  N   UNK A   0      -7.531  -0.537 133.072  0.00  0.00    +0.000 NA
ATOM     32  C   UNK A   0      -7.374   0.707 132.591  0.00  0.00    +0.000 A 
ENDBRANCH  23  24
BRANCH  23  33
ATOM     33  C   UNK A   0      -5.180   3.606 132.090  0.00  0.00    +0.000 C 
ATOM     34  O   UNK A   0      -5.447   3.895 133.261  0.00  0.00    +0.000 OA
ATOM     35  N   UNK A   0      -3.935   4.104 131.673  0.00  0.00    +0.000 N 
ATOM     36  C   UNK A   0      -3.524   4.148 130.368  0.00  0.00    +0.000 C 
ATOM     37  C   UNK A   0      -3.167   5.105 132.320  0.00  0.00    +0.000 C 
ENDBRANCH  23  33
ENDBRANCH   8  23
TORSDOF 6
ENDMDL
