MODEL 1
REMARK VINA RESULT:     -10.8      0.000      0.000
REMARK  Name = CHEMBL603708
REMARK  4 active torsions:
REMARK  status: ('A' for Active; 'I' for Inactive)
REMARK    1  A    between atoms: C_2  and  C_23
REMARK    2  A    between atoms: N_3  and  C_4
REMARK    3  A    between atoms: C_7  and  C_8
REMARK    4  A    between atoms: C_28  and  C_29
REMARK                            x       y       z     vdW  Elec       q    Type
REMARK                         _______ _______ _______ _____ _____    ______ ____
ROOT
ATOM      1  C   UNL     1      -7.184   0.215 132.558  0.00  0.00    +0.000 A 
ATOM      2  C   UNL     1      -7.136   1.411 133.233  0.00  0.00    +0.000 A 
ATOM      3  C   UNL     1      -8.058   2.760 132.707  0.00  0.00    +0.000 A 
ATOM      4  C   UNL     1      -8.984   3.136 131.273  0.00  0.00    +0.000 A 
ATOM      5  C   UNL     1      -8.978   1.701 131.004  0.00  0.00    +0.000 A 
ATOM      6  C   UNL     1      -8.123   0.359 131.531  0.00  0.00    +0.000 A 
ENDROOT
BRANCH   4   7
ATOM      7  C   UNL     1      -9.871   4.723 130.338  0.00  0.00    +0.000 C 
ATOM      8  O   UNL     1      -8.611   5.117 130.436  0.00  0.00    +0.000 OA
ATOM      9  N   UNL     1     -11.197   5.898 129.498  0.00  0.00    +0.000 N 
ATOM     10  C   UNL     1     -10.407   6.315 130.586  0.00  0.00    +0.000 C 
ATOM     11  C   UNL     1     -11.651   6.197 131.311  0.00  0.00    +0.000 C 
ATOM     12  C   UNL     1     -11.784   7.613 130.965  0.00  0.00    +0.000 C 
ATOM     13  C   UNL     1     -13.293   7.573 130.956  0.00  0.00    +0.000 C 
ATOM     14  C   UNL     1     -12.880   8.534 129.990  0.00  0.00    +0.000 A 
ATOM     15  C   UNL     1     -13.190  10.115 130.712  0.00  0.00    +0.000 A 
ATOM     16  C   UNL     1     -13.577  11.309 130.214  0.00  0.00    +0.000 A 
ATOM     17  C   UNL     1     -13.772  10.854 128.967  0.00  0.00    +0.000 A 
ATOM     18  C   UNL     1     -13.237   9.127 128.488  0.00  0.00    +0.000 A 
ATOM     19  C   UNL     1     -12.429   7.480 128.813  0.00  0.00    +0.000 A 
ENDBRANCH   4   7
BRANCH   1  22
ATOM     20  O   UNL     1      -8.344  -2.204 133.474  0.00  0.00    +0.000 OA
ATOM     21  C   UNL     1      -7.130  -2.169 133.307  0.00  0.00    +0.000 C 
ATOM     22  N   UNL     1      -6.461  -1.015 132.843  0.00  0.00    +0.000 N 
ATOM     23  H   UNL     1      -5.469  -1.082 132.619  0.00  0.00    +0.000 HD
BRANCH  21  24
ATOM     24  C   UNL     1      -6.336  -3.439 133.495  0.00  0.00    +0.000 A 
ATOM     25  C   UNL     1      -6.231  -4.019 134.752  0.00  0.00    +0.000 A 
ATOM     26  C   UNL     1      -5.318  -5.052 134.979  0.00  0.00    +0.000 A 
ATOM     27  C   UNL     1      -4.658  -5.672 133.929  0.00  0.00    +0.000 A 
ATOM     28  C   UNL     1      -4.805  -5.155 132.655  0.00  0.00    +0.000 A 
ATOM     29  C   UNL     1      -5.664  -4.057 132.418  0.00  0.00    +0.000 A 
BRANCH  29  30
ATOM     30  C   UNL     1      -5.796  -3.582 131.052  0.00  0.00    +0.000 A 
ATOM     31  C   UNL     1      -4.716  -3.035 130.361  0.00  0.00    +0.000 A 
ATOM     32  C   UNL     1      -4.933  -2.435 129.127  0.00  0.00    +0.000 A 
ATOM     33  C   UNL     1      -6.150  -2.583 128.476  0.00  0.00    +0.000 A 
ATOM     34  C   UNL     1      -7.210  -3.177 129.134  0.00  0.00    +0.000 A 
ATOM     35  C   UNL     1      -7.034  -3.658 130.418  0.00  0.00    +0.000 A 
ENDBRANCH  29  30
ENDBRANCH  21  24
ENDBRANCH   1  22
TORSDOF 4
ENDMDL
MODEL 2
REMARK VINA RESULT:     -10.7      6.689      8.959
REMARK  Name = CHEMBL603708
REMARK  4 active torsions:
REMARK  status: ('A' for Active; 'I' for Inactive)
REMARK    1  A    between atoms: C_2  and  C_23
REMARK    2  A    between atoms: N_3  and  C_4
REMARK    3  A    between atoms: C_7  and  C_8
REMARK    4  A    between atoms: C_28  and  C_29
REMARK                            x       y       z     vdW  Elec       q    Type
REMARK                         _______ _______ _______ _____ _____    ______ ____
ROOT
ATOM      1  C   UNL     1      -5.773   1.795 125.615  0.00  0.00    +0.000 A 
ATOM      2  C   UNL     1      -5.983   3.089 125.204  0.00  0.00    +0.000 A 
ATOM      3  C   UNL     1      -5.250   4.407 126.025  0.00  0.00    +0.000 A 
ATOM      4  C   UNL     1      -4.382   4.591 127.530  0.00  0.00    +0.000 A 
ATOM      5  C   UNL     1      -4.193   3.144 127.493  0.00  0.00    +0.000 A 
ATOM      6  C   UNL     1      -4.860   1.842 126.674  0.00  0.00    +0.000 A 
ENDROOT
BRANCH   4   7
ATOM      7  C   UNL     1      -3.715   6.049 128.800  0.00  0.00    +0.000 C 
ATOM      8  O   UNL     1      -2.909   6.185 127.758  0.00  0.00    +0.000 OA
ATOM      9  N   UNL     1      -3.510   7.228 130.352  0.00  0.00    +0.000 N 
ATOM     10  C   UNL     1      -2.448   6.449 129.857  0.00  0.00    +0.000 C 
ATOM     11  C   UNL     1      -2.683   5.677 131.055  0.00  0.00    +0.000 C 
ATOM     12  C   UNL     1      -1.666   6.566 131.617  0.00  0.00    +0.000 C 
ATOM     13  C   UNL     1      -2.221   6.481 133.018  0.00  0.00    +0.000 C 
ATOM     14  C   UNL     1      -1.652   7.776 132.857  0.00  0.00    +0.000 A 
ATOM     15  C   UNL     1      -0.126   7.752 133.744  0.00  0.00    +0.000 A 
ATOM     16  C   UNL     1       0.555   8.676 134.456  0.00  0.00    +0.000 A 
ATOM     17  C   UNL     1      -0.399   9.614 134.366  0.00  0.00    +0.000 A 
ATOM     18  C   UNL     1      -1.874   9.369 133.242  0.00  0.00    +0.000 A 
ATOM     19  C   UNL     1      -2.865   8.439 131.968  0.00  0.00    +0.000 A 
ENDBRANCH   4   7
BRANCH   1  22
ATOM     20  O   UNL     1      -8.294   0.674 126.268  0.00  0.00    +0.000 OA
ATOM     21  C   UNL     1      -7.588   0.084 125.457  0.00  0.00    +0.000 C 
ATOM     22  N   UNL     1      -6.323   0.567 125.059  0.00  0.00    +0.000 N 
ATOM     23  H   UNL     1      -5.835   0.093 124.301  0.00  0.00    +0.000 HD
BRANCH  21  24
ATOM     24  C   UNL     1      -8.142  -1.142 124.773  0.00  0.00    +0.000 A 
ATOM     25  C   UNL     1      -8.592  -1.067 123.462  0.00  0.00    +0.000 A 
ATOM     26  C   UNL     1      -9.314  -2.126 122.902  0.00  0.00    +0.000 A 
ATOM     27  C   UNL     1      -9.412  -3.349 123.547  0.00  0.00    +0.000 A 
ATOM     28  C   UNL     1      -8.905  -3.467 124.828  0.00  0.00    +0.000 A 
ATOM     29  C   UNL     1      -8.242  -2.381 125.442  0.00  0.00    +0.000 A 
BRANCH  29  30
ATOM     30  C   UNL     1      -7.707  -2.581 126.778  0.00  0.00    +0.000 A 
ATOM     31  C   UNL     1      -6.389  -2.256 127.094  0.00  0.00    +0.000 A 
ATOM     32  C   UNL     1      -5.875  -2.628 128.330  0.00  0.00    +0.000 A 
ATOM     33  C   UNL     1      -6.715  -3.102 129.328  0.00  0.00    +0.000 A 
ATOM     34  C   UNL     1      -8.039  -3.373 129.038  0.00  0.00    +0.000 A 
ATOM     35  C   UNL     1      -8.523  -3.127 127.767  0.00  0.00    +0.000 A 
ENDBRANCH  29  30
ENDBRANCH  21  24
ENDBRANCH   1  22
TORSDOF 4
ENDMDL
MODEL 3
REMARK VINA RESULT:     -10.0      6.371      7.365
REMARK  Name = CHEMBL603708
REMARK  4 active torsions:
REMARK  status: ('A' for Active; 'I' for Inactive)
REMARK    1  A    between atoms: C_2  and  C_23
REMARK    2  A    between atoms: N_3  and  C_4
REMARK    3  A    between atoms: C_7  and  C_8
REMARK    4  A    between atoms: C_28  and  C_29
REMARK                            x       y       z     vdW  Elec       q    Type
REMARK                         _______ _______ _______ _____ _____    ______ ____
ROOT
ATOM      1  C   UNL     1      -7.349  -2.871 130.389  0.00  0.00    +0.000 A 
ATOM      2  C   UNL     1      -8.107  -3.518 129.443  0.00  0.00    +0.000 A 
ATOM      3  C   UNL     1      -8.279  -2.879 127.859  0.00  0.00    +0.000 A 
ATOM      4  C   UNL     1      -7.881  -1.359 127.095  0.00  0.00    +0.000 A 
ATOM      5  C   UNL     1      -6.991  -1.126 128.228  0.00  0.00    +0.000 A 
ATOM      6  C   UNL     1      -6.772  -1.760 129.764  0.00  0.00    +0.000 A 
ENDROOT
BRANCH   4   7
ATOM      7  C   UNL     1      -8.252  -0.309 125.379  0.00  0.00    +0.000 C 
ATOM      8  O   UNL     1      -7.882  -1.493 124.916  0.00  0.00    +0.000 OA
ATOM      9  N   UNL     1      -8.735   1.119 124.127  0.00  0.00    +0.000 N 
ATOM     10  C   UNL     1      -7.492   0.461 124.071  0.00  0.00    +0.000 C 
ATOM     11  C   UNL     1      -6.999   1.715 124.592  0.00  0.00    +0.000 C 
ATOM     12  C   UNL     1      -6.809   2.028 123.175  0.00  0.00    +0.000 C 
ATOM     13  C   UNL     1      -6.993   3.513 123.374  0.00  0.00    +0.000 C 
ATOM     14  C   UNL     1      -7.486   3.186 122.078  0.00  0.00    +0.000 A 
ATOM     15  C   UNL     1      -6.268   3.758 120.936  0.00  0.00    +0.000 A 
ATOM     16  C   UNL     1      -6.328   4.282 119.692  0.00  0.00    +0.000 A 
ATOM     17  C   UNL     1      -7.668   4.339 119.657  0.00  0.00    +0.000 A 
ATOM     18  C   UNL     1      -8.691   3.537 121.002  0.00  0.00    +0.000 A 
ATOM     19  C   UNL     1      -8.914   2.524 122.549  0.00  0.00    +0.000 A 
ENDBRANCH   4   7
BRANCH   1  22
ATOM     20  O   UNL     1      -5.213  -4.490 131.312  0.00  0.00    +0.000 OA
ATOM     21  C   UNL     1      -6.022  -4.072 132.133  0.00  0.00    +0.000 C 
ATOM     22  N   UNL     1      -7.112  -3.250 131.774  0.00  0.00    +0.000 N 
ATOM     23  H   UNL     1      -7.683  -2.844 132.514  0.00  0.00    +0.000 HD
BRANCH  21  24
ATOM     24  C   UNL     1      -5.778  -4.351 133.597  0.00  0.00    +0.000 A 
ATOM     25  C   UNL     1      -6.172  -5.561 134.152  0.00  0.00    +0.000 A 
ATOM     26  C   UNL     1      -6.163  -5.736 135.539  0.00  0.00    +0.000 A 
ATOM     27  C   UNL     1      -5.564  -4.809 136.377  0.00  0.00    +0.000 A 
ATOM     28  C   UNL     1      -5.099  -3.626 135.833  0.00  0.00    +0.000 A 
ATOM     29  C   UNL     1      -5.173  -3.396 134.441  0.00  0.00    +0.000 A 
BRANCH  29  30
ATOM     30  C   UNL     1      -4.639  -2.144 133.932  0.00  0.00    +0.000 A 
ATOM     31  C   UNL     1      -5.401  -0.977 133.915  0.00  0.00    +0.000 A 
ATOM     32  C   UNL     1      -4.911   0.145 133.258  0.00  0.00    +0.000 A 
ATOM     33  C   UNL     1      -3.590   0.190 132.832  0.00  0.00    +0.000 A 
ATOM     34  C   UNL     1      -2.810  -0.948 132.898  0.00  0.00    +0.000 A 
ATOM     35  C   UNL     1      -3.339  -2.109 133.431  0.00  0.00    +0.000 A 
ENDBRANCH  29  30
ENDBRANCH  21  24
ENDBRANCH   1  22
TORSDOF 4
ENDMDL
MODEL 4
REMARK VINA RESULT:      -9.8      6.375      8.360
REMARK  Name = CHEMBL603708
REMARK  4 active torsions:
REMARK  status: ('A' for Active; 'I' for Inactive)
REMARK    1  A    between atoms: C_2  and  C_23
REMARK    2  A    between atoms: N_3  and  C_4
REMARK    3  A    between atoms: C_7  and  C_8
REMARK    4  A    between atoms: C_28  and  C_29
REMARK                            x       y       z     vdW  Elec       q    Type
REMARK                         _______ _______ _______ _____ _____    ______ ____
ROOT
ATOM      1  C   UNL     1      -4.712   1.452 127.438  0.00  0.00    +0.000 A 
ATOM      2  C   UNL     1      -4.194   2.677 127.095  0.00  0.00    +0.000 A 
ATOM      3  C   UNL     1      -3.806   3.841 128.297  0.00  0.00    +0.000 A 
ATOM      4  C   UNL     1      -4.116   3.992 130.010  0.00  0.00    +0.000 A 
ATOM      5  C   UNL     1      -4.407   2.561 129.991  0.00  0.00    +0.000 A 
ATOM      6  C   UNL     1      -4.745   1.395 128.835  0.00  0.00    +0.000 A 
ENDROOT
BRANCH   4   7
ATOM      7  C   UNL     1      -4.022   5.372 131.516  0.00  0.00    +0.000 C 
ATOM      8  O   UNL     1      -5.192   5.638 130.957  0.00  0.00    +0.000 OA
ATOM      9  N   UNL     1      -3.413   6.428 133.051  0.00  0.00    +0.000 N 
ATOM     10  C   UNL     1      -3.774   7.022 131.827  0.00  0.00    +0.000 C 
ATOM     11  C   UNL     1      -2.350   7.231 131.705  0.00  0.00    +0.000 C 
ATOM     12  C   UNL     1      -2.662   8.516 132.332  0.00  0.00    +0.000 C 
ATOM     13  C   UNL     1      -1.307   8.640 132.988  0.00  0.00    +0.000 C 
ATOM     14  C   UNL     1      -2.258   9.270 133.840  0.00  0.00    +0.000 A 
ATOM     15  C   UNL     1      -2.023  11.007 133.633  0.00  0.00    +0.000 A 
ATOM     16  C   UNL     1      -2.122  12.068 134.463  0.00  0.00    +0.000 A 
ATOM     17  C   UNL     1      -2.346  11.331 135.562  0.00  0.00    +0.000 A 
ATOM     18  C   UNL     1      -2.657   9.492 135.429  0.00  0.00    +0.000 A 
ATOM     19  C   UNL     1      -2.909   7.905 134.485  0.00  0.00    +0.000 A 
ENDBRANCH   4   7
BRANCH   1  22
ATOM     20  O   UNL     1      -7.361   0.924 126.576  0.00  0.00    +0.000 OA
ATOM     21  C   UNL     1      -6.466   0.176 126.196  0.00  0.00    +0.000 C 
ATOM     22  N   UNL     1      -5.116   0.362 126.562  0.00  0.00    +0.000 N 
ATOM     23  H   UNL     1      -4.406  -0.224 126.125  0.00  0.00    +0.000 HD
BRANCH  21  24
ATOM     24  C   UNL     1      -6.805  -0.915 125.209  0.00  0.00    +0.000 A 
ATOM     25  C   UNL     1      -6.711  -0.676 123.845  0.00  0.00    +0.000 A 
ATOM     26  C   UNL     1      -7.240  -1.592 122.931  0.00  0.00    +0.000 A 
ATOM     27  C   UNL     1      -7.667  -2.847 123.336  0.00  0.00    +0.000 A 
ATOM     28  C   UNL     1      -7.700  -3.132 124.688  0.00  0.00    +0.000 A 
ATOM     29  C   UNL     1      -7.245  -2.187 125.635  0.00  0.00    +0.000 A 
BRANCH  29  30
ATOM     30  C   UNL     1      -7.279  -2.562 127.038  0.00  0.00    +0.000 A 
ATOM     31  C   UNL     1      -6.137  -2.510 127.836  0.00  0.00    +0.000 A 
ATOM     32  C   UNL     1      -6.180  -3.044 129.118  0.00  0.00    +0.000 A 
ATOM     33  C   UNL     1      -7.392  -3.407 129.689  0.00  0.00    +0.000 A 
ATOM     34  C   UNL     1      -8.539  -3.406 128.920  0.00  0.00    +0.000 A 
ATOM     35  C   UNL     1      -8.476  -3.000 127.600  0.00  0.00    +0.000 A 
ENDBRANCH  29  30
ENDBRANCH  21  24
ENDBRANCH   1  22
TORSDOF 4
ENDMDL
MODEL 5
REMARK VINA RESULT:      -9.7      6.809      9.103
REMARK  Name = CHEMBL603708
REMARK  4 active torsions:
REMARK  status: ('A' for Active; 'I' for Inactive)
REMARK    1  A    between atoms: C_2  and  C_23
REMARK    2  A    between atoms: N_3  and  C_4
REMARK    3  A    between atoms: C_7  and  C_8
REMARK    4  A    between atoms: C_28  and  C_29
REMARK                            x       y       z     vdW  Elec       q    Type
REMARK                         _______ _______ _______ _____ _____    ______ ____
ROOT
ATOM      1  C   UNL     1      -6.380   0.608 127.849  0.00  0.00    +0.000 A 
ATOM      2  C   UNL     1      -6.676   0.764 129.182  0.00  0.00    +0.000 A 
ATOM      3  C   UNL     1      -5.876   1.949 130.133  0.00  0.00    +0.000 A 
ATOM      4  C   UNL     1      -4.489   2.985 129.897  0.00  0.00    +0.000 A 
ATOM      5  C   UNL     1      -4.643   2.714 128.471  0.00  0.00    +0.000 A 
ATOM      6  C   UNL     1      -5.449   1.597 127.516  0.00  0.00    +0.000 A 
ENDROOT
BRANCH   4   7
ATOM      7  C   UNL     1      -3.228   4.198 130.954  0.00  0.00    +0.000 C 
ATOM      8  O   UNL     1      -3.576   3.293 131.855  0.00  0.00    +0.000 OA
ATOM      9  N   UNL     1      -1.996   5.641 131.448  0.00  0.00    +0.000 N 
ATOM     10  C   UNL     1      -3.192   5.402 132.151  0.00  0.00    +0.000 C 
ATOM     11  C   UNL     1      -3.619   6.616 131.493  0.00  0.00    +0.000 C 
ATOM     12  C   UNL     1      -3.118   7.246 132.716  0.00  0.00    +0.000 C 
ATOM     13  C   UNL     1      -2.765   8.541 132.024  0.00  0.00    +0.000 C 
ATOM     14  C   UNL     1      -1.833   8.348 133.084  0.00  0.00    +0.000 A 
ATOM     15  C   UNL     1      -2.310   9.469 134.361  0.00  0.00    +0.000 A 
ATOM     16  C   UNL     1      -1.624  10.188 135.276  0.00  0.00    +0.000 A 
ATOM     17  C   UNL     1      -0.415   9.854 134.800  0.00  0.00    +0.000 A 
ATOM     18  C   UNL     1      -0.240   8.536 133.484  0.00  0.00    +0.000 A 
ATOM     19  C   UNL     1      -0.897   7.215 132.347  0.00  0.00    +0.000 A 
ENDBRANCH   4   7
BRANCH   1  22
ATOM     20  O   UNL     1      -8.964   0.745 126.691  0.00  0.00    +0.000 OA
ATOM     21  C   UNL     1      -8.242  -0.199 126.390  0.00  0.00    +0.000 C 
ATOM     22  N   UNL     1      -6.936  -0.349 126.904  0.00  0.00    +0.000 N 
ATOM     23  H   UNL     1      -6.346  -1.092 126.531  0.00  0.00    +0.000 HD
BRANCH  21  24
ATOM     24  C   UNL     1      -8.724  -1.174 125.343  0.00  0.00    +0.000 A 
ATOM     25  C   UNL     1      -9.187  -2.428 125.717  0.00  0.00    +0.000 A 
ATOM     26  C   UNL     1      -9.414  -3.413 124.750  0.00  0.00    +0.000 A 
ATOM     27  C   UNL     1      -9.398  -3.110 123.398  0.00  0.00    +0.000 A 
ATOM     28  C   UNL     1      -9.009  -1.843 123.006  0.00  0.00    +0.000 A 
ATOM     29  C   UNL     1      -8.698  -0.855 123.968  0.00  0.00    +0.000 A 
BRANCH  29  30
ATOM     30  C   UNL     1      -8.325   0.464 123.489  0.00  0.00    +0.000 A 
ATOM     31  C   UNL     1      -6.993   0.872 123.431  0.00  0.00    +0.000 A 
ATOM     32  C   UNL     1      -6.700   2.197 123.136  0.00  0.00    +0.000 A 
ATOM     33  C   UNL     1      -7.692   3.051 122.672  0.00  0.00    +0.000 A 
ATOM     34  C   UNL     1      -9.009   2.634 122.672  0.00  0.00    +0.000 A 
ATOM     35  C   UNL     1      -9.321   1.355 123.093  0.00  0.00    +0.000 A 
ENDBRANCH  29  30
ENDBRANCH  21  24
ENDBRANCH   1  22
TORSDOF 4
ENDMDL
MODEL 6
REMARK VINA RESULT:      -9.7      6.074      8.075
REMARK  Name = CHEMBL603708
REMARK  4 active torsions:
REMARK  status: ('A' for Active; 'I' for Inactive)
REMARK    1  A    between atoms: C_2  and  C_23
REMARK    2  A    between atoms: N_3  and  C_4
REMARK    3  A    between atoms: C_7  and  C_8
REMARK    4  A    between atoms: C_28  and  C_29
REMARK                            x       y       z     vdW  Elec       q    Type
REMARK                         _______ _______ _______ _____ _____    ______ ____
ROOT
ATOM      1  C   UNL     1      -5.987   0.909 130.730  0.00  0.00    +0.000 A 
ATOM      2  C   UNL     1      -5.190   0.618 131.811  0.00  0.00    +0.000 A 
ATOM      3  C   UNL     1      -4.254   1.839 132.572  0.00  0.00    +0.000 A 
ATOM      4  C   UNL     1      -3.827   3.488 132.180  0.00  0.00    +0.000 A 
ATOM      5  C   UNL     1      -4.942   3.456 131.238  0.00  0.00    +0.000 A 
ATOM      6  C   UNL     1      -5.901   2.288 130.514  0.00  0.00    +0.000 A 
ENDROOT
BRANCH   4   7
ATOM      7  C   UNL     1      -2.535   4.964 132.756  0.00  0.00    +0.000 C 
ATOM      8  O   UNL     1      -2.735   4.302 133.885  0.00  0.00    +0.000 OA
ATOM      9  N   UNL     1      -1.344   6.521 132.738  0.00  0.00    +0.000 N 
ATOM     10  C   UNL     1      -2.445   6.429 133.609  0.00  0.00    +0.000 C 
ATOM     11  C   UNL     1      -3.006   7.427 132.728  0.00  0.00    +0.000 C 
ATOM     12  C   UNL     1      -2.419   8.357 133.694  0.00  0.00    +0.000 C 
ATOM     13  C   UNL     1      -2.214   9.448 132.670  0.00  0.00    +0.000 C 
ATOM     14  C   UNL     1      -1.168   9.554 133.631  0.00  0.00    +0.000 A 
ATOM     15  C   UNL     1      -1.574  10.943 134.641  0.00  0.00    +0.000 A 
ATOM     16  C   UNL     1      -0.840  11.889 135.267  0.00  0.00    +0.000 A 
ATOM     17  C   UNL     1       0.330  11.483 134.752  0.00  0.00    +0.000 A 
ATOM     18  C   UNL     1       0.444   9.884 133.788  0.00  0.00    +0.000 A 
ATOM     19  C   UNL     1      -0.250   8.302 133.092  0.00  0.00    +0.000 A 
ENDBRANCH   4   7
BRANCH   1  22
ATOM     20  O   UNL     1      -5.059  -0.955 128.805  0.00  0.00    +0.000 OA
ATOM     21  C   UNL     1      -6.266  -0.882 129.008  0.00  0.00    +0.000 C 
ATOM     22  N   UNL     1      -6.824   0.005 129.954  0.00  0.00    +0.000 N 
ATOM     23  H   UNL     1      -7.820  -0.059 130.157  0.00  0.00    +0.000 HD
BRANCH  21  24
ATOM     24  C   UNL     1      -7.178  -1.857 128.305  0.00  0.00    +0.000 A 
ATOM     25  C   UNL     1      -7.672  -1.565 127.040  0.00  0.00    +0.000 A 
ATOM     26  C   UNL     1      -8.691  -2.343 126.484  0.00  0.00    +0.000 A 
ATOM     27  C   UNL     1      -9.082  -3.539 127.066  0.00  0.00    +0.000 A 
ATOM     28  C   UNL     1      -8.548  -3.886 128.293  0.00  0.00    +0.000 A 
ATOM     29  C   UNL     1      -7.574  -3.070 128.911  0.00  0.00    +0.000 A 
BRANCH  29  30
ATOM     30  C   UNL     1      -7.032  -3.507 130.186  0.00  0.00    +0.000 A 
ATOM     31  C   UNL     1      -7.516  -3.010 131.395  0.00  0.00    +0.000 A 
ATOM     32  C   UNL     1      -6.851  -3.323 132.573  0.00  0.00    +0.000 A 
ATOM     33  C   UNL     1      -5.866  -4.302 132.587  0.00  0.00    +0.000 A 
ATOM     34  C   UNL     1      -5.420  -4.841 131.396  0.00  0.00    +0.000 A 
ATOM     35  C   UNL     1      -5.990  -4.433 130.205  0.00  0.00    +0.000 A 
ENDBRANCH  29  30
ENDBRANCH  21  24
ENDBRANCH   1  22
TORSDOF 4
ENDMDL
MODEL 7
REMARK VINA RESULT:      -9.6      6.647      8.600
REMARK  Name = CHEMBL603708
REMARK  4 active torsions:
REMARK  status: ('A' for Active; 'I' for Inactive)
REMARK    1  A    between atoms: C_2  and  C_23
REMARK    2  A    between atoms: N_3  and  C_4
REMARK    3  A    between atoms: C_7  and  C_8
REMARK    4  A    between atoms: C_28  and  C_29
REMARK                            x       y       z     vdW  Elec       q    Type
REMARK                         _______ _______ _______ _____ _____    ______ ____
ROOT
ATOM      1  C   UNL     1      -5.068   1.204 128.553  0.00  0.00    +0.000 A 
ATOM      2  C   UNL     1      -4.671   2.131 127.620  0.00  0.00    +0.000 A 
ATOM      3  C   UNL     1      -3.883   3.581 128.095  0.00  0.00    +0.000 A 
ATOM      4  C   UNL     1      -3.603   4.387 129.620  0.00  0.00    +0.000 A 
ATOM      5  C   UNL     1      -3.910   3.106 130.249  0.00  0.00    +0.000 A 
ATOM      6  C   UNL     1      -4.635   1.663 129.801  0.00  0.00    +0.000 A 
ENDROOT
BRANCH   4   7
ATOM      7  C   UNL     1      -2.987   6.190 130.363  0.00  0.00    +0.000 C 
ATOM      8  O   UNL     1      -2.141   5.987 129.365  0.00  0.00    +0.000 OA
ATOM      9  N   UNL     1      -2.843   7.816 131.447  0.00  0.00    +0.000 N 
ATOM     10  C   UNL     1      -1.762   6.932 131.275  0.00  0.00    +0.000 C 
ATOM     11  C   UNL     1      -2.043   6.594 132.651  0.00  0.00    +0.000 C 
ATOM     12  C   UNL     1      -1.049   7.632 132.926  0.00  0.00    +0.000 C 
ATOM     13  C   UNL     1      -1.658   8.005 134.256  0.00  0.00    +0.000 C 
ATOM     14  C   UNL     1      -1.084   9.183 133.698  0.00  0.00    +0.000 A 
ATOM     15  C   UNL     1       0.406   9.471 134.599  0.00  0.00    +0.000 A 
ATOM     16  C   UNL     1       1.058  10.588 134.992  0.00  0.00    +0.000 A 
ATOM     17  C   UNL     1       0.107  11.431 134.563  0.00  0.00    +0.000 A 
ATOM     18  C   UNL     1      -1.323  10.810 133.530  0.00  0.00    +0.000 A 
ATOM     19  C   UNL     1      -2.263   9.499 132.597  0.00  0.00    +0.000 A 
ENDBRANCH   4   7
BRANCH   1  22
ATOM     20  O   UNL     1      -7.856   0.782 128.845  0.00  0.00    +0.000 OA
ATOM     21  C   UNL     1      -7.156  -0.170 128.518  0.00  0.00    +0.000 C 
ATOM     22  N   UNL     1      -5.761  -0.058 128.336  0.00  0.00    +0.000 N 
ATOM     23  H   UNL     1      -5.251  -0.855 127.957  0.00  0.00    +0.000 HD
BRANCH  21  24
ATOM     24  C   UNL     1      -7.826  -1.482 128.186  0.00  0.00    +0.000 A 
ATOM     25  C   UNL     1      -7.977  -2.456 129.164  0.00  0.00    +0.000 A 
ATOM     26  C   UNL     1      -8.380  -3.749 128.815  0.00  0.00    +0.000 A 
ATOM     27  C   UNL     1      -8.847  -4.037 127.543  0.00  0.00    +0.000 A 
ATOM     28  C   UNL     1      -8.773  -3.057 126.570  0.00  0.00    +0.000 A 
ATOM     29  C   UNL     1      -8.292  -1.766 126.885  0.00  0.00    +0.000 A 
BRANCH  29  30
ATOM     30  C   UNL     1      -8.269  -0.774 125.824  0.00  0.00    +0.000 A 
ATOM     31  C   UNL     1      -9.321   0.121 125.637  0.00  0.00    +0.000 A 
ATOM     32  C   UNL     1      -9.333   0.929 124.506  0.00  0.00    +0.000 A 
ATOM     33  C   UNL     1      -8.209   1.022 123.696  0.00  0.00    +0.000 A 
ATOM     34  C   UNL     1      -7.138   0.177 123.910  0.00  0.00    +0.000 A 
ATOM     35  C   UNL     1      -7.178  -0.724 124.958  0.00  0.00    +0.000 A 
ENDBRANCH  29  30
ENDBRANCH  21  24
ENDBRANCH   1  22
TORSDOF 4
ENDMDL
MODEL 8
REMARK VINA RESULT:      -9.6      6.312      8.332
REMARK  Name = CHEMBL603708
REMARK  4 active torsions:
REMARK  status: ('A' for Active; 'I' for Inactive)
REMARK    1  A    between atoms: C_2  and  C_23
REMARK    2  A    between atoms: N_3  and  C_4
REMARK    3  A    between atoms: C_7  and  C_8
REMARK    4  A    between atoms: C_28  and  C_29
REMARK                            x       y       z     vdW  Elec       q    Type
REMARK                         _______ _______ _______ _____ _____    ______ ____
ROOT
ATOM      1  C   UNL     1      -5.122   1.044 127.898  0.00  0.00    +0.000 A 
ATOM      2  C   UNL     1      -4.629   1.990 127.033  0.00  0.00    +0.000 A 
ATOM      3  C   UNL     1      -3.852   3.405 127.619  0.00  0.00    +0.000 A 
ATOM      4  C   UNL     1      -3.683   4.156 129.188  0.00  0.00    +0.000 A 
ATOM      5  C   UNL     1      -4.069   2.864 129.747  0.00  0.00    +0.000 A 
ATOM      6  C   UNL     1      -4.785   1.453 129.192  0.00  0.00    +0.000 A 
ENDROOT
BRANCH   4   7
ATOM      7  C   UNL     1      -3.092   5.919 130.039  0.00  0.00    +0.000 C 
ATOM      8  O   UNL     1      -2.266   5.806 129.011  0.00  0.00    +0.000 OA
ATOM      9  N   UNL     1      -2.962   7.472 131.229  0.00  0.00    +0.000 N 
ATOM     10  C   UNL     1      -1.865   6.628 130.973  0.00  0.00    +0.000 C 
ATOM     11  C   UNL     1      -2.105   6.190 132.328  0.00  0.00    +0.000 C 
ATOM     12  C   UNL     1      -1.129   7.232 132.652  0.00  0.00    +0.000 C 
ATOM     13  C   UNL     1      -1.716   7.499 134.017  0.00  0.00    +0.000 C 
ATOM     14  C   UNL     1      -1.183   8.726 133.529  0.00  0.00    +0.000 A 
ATOM     15  C   UNL     1       0.321   8.990 134.415  0.00  0.00    +0.000 A 
ATOM     16  C   UNL     1       0.956  10.093 134.869  0.00  0.00    +0.000 A 
ATOM     17  C   UNL     1      -0.025  10.940 134.519  0.00  0.00    +0.000 A 
ATOM     18  C   UNL     1      -1.464  10.354 133.478  0.00  0.00    +0.000 A 
ATOM     19  C   UNL     1      -2.394   9.087 132.478  0.00  0.00    +0.000 A 
ENDBRANCH   4   7
BRANCH   1  22
ATOM     20  O   UNL     1      -7.834   0.482 128.505  0.00  0.00    +0.000 OA
ATOM     21  C   UNL     1      -7.174  -0.382 127.938  0.00  0.00    +0.000 C 
ATOM     22  N   UNL     1      -5.821  -0.193 127.583  0.00  0.00    +0.000 N 
ATOM     23  H   UNL     1      -5.361  -0.903 127.016  0.00  0.00    +0.000 HD
BRANCH  21  24
ATOM     24  C   UNL     1      -7.867  -1.650 127.499  0.00  0.00    +0.000 A 
ATOM     25  C   UNL     1      -8.494  -1.711 126.261  0.00  0.00    +0.000 A 
ATOM     26  C   UNL     1      -9.329  -2.787 125.946  0.00  0.00    +0.000 A 
ATOM     27  C   UNL     1      -9.382  -3.915 126.750  0.00  0.00    +0.000 A 
ATOM     28  C   UNL     1      -8.705  -3.903 127.956  0.00  0.00    +0.000 A 
ATOM     29  C   UNL     1      -7.920  -2.790 128.329  0.00  0.00    +0.000 A 
BRANCH  29  30
ATOM     30  C   UNL     1      -7.210  -2.855 129.595  0.00  0.00    +0.000 A 
ATOM     31  C   UNL     1      -5.918  -3.371 129.683  0.00  0.00    +0.000 A 
ATOM     32  C   UNL     1      -5.352  -3.575 130.935  0.00  0.00    +0.000 A 
ATOM     33  C   UNL     1      -5.955  -3.058 132.074  0.00  0.00    +0.000 A 
ATOM     34  C   UNL     1      -7.213  -2.493 131.985  0.00  0.00    +0.000 A 
ATOM     35  C   UNL     1      -7.839  -2.408 130.756  0.00  0.00    +0.000 A 
ENDBRANCH  29  30
ENDBRANCH  21  24
ENDBRANCH   1  22
TORSDOF 4
ENDMDL
MODEL 9
REMARK VINA RESULT:      -9.5      6.789      8.686
REMARK  Name = CHEMBL603708
REMARK  4 active torsions:
REMARK  status: ('A' for Active; 'I' for Inactive)
REMARK    1  A    between atoms: C_2  and  C_23
REMARK    2  A    between atoms: N_3  and  C_4
REMARK    3  A    between atoms: C_7  and  C_8
REMARK    4  A    between atoms: C_28  and  C_29
REMARK                            x       y       z     vdW  Elec       q    Type
REMARK                         _______ _______ _______ _____ _____    ______ ____
ROOT
ATOM      1  C   UNL     1      -4.187   1.951 128.812  0.00  0.00    +0.000 A 
ATOM      2  C   UNL     1      -4.263   1.818 130.177  0.00  0.00    +0.000 A 
ATOM      3  C   UNL     1      -3.763   3.088 131.219  0.00  0.00    +0.000 A 
ATOM      4  C   UNL     1      -2.895   4.589 131.001  0.00  0.00    +0.000 A 
ATOM      5  C   UNL     1      -3.211   4.460 129.582  0.00  0.00    +0.000 A 
ATOM      6  C   UNL     1      -3.741   3.251 128.549  0.00  0.00    +0.000 A 
ENDROOT
BRANCH   4   7
ATOM      7  C   UNL     1      -1.961   6.045 132.092  0.00  0.00    +0.000 C 
ATOM      8  O   UNL     1      -2.405   5.224 133.031  0.00  0.00    +0.000 OA
ATOM      9  N   UNL     1      -0.965   7.656 132.597  0.00  0.00    +0.000 N 
ATOM     10  C   UNL     1      -2.252   7.382 133.096  0.00  0.00    +0.000 C 
ATOM     11  C   UNL     1      -2.637   8.456 132.211  0.00  0.00    +0.000 C 
ATOM     12  C   UNL     1      -2.434   9.278 133.405  0.00  0.00    +0.000 C 
ATOM     13  C   UNL     1      -2.056  10.509 132.617  0.00  0.00    +0.000 C 
ATOM     14  C   UNL     1      -1.334  10.543 133.844  0.00  0.00    +0.000 A 
ATOM     15  C   UNL     1      -2.136  11.755 134.847  0.00  0.00    +0.000 A 
ATOM     16  C   UNL     1      -1.698  12.647 135.763  0.00  0.00    +0.000 A 
ATOM     17  C   UNL     1      -0.398  12.384 135.565  0.00  0.00    +0.000 A 
ATOM     18  C   UNL     1       0.132  10.942 134.498  0.00  0.00    +0.000 A 
ATOM     19  C   UNL     1      -0.188   9.432 133.454  0.00  0.00    +0.000 A 
ENDBRANCH   4   7
BRANCH   1  22
ATOM     20  O   UNL     1      -6.824   1.159 128.133  0.00  0.00    +0.000 OA
ATOM     21  C   UNL     1      -5.888   0.645 127.529  0.00  0.00    +0.000 C 
ATOM     22  N   UNL     1      -4.542   0.981 127.786  0.00  0.00    +0.000 N 
ATOM     23  H   UNL     1      -3.818   0.603 127.176  0.00  0.00    +0.000 HD
BRANCH  21  24
ATOM     24  C   UNL     1      -6.193  -0.297 126.389  0.00  0.00    +0.000 A 
ATOM     25  C   UNL     1      -6.254   0.180 125.086  0.00  0.00    +0.000 A 
ATOM     26  C   UNL     1      -6.760  -0.628 124.063  0.00  0.00    +0.000 A 
ATOM     27  C   UNL     1      -7.005  -1.977 124.266  0.00  0.00    +0.000 A 
ATOM     28  C   UNL     1      -6.880  -2.489 125.544  0.00  0.00    +0.000 A 
ATOM     29  C   UNL     1      -6.447  -1.668 126.609  0.00  0.00    +0.000 A 
BRANCH  29  30
ATOM     30  C   UNL     1      -6.308  -2.276 127.921  0.00  0.00    +0.000 A 
ATOM     31  C   UNL     1      -5.057  -2.547 128.473  0.00  0.00    +0.000 A 
ATOM     32  C   UNL     1      -4.978  -3.287 129.646  0.00  0.00    +0.000 A 
ATOM     33  C   UNL     1      -6.120  -3.552 130.390  0.00  0.00    +0.000 A 
ATOM     34  C   UNL     1      -7.362  -3.234 129.875  0.00  0.00    +0.000 A 
ATOM     35  C   UNL     1      -7.452  -2.615 128.642  0.00  0.00    +0.000 A 
ENDBRANCH  29  30
ENDBRANCH  21  24
ENDBRANCH   1  22
TORSDOF 4
ENDMDL
