MODEL 1
REMARK VINA RESULT:      -8.7      0.000      0.000
REMARK  Name = CHEMBL2112903
REMARK  14 active torsions:
REMARK  status: ('A' for Active; 'I' for Inactive)
REMARK    1  A    between atoms: C_1  and  C_2
REMARK    2  A    between atoms: C_7  and  N_8
REMARK    3  A    between atoms: N_11  and  S_12
REMARK    4  A    between atoms: S_12  and  C_15
REMARK    5  A    between atoms: C_15  and  C_16
REMARK    6  A    between atoms: C_21  and  N_22
REMARK    7  A    between atoms: C_23  and  C_25
REMARK    8  A    between atoms: C_25  and  N_26
REMARK    9  A    between atoms: C_25  and  C_27
REMARK   10  A    between atoms: C_27  and  C_28
REMARK   11  A    between atoms: C_28  and  S_29
REMARK   12  A    between atoms: S_29  and  C_30
REMARK   13  A    between atoms: C_33  and  C_34
REMARK   14  A    between atoms: C_33  and  C_35
REMARK                            x       y       z     vdW  Elec       q    Type
REMARK                         _______ _______ _______ _____ _____    ______ ____
ROOT
ATOM      1  C   UNL     1      -7.150  -0.532 127.796  0.00  0.00    +0.000 C 
ATOM      2  C   UNL     1      -5.778  -0.005 127.280  0.00  0.00    +0.000 C 
ATOM      3  C   UNL     1      -5.340  -1.140 126.287  0.00  0.00    +0.000 C 
ATOM      4  C   UNL     1      -6.464  -2.188 126.438  0.00  0.00    +0.000 C 
ATOM      5  C   UNL     1      -7.726  -1.676 125.707  0.00  0.00    +0.000 C 
ATOM      6  C   UNL     1      -8.168  -0.476 126.574  0.00  0.00    +0.000 C 
ATOM      7  C   UNL     1      -6.808  -2.063 127.934  0.00  0.00    +0.000 C 
ATOM      8  C   UNL     1      -7.984  -2.951 128.360  0.00  0.00    +0.000 C 
ATOM      9  C   UNL     1      -5.536  -2.453 128.757  0.00  0.00    +0.000 C 
ENDROOT
BRANCH   6  10
ATOM     10  N   UNL     1      -8.252   0.830 125.874  0.00  0.00    +0.000 N 
ATOM     11  C   UNL     1      -9.204   1.139 124.926  0.00  0.00    +0.000 C 
ATOM     12  O   UNL     1     -10.196   0.450 124.723  0.00  0.00    +0.000 OA
ATOM     13  H   UNL     1      -7.827   1.622 126.340  0.00  0.00    +0.000 HD
BRANCH  11  14
ATOM     14  C   UNL     1      -9.093   2.406 124.093  0.00  0.00    +0.000 C 
BRANCH  14  15
ATOM     15  N   UNL     1      -8.911   3.623 124.890  0.00  0.00    +0.000 NA
ATOM     16  H   UNL     1      -8.543   4.372 124.306  0.00  0.00    +0.000 HD
ATOM     17  H   UNL     1      -8.237   3.463 125.632  0.00  0.00    +0.000 HD
ENDBRANCH  14  15
BRANCH  14  18
ATOM     18  C   UNL     1      -7.886   2.216 123.136  0.00  0.00    +0.000 C 
BRANCH  18  19
ATOM     19  C   UNL     1      -7.885   3.243 122.031  0.00  0.00    +0.000 C 
BRANCH  19  20
ATOM     20  S   UNL     1      -6.253   3.613 121.410  0.00  0.00    +0.000 S 
ATOM     21  C   UNL     1      -6.506   4.437 119.850  0.00  0.00    +0.000 C 
ATOM     22  O   UNL     1      -5.624   4.560 122.311  0.00  0.00    +0.000 OA
ATOM     23  O   UNL     1      -5.618   2.340 121.126  0.00  0.00    +0.000 OA
ENDBRANCH  19  20
ENDBRANCH  18  19
ENDBRANCH  14  18
ENDBRANCH  11  14
ENDBRANCH   6  10
BRANCH   1  24
ATOM     24  C   UNL     1      -7.734   0.195 129.027  0.00  0.00    +0.000 C 
BRANCH  24  25
ATOM     25  S   UNL     1      -7.890   1.962 128.738  0.00  0.00    +0.000 S 
ATOM     26  O   UNL     1      -9.225   2.126 128.183  0.00  0.00    +0.000 OA
ATOM     27  O   UNL     1      -6.750   2.500 128.056  0.00  0.00    +0.000 OA
BRANCH  25  31
ATOM     28  N   UNL     1      -9.918   4.722 130.073  0.00  0.00    +0.000 N 
ATOM     29  C   UNL     1      -8.726   4.973 129.247  0.00  0.00    +0.000 C 
ATOM     30  C   UNL     1      -7.525   4.251 129.933  0.00  0.00    +0.000 C 
ATOM     31  N   UNL     1      -7.840   2.764 130.198  0.00  0.00    +0.000 NA
ATOM     32  C   UNL     1      -9.061   2.654 131.029  0.00  0.00    +0.000 C 
ATOM     33  C   UNL     1     -10.259   3.319 130.333  0.00  0.00    +0.000 C 
BRANCH  28  40
ATOM     34  C   UNL     1      -9.891   5.942 132.684  0.00  0.00    +0.000 C 
ATOM     35  C   UNL     1     -10.947   6.227 131.645  0.00  0.00    +0.000 A 
ATOM     36  C   UNL     1     -11.976   7.113 131.974  0.00  0.00    +0.000 A 
ATOM     37  C   UNL     1     -12.959   7.427 131.042  0.00  0.00    +0.000 A 
ATOM     38  C   UNL     1     -12.918   6.859 129.771  0.00  0.00    +0.000 A 
ATOM     39  C   UNL     1     -11.886   5.984 129.424  0.00  0.00    +0.000 A 
ATOM     40  C   UNL     1     -10.897   5.645 130.354  0.00  0.00    +0.000 A 
ENDBRANCH  28  40
ENDBRANCH  25  31
ENDBRANCH  24  25
ENDBRANCH   1  24
TORSDOF 10
ENDMDL
MODEL 2
REMARK VINA RESULT:      -8.6      3.745      6.049
REMARK  Name = CHEMBL2112903
REMARK  14 active torsions:
REMARK  status: ('A' for Active; 'I' for Inactive)
REMARK    1  A    between atoms: C_1  and  C_2
REMARK    2  A    between atoms: C_7  and  N_8
REMARK    3  A    between atoms: N_11  and  S_12
REMARK    4  A    between atoms: S_12  and  C_15
REMARK    5  A    between atoms: C_15  and  C_16
REMARK    6  A    between atoms: C_21  and  N_22
REMARK    7  A    between atoms: C_23  and  C_25
REMARK    8  A    between atoms: C_25  and  N_26
REMARK    9  A    between atoms: C_25  and  C_27
REMARK   10  A    between atoms: C_27  and  C_28
REMARK   11  A    between atoms: C_28  and  S_29
REMARK   12  A    between atoms: S_29  and  C_30
REMARK   13  A    between atoms: C_33  and  C_34
REMARK   14  A    between atoms: C_33  and  C_35
REMARK                            x       y       z     vdW  Elec       q    Type
REMARK                         _______ _______ _______ _____ _____    ______ ____
ROOT
ATOM      1  C   UNL     1      -4.052   5.574 131.134  0.00  0.00    +0.000 C 
ATOM      2  C   UNL     1      -4.660   6.910 130.612  0.00  0.00    +0.000 C 
ATOM      3  C   UNL     1      -3.384   7.805 130.429  0.00  0.00    +0.000 C 
ATOM      4  C   UNL     1      -2.246   6.901 130.951  0.00  0.00    +0.000 C 
ATOM      5  C   UNL     1      -1.951   5.810 129.896  0.00  0.00    +0.000 C 
ATOM      6  C   UNL     1      -3.222   4.932 129.938  0.00  0.00    +0.000 C 
ATOM      7  C   UNL     1      -2.947   6.148 132.097  0.00  0.00    +0.000 C 
ATOM      8  C   UNL     1      -2.055   5.090 132.760  0.00  0.00    +0.000 C 
ATOM      9  C   UNL     1      -3.389   7.202 133.167  0.00  0.00    +0.000 C 
ENDROOT
BRANCH   6  10
ATOM     10  N   UNL     1      -3.955   4.795 128.655  0.00  0.00    +0.000 N 
ATOM     11  C   UNL     1      -3.541   3.998 127.609  0.00  0.00    +0.000 C 
ATOM     12  O   UNL     1      -2.649   3.166 127.714  0.00  0.00    +0.000 OA
ATOM     13  H   UNL     1      -4.943   5.014 128.672  0.00  0.00    +0.000 HD
BRANCH  11  14
ATOM     14  C   UNL     1      -4.216   4.081 126.250  0.00  0.00    +0.000 C 
BRANCH  14  15
ATOM     15  N   UNL     1      -4.653   2.782 125.727  0.00  0.00    +0.000 NA
ATOM     16  H   UNL     1      -5.203   2.289 126.428  0.00  0.00    +0.000 HD
ATOM     17  H   UNL     1      -3.850   2.200 125.511  0.00  0.00    +0.000 HD
ENDBRANCH  14  15
BRANCH  14  18
ATOM     18  C   UNL     1      -5.439   5.025 126.407  0.00  0.00    +0.000 C 
BRANCH  18  19
ATOM     19  C   UNL     1      -6.337   4.979 125.196  0.00  0.00    +0.000 C 
BRANCH  19  20
ATOM     20  S   UNL     1      -7.993   4.427 125.563  0.00  0.00    +0.000 S 
ATOM     21  C   UNL     1      -7.830   3.269 126.908  0.00  0.00    +0.000 C 
ATOM     22  O   UNL     1      -8.757   5.560 126.047  0.00  0.00    +0.000 OA
ATOM     23  O   UNL     1      -8.448   3.679 124.405  0.00  0.00    +0.000 OA
ENDBRANCH  19  20
ENDBRANCH  18  19
ENDBRANCH  14  18
ENDBRANCH  11  14
ENDBRANCH   6  10
BRANCH   1  24
ATOM     24  C   UNL     1      -5.057   4.553 131.711  0.00  0.00    +0.000 C 
BRANCH  24  25
ATOM     25  S   UNL     1      -6.450   4.300 130.603  0.00  0.00    +0.000 S 
ATOM     26  O   UNL     1      -6.285   2.941 130.111  0.00  0.00    +0.000 OA
ATOM     27  O   UNL     1      -6.615   5.388 129.685  0.00  0.00    +0.000 OA
BRANCH  25  31
ATOM     28  N   UNL     1      -9.445   6.402 130.256  0.00  0.00    +0.000 N 
ATOM     29  C   UNL     1      -8.279   6.849 131.035  0.00  0.00    +0.000 C 
ATOM     30  C   UNL     1      -7.997   5.758 132.114  0.00  0.00    +0.000 C 
ATOM     31  N   UNL     1      -7.867   4.358 131.479  0.00  0.00    +0.000 NA
ATOM     32  C   UNL     1      -9.099   4.038 130.722  0.00  0.00    +0.000 C 
ATOM     33  C   UNL     1      -9.352   5.082 129.623  0.00  0.00    +0.000 C 
BRANCH  28  40
ATOM     34  C   UNL     1     -11.813   6.582 131.890  0.00  0.00    +0.000 C 
ATOM     35  C   UNL     1     -11.662   7.288 130.565  0.00  0.00    +0.000 A 
ATOM     36  C   UNL     1     -12.734   8.052 130.097  0.00  0.00    +0.000 A 
ATOM     37  C   UNL     1     -12.635   8.741 128.894  0.00  0.00    +0.000 A 
ATOM     38  C   UNL     1     -11.461   8.674 128.149  0.00  0.00    +0.000 A 
ATOM     39  C   UNL     1     -10.375   7.927 128.614  0.00  0.00    +0.000 A 
ATOM     40  C   UNL     1     -10.462   7.215 129.815  0.00  0.00    +0.000 A 
ENDBRANCH  28  40
ENDBRANCH  25  31
ENDBRANCH  24  25
ENDBRANCH   1  24
TORSDOF 10
ENDMDL
MODEL 3
REMARK VINA RESULT:      -8.6      1.801      1.983
REMARK  Name = CHEMBL2112903
REMARK  14 active torsions:
REMARK  status: ('A' for Active; 'I' for Inactive)
REMARK    1  A    between atoms: C_1  and  C_2
REMARK    2  A    between atoms: C_7  and  N_8
REMARK    3  A    between atoms: N_11  and  S_12
REMARK    4  A    between atoms: S_12  and  C_15
REMARK    5  A    between atoms: C_15  and  C_16
REMARK    6  A    between atoms: C_21  and  N_22
REMARK    7  A    between atoms: C_23  and  C_25
REMARK    8  A    between atoms: C_25  and  N_26
REMARK    9  A    between atoms: C_25  and  C_27
REMARK   10  A    between atoms: C_27  and  C_28
REMARK   11  A    between atoms: C_28  and  S_29
REMARK   12  A    between atoms: S_29  and  C_30
REMARK   13  A    between atoms: C_33  and  C_34
REMARK   14  A    between atoms: C_33  and  C_35
REMARK                            x       y       z     vdW  Elec       q    Type
REMARK                         _______ _______ _______ _____ _____    ______ ____
ROOT
ATOM      1  C   UNL     1      -7.254  -0.817 128.701  0.00  0.00    +0.000 C 
ATOM      2  C   UNL     1      -5.794  -0.382 128.374  0.00  0.00    +0.000 C 
ATOM      3  C   UNL     1      -5.242  -1.632 127.602  0.00  0.00    +0.000 C 
ATOM      4  C   UNL     1      -6.416  -2.632 127.672  0.00  0.00    +0.000 C 
ATOM      5  C   UNL     1      -7.516  -2.182 126.684  0.00  0.00    +0.000 C 
ATOM      6  C   UNL     1      -8.049  -0.881 127.324  0.00  0.00    +0.000 C 
ATOM      7  C   UNL     1      -7.002  -2.328 129.064  0.00  0.00    +0.000 C 
ATOM      8  C   UNL     1      -8.268  -3.136 129.376  0.00  0.00    +0.000 C 
ATOM      9  C   UNL     1      -5.903  -2.647 130.130  0.00  0.00    +0.000 C 
ENDROOT
BRANCH   6  10
ATOM     10  N   UNL     1      -7.962   0.337 126.481  0.00  0.00    +0.000 N 
ATOM     11  C   UNL     1      -8.839   0.636 125.460  0.00  0.00    +0.000 C 
ATOM     12  O   UNL     1      -9.894   0.039 125.288  0.00  0.00    +0.000 OA
ATOM     13  H   UNL     1      -7.466   1.128 126.875  0.00  0.00    +0.000 HD
BRANCH  11  14
ATOM     14  C   UNL     1      -8.558   1.779 124.499  0.00  0.00    +0.000 C 
BRANCH  14  15
ATOM     15  N   UNL     1      -9.654   2.748 124.395  0.00  0.00    +0.000 NA
ATOM     16  H   UNL     1      -9.677   3.152 123.461  0.00  0.00    +0.000 HD
ATOM     17  H   UNL     1      -9.513   3.512 125.049  0.00  0.00    +0.000 HD
ENDBRANCH  14  15
BRANCH  14  18
ATOM     18  C   UNL     1      -7.271   2.489 124.999  0.00  0.00    +0.000 C 
BRANCH  18  19
ATOM     19  C   UNL     1      -7.566   3.873 125.521  0.00  0.00    +0.000 C 
BRANCH  19  20
ATOM     20  S   UNL     1      -6.098   4.838 125.834  0.00  0.00    +0.000 S 
ATOM     21  C   UNL     1      -4.731   3.826 125.301  0.00  0.00    +0.000 C 
ATOM     22  O   UNL     1      -6.133   6.014 124.985  0.00  0.00    +0.000 OA
ATOM     23  O   UNL     1      -5.993   4.978 127.274  0.00  0.00    +0.000 OA
ENDBRANCH  19  20
ENDBRANCH  18  19
ENDBRANCH  14  18
ENDBRANCH  11  14
ENDBRANCH   6  10
BRANCH   1  24
ATOM     24  C   UNL     1      -8.008   0.059 129.726  0.00  0.00    +0.000 C 
BRANCH  24  25
ATOM     25  S   UNL     1      -7.905   1.803 129.306  0.00  0.00    +0.000 S 
ATOM     26  O   UNL     1      -9.105   2.064 128.527  0.00  0.00    +0.000 OA
ATOM     27  O   UNL     1      -6.615   2.160 128.792  0.00  0.00    +0.000 OA
BRANCH  25  31
ATOM     28  N   UNL     1     -10.003   4.683 130.212  0.00  0.00    +0.000 N 
ATOM     29  C   UNL     1      -8.725   4.856 129.503  0.00  0.00    +0.000 C 
ATOM     30  C   UNL     1      -7.619   4.170 130.364  0.00  0.00    +0.000 C 
ATOM     31  N   UNL     1      -7.992   2.712 130.701  0.00  0.00    +0.000 NA
ATOM     32  C   UNL     1      -9.297   2.680 131.402  0.00  0.00    +0.000 C 
ATOM     33  C   UNL     1     -10.399   3.308 130.535  0.00  0.00    +0.000 C 
BRANCH  28  40
ATOM     34  C   UNL     1     -10.235   6.082 132.721  0.00  0.00    +0.000 C 
ATOM     35  C   UNL     1     -11.164   6.310 131.554  0.00  0.00    +0.000 A 
ATOM     36  C   UNL     1     -12.203   7.231 131.705  0.00  0.00    +0.000 A 
ATOM     37  C   UNL     1     -13.070   7.494 130.650  0.00  0.00    +0.000 A 
ATOM     38  C   UNL     1     -12.903   6.838 129.434  0.00  0.00    +0.000 A 
ATOM     39  C   UNL     1     -11.858   5.925 129.264  0.00  0.00    +0.000 A 
ATOM     40  C   UNL     1     -10.985   5.638 130.319  0.00  0.00    +0.000 A 
ENDBRANCH  28  40
ENDBRANCH  25  31
ENDBRANCH  24  25
ENDBRANCH   1  24
TORSDOF 10
ENDMDL
MODEL 4
REMARK VINA RESULT:      -8.5      3.808      4.991
REMARK  Name = CHEMBL2112903
REMARK  14 active torsions:
REMARK  status: ('A' for Active; 'I' for Inactive)
REMARK    1  A    between atoms: C_1  and  C_2
REMARK    2  A    between atoms: C_7  and  N_8
REMARK    3  A    between atoms: N_11  and  S_12
REMARK    4  A    between atoms: S_12  and  C_15
REMARK    5  A    between atoms: C_15  and  C_16
REMARK    6  A    between atoms: C_21  and  N_22
REMARK    7  A    between atoms: C_23  and  C_25
REMARK    8  A    between atoms: C_25  and  N_26
REMARK    9  A    between atoms: C_25  and  C_27
REMARK   10  A    between atoms: C_27  and  C_28
REMARK   11  A    between atoms: C_28  and  S_29
REMARK   12  A    between atoms: S_29  and  C_30
REMARK   13  A    between atoms: C_33  and  C_34
REMARK   14  A    between atoms: C_33  and  C_35
REMARK                            x       y       z     vdW  Elec       q    Type
REMARK                         _______ _______ _______ _____ _____    ______ ____
ROOT
ATOM      1  C   UNL     1      -7.579  -1.388 124.915  0.00  0.00    +0.000 C 
ATOM      2  C   UNL     1      -6.149  -1.304 124.302  0.00  0.00    +0.000 C 
ATOM      3  C   UNL     1      -6.375  -1.877 122.858  0.00  0.00    +0.000 C 
ATOM      4  C   UNL     1      -7.862  -2.289 122.875  0.00  0.00    +0.000 C 
ATOM      5  C   UNL     1      -8.735  -1.016 122.788  0.00  0.00    +0.000 C 
ATOM      6  C   UNL     1      -8.486  -0.330 124.149  0.00  0.00    +0.000 C 
ATOM      7  C   UNL     1      -8.035  -2.775 124.326  0.00  0.00    +0.000 C 
ATOM      8  C   UNL     1      -9.477  -3.176 124.662  0.00  0.00    +0.000 C 
ATOM      9  C   UNL     1      -7.089  -4.003 124.539  0.00  0.00    +0.000 C 
ENDROOT
BRANCH   6  10
ATOM     10  N   UNL     1      -7.942   1.050 124.087  0.00  0.00    +0.000 N 
ATOM     11  C   UNL     1      -8.560   2.151 124.641  0.00  0.00    +0.000 C 
ATOM     12  O   UNL     1      -9.504   2.069 125.417  0.00  0.00    +0.000 OA
ATOM     13  H   UNL     1      -6.944   1.138 123.941  0.00  0.00    +0.000 HD
BRANCH  11  14
ATOM     14  C   UNL     1      -8.063   3.556 124.345  0.00  0.00    +0.000 C 
BRANCH  14  15
ATOM     15  N   UNL     1      -8.490   4.555 125.331  0.00  0.00    +0.000 NA
ATOM     16  H   UNL     1      -7.742   5.224 125.498  0.00  0.00    +0.000 HD
ATOM     17  H   UNL     1      -8.698   4.109 126.219  0.00  0.00    +0.000 HD
ENDBRANCH  14  15
BRANCH  14  18
ATOM     18  C   UNL     1      -6.512   3.490 124.301  0.00  0.00    +0.000 C 
BRANCH  18  19
ATOM     19  C   UNL     1      -5.957   4.228 123.109  0.00  0.00    +0.000 C 
BRANCH  19  20
ATOM     20  S   UNL     1      -6.017   3.281 121.598  0.00  0.00    +0.000 S 
ATOM     21  C   UNL     1      -7.471   3.843 120.734  0.00  0.00    +0.000 C 
ATOM     22  O   UNL     1      -4.863   3.630 120.792  0.00  0.00    +0.000 OA
ATOM     23  O   UNL     1      -6.251   1.902 121.982  0.00  0.00    +0.000 OA
ENDBRANCH  19  20
ENDBRANCH  18  19
ENDBRANCH  14  18
ENDBRANCH  11  14
ENDBRANCH   6  10
BRANCH   1  24
ATOM     24  C   UNL     1      -7.673  -1.183 126.443  0.00  0.00    +0.000 C 
BRANCH  24  25
ATOM     25  S   UNL     1      -6.199  -0.388 127.094  0.00  0.00    +0.000 S 
ATOM     26  O   UNL     1      -5.837   0.597 126.086  0.00  0.00    +0.000 OA
ATOM     27  O   UNL     1      -5.232  -1.338 127.559  0.00  0.00    +0.000 OA
BRANCH  25  31
ATOM     28  N   UNL     1      -4.762   2.626 128.634  0.00  0.00    +0.000 N 
ATOM     29  C   UNL     1      -4.206   1.288 128.897  0.00  0.00    +0.000 C 
ATOM     30  C   UNL     1      -5.369   0.400 129.438  0.00  0.00    +0.000 C 
ATOM     31  N   UNL     1      -6.588   0.432 128.492  0.00  0.00    +0.000 NA
ATOM     32  C   UNL     1      -7.039   1.831 128.308  0.00  0.00    +0.000 C 
ATOM     33  C   UNL     1      -5.912   2.697 127.726  0.00  0.00    +0.000 C 
BRANCH  28  40
ATOM     34  C   UNL     1      -2.822   3.564 126.719  0.00  0.00    +0.000 C 
ATOM     35  C   UNL     1      -3.130   4.282 128.010  0.00  0.00    +0.000 A 
ATOM     36  C   UNL     1      -2.423   5.451 128.301  0.00  0.00    +0.000 A 
ATOM     37  C   UNL     1      -2.688   6.162 129.467  0.00  0.00    +0.000 A 
ATOM     38  C   UNL     1      -3.665   5.710 130.349  0.00  0.00    +0.000 A 
ATOM     39  C   UNL     1      -4.391   4.550 130.063  0.00  0.00    +0.000 A 
ATOM     40  C   UNL     1      -4.127   3.815 128.902  0.00  0.00    +0.000 A 
ENDBRANCH  28  40
ENDBRANCH  25  31
ENDBRANCH  24  25
ENDBRANCH   1  24
TORSDOF 10
ENDMDL
MODEL 5
REMARK VINA RESULT:      -8.5      4.343      6.285
REMARK  Name = CHEMBL2112903
REMARK  14 active torsions:
REMARK  status: ('A' for Active; 'I' for Inactive)
REMARK    1  A    between atoms: C_1  and  C_2
REMARK    2  A    between atoms: C_7  and  N_8
REMARK    3  A    between atoms: N_11  and  S_12
REMARK    4  A    between atoms: S_12  and  C_15
REMARK    5  A    between atoms: C_15  and  C_16
REMARK    6  A    between atoms: C_21  and  N_22
REMARK    7  A    between atoms: C_23  and  C_25
REMARK    8  A    between atoms: C_25  and  N_26
REMARK    9  A    between atoms: C_25  and  C_27
REMARK   10  A    between atoms: C_27  and  C_28
REMARK   11  A    between atoms: C_28  and  S_29
REMARK   12  A    between atoms: S_29  and  C_30
REMARK   13  A    between atoms: C_33  and  C_34
REMARK   14  A    between atoms: C_33  and  C_35
REMARK                            x       y       z     vdW  Elec       q    Type
REMARK                         _______ _______ _______ _____ _____    ______ ____
ROOT
ATOM      1  C   UNL     1      -7.627  -1.474 124.845  0.00  0.00    +0.000 C 
ATOM      2  C   UNL     1      -6.197  -1.482 124.228  0.00  0.00    +0.000 C 
ATOM      3  C   UNL     1      -6.450  -2.122 122.816  0.00  0.00    +0.000 C 
ATOM      4  C   UNL     1      -7.953  -2.471 122.856  0.00  0.00    +0.000 C 
ATOM      5  C   UNL     1      -8.772  -1.169 122.701  0.00  0.00    +0.000 C 
ATOM      6  C   UNL     1      -8.492  -0.421 124.024  0.00  0.00    +0.000 C 
ATOM      7  C   UNL     1      -8.142  -2.870 124.332  0.00  0.00    +0.000 C 
ATOM      8  C   UNL     1      -9.599  -3.192 124.689  0.00  0.00    +0.000 C 
ATOM      9  C   UNL     1      -7.248  -4.124 124.610  0.00  0.00    +0.000 C 
ENDROOT
BRANCH   6  10
ATOM     10  N   UNL     1      -7.891   0.929 123.887  0.00  0.00    +0.000 N 
ATOM     11  C   UNL     1      -8.504   2.093 124.299  0.00  0.00    +0.000 C 
ATOM     12  O   UNL     1      -9.503   2.111 125.006  0.00  0.00    +0.000 OA
ATOM     13  H   UNL     1      -6.882   0.971 123.810  0.00  0.00    +0.000 HD
BRANCH  11  14
ATOM     14  C   UNL     1      -7.931   3.451 123.925  0.00  0.00    +0.000 C 
BRANCH  14  15
ATOM     15  N   UNL     1      -8.120   4.477 124.956  0.00  0.00    +0.000 NA
ATOM     16  H   UNL     1      -8.920   5.063 124.724  0.00  0.00    +0.000 HD
ATOM     17  H   UNL     1      -7.308   5.085 125.003  0.00  0.00    +0.000 HD
ENDBRANCH  14  15
BRANCH  14  18
ATOM     18  C   UNL     1      -6.415   3.247 123.656  0.00  0.00    +0.000 C 
BRANCH  18  19
ATOM     19  C   UNL     1      -5.874   4.284 122.704  0.00  0.00    +0.000 C 
BRANCH  19  20
ATOM     20  S   UNL     1      -6.060   3.834 120.987  0.00  0.00    +0.000 S 
ATOM     21  C   UNL     1      -5.204   5.094 120.062  0.00  0.00    +0.000 C 
ATOM     22  O   UNL     1      -5.369   2.578 120.765  0.00  0.00    +0.000 OA
ATOM     23  O   UNL     1      -7.472   3.957 120.675  0.00  0.00    +0.000 OA
ENDBRANCH  19  20
ENDBRANCH  18  19
ENDBRANCH  14  18
ENDBRANCH  11  14
ENDBRANCH   6  10
BRANCH   1  24
ATOM     24  C   UNL     1      -7.708  -1.184 126.360  0.00  0.00    +0.000 C 
BRANCH  24  25
ATOM     25  S   UNL     1      -6.160  -0.521 126.989  0.00  0.00    +0.000 S 
ATOM     26  O   UNL     1      -5.909   0.659 126.175  0.00  0.00    +0.000 OA
ATOM     27  O   UNL     1      -5.156  -1.534 127.128  0.00  0.00    +0.000 OA
BRANCH  25  31
ATOM     28  N   UNL     1      -6.262  -2.393 130.151  0.00  0.00    +0.000 N 
ATOM     29  C   UNL     1      -7.468  -2.209 129.328  0.00  0.00    +0.000 C 
ATOM     30  C   UNL     1      -7.658  -0.674 129.119  0.00  0.00    +0.000 C 
ATOM     31  N   UNL     1      -6.376  -0.020 128.564  0.00  0.00    +0.000 NA
ATOM     32  C   UNL     1      -5.243  -0.287 129.480  0.00  0.00    +0.000 C 
ATOM     33  C   UNL     1      -5.020  -1.798 129.647  0.00  0.00    +0.000 C 
BRANCH  28  40
ATOM     34  C   UNL     1      -7.265  -1.670 132.755  0.00  0.00    +0.000 C 
ATOM     35  C   UNL     1      -6.560  -2.973 132.469  0.00  0.00    +0.000 A 
ATOM     36  C   UNL     1      -6.366  -3.866 133.525  0.00  0.00    +0.000 A 
ATOM     37  C   UNL     1      -5.743  -5.090 133.306  0.00  0.00    +0.000 A 
ATOM     38  C   UNL     1      -5.313  -5.432 132.028  0.00  0.00    +0.000 A 
ATOM     39  C   UNL     1      -5.515  -4.555 130.958  0.00  0.00    +0.000 A 
ATOM     40  C   UNL     1      -6.126  -3.313 131.163  0.00  0.00    +0.000 A 
ENDBRANCH  28  40
ENDBRANCH  25  31
ENDBRANCH  24  25
ENDBRANCH   1  24
TORSDOF 10
ENDMDL
MODEL 6
REMARK VINA RESULT:      -8.5      4.534      6.573
REMARK  Name = CHEMBL2112903
REMARK  14 active torsions:
REMARK  status: ('A' for Active; 'I' for Inactive)
REMARK    1  A    between atoms: C_1  and  C_2
REMARK    2  A    between atoms: C_7  and  N_8
REMARK    3  A    between atoms: N_11  and  S_12
REMARK    4  A    between atoms: S_12  and  C_15
REMARK    5  A    between atoms: C_15  and  C_16
REMARK    6  A    between atoms: C_21  and  N_22
REMARK    7  A    between atoms: C_23  and  C_25
REMARK    8  A    between atoms: C_25  and  N_26
REMARK    9  A    between atoms: C_25  and  C_27
REMARK   10  A    between atoms: C_27  and  C_28
REMARK   11  A    between atoms: C_28  and  S_29
REMARK   12  A    between atoms: S_29  and  C_30
REMARK   13  A    between atoms: C_33  and  C_34
REMARK   14  A    between atoms: C_33  and  C_35
REMARK                            x       y       z     vdW  Elec       q    Type
REMARK                         _______ _______ _______ _____ _____    ______ ____
ROOT
ATOM      1  C   UNL     1      -7.554  -1.497 124.984  0.00  0.00    +0.000 C 
ATOM      2  C   UNL     1      -6.126  -1.343 124.381  0.00  0.00    +0.000 C 
ATOM      3  C   UNL     1      -6.335  -1.833 122.904  0.00  0.00    +0.000 C 
ATOM      4  C   UNL     1      -7.813  -2.280 122.891  0.00  0.00    +0.000 C 
ATOM      5  C   UNL     1      -8.715  -1.024 122.879  0.00  0.00    +0.000 C 
ATOM      6  C   UNL     1      -8.485  -0.416 124.280  0.00  0.00    +0.000 C 
ATOM      7  C   UNL     1      -7.977  -2.856 124.310  0.00  0.00    +0.000 C 
ATOM      8  C   UNL     1      -9.410  -3.309 124.617  0.00  0.00    +0.000 C 
ATOM      9  C   UNL     1      -7.004  -4.073 124.452  0.00  0.00    +0.000 C 
ENDROOT
BRANCH   6  10
ATOM     10  N   UNL     1      -7.972   0.977 124.303  0.00  0.00    +0.000 N 
ATOM     11  C   UNL     1      -8.769   2.092 124.454  0.00  0.00    +0.000 C 
ATOM     12  O   UNL     1      -9.944   2.034 124.795  0.00  0.00    +0.000 OA
ATOM     13  H   UNL     1      -7.000   1.099 124.557  0.00  0.00    +0.000 HD
BRANCH  11  14
ATOM     14  C   UNL     1      -8.207   3.488 124.243  0.00  0.00    +0.000 C 
BRANCH  14  15
ATOM     15  N   UNL     1      -8.694   4.475 125.212  0.00  0.00    +0.000 NA
ATOM     16  H   UNL     1      -9.699   4.374 125.340  0.00  0.00    +0.000 HD
ATOM     17  H   UNL     1      -8.528   5.417 124.871  0.00  0.00    +0.000 HD
ENDBRANCH  14  15
BRANCH  14  18
ATOM     18  C   UNL     1      -6.661   3.375 124.337  0.00  0.00    +0.000 C 
BRANCH  18  19
ATOM     19  C   UNL     1      -6.038   4.653 124.839  0.00  0.00    +0.000 C 
BRANCH  19  20
ATOM     20  S   UNL     1      -5.343   4.507 126.476  0.00  0.00    +0.000 S 
ATOM     21  C   UNL     1      -3.907   3.466 126.300  0.00  0.00    +0.000 C 
ATOM     22  O   UNL     1      -4.888   5.817 126.900  0.00  0.00    +0.000 OA
ATOM     23  O   UNL     1      -6.309   3.774 127.274  0.00  0.00    +0.000 OA
ENDBRANCH  19  20
ENDBRANCH  18  19
ENDBRANCH  14  18
ENDBRANCH  11  14
ENDBRANCH   6  10
BRANCH   1  24
ATOM     24  C   UNL     1      -7.656  -1.387 126.521  0.00  0.00    +0.000 C 
BRANCH  24  25
ATOM     25  S   UNL     1      -6.195  -0.612 127.225  0.00  0.00    +0.000 S 
ATOM     26  O   UNL     1      -5.992   0.584 126.423  0.00  0.00    +0.000 OA
ATOM     27  O   UNL     1      -5.126  -1.548 127.415  0.00  0.00    +0.000 OA
BRANCH  25  31
ATOM     28  N   UNL     1      -6.340  -2.499 130.377  0.00  0.00    +0.000 N 
ATOM     29  C   UNL     1      -7.510  -2.390 129.491  0.00  0.00    +0.000 C 
ATOM     30  C   UNL     1      -7.789  -0.871 129.273  0.00  0.00    +0.000 C 
ATOM     31  N   UNL     1      -6.525  -0.132 128.786  0.00  0.00    +0.000 NA
ATOM     32  C   UNL     1      -5.427  -0.328 129.761  0.00  0.00    +0.000 C 
ATOM     33  C   UNL     1      -5.114  -1.822 129.939  0.00  0.00    +0.000 C 
BRANCH  28  40
ATOM     34  C   UNL     1      -7.604  -1.897 132.896  0.00  0.00    +0.000 C 
ATOM     35  C   UNL     1      -6.761  -3.126 132.663  0.00  0.00    +0.000 A 
ATOM     36  C   UNL     1      -6.566  -4.007 133.729  0.00  0.00    +0.000 A 
ATOM     37  C   UNL     1      -5.817  -5.166 133.557  0.00  0.00    +0.000 A 
ATOM     38  C   UNL     1      -5.258  -5.454 132.315  0.00  0.00    +0.000 A 
ATOM     39  C   UNL     1      -5.459  -4.589 131.235  0.00  0.00    +0.000 A 
ATOM     40  C   UNL     1      -6.197  -3.411 131.394  0.00  0.00    +0.000 A 
ENDBRANCH  28  40
ENDBRANCH  25  31
ENDBRANCH  24  25
ENDBRANCH   1  24
TORSDOF 10
ENDMDL
MODEL 7
REMARK VINA RESULT:      -8.4      2.987      7.790
REMARK  Name = CHEMBL2112903
REMARK  14 active torsions:
REMARK  status: ('A' for Active; 'I' for Inactive)
REMARK    1  A    between atoms: C_1  and  C_2
REMARK    2  A    between atoms: C_7  and  N_8
REMARK    3  A    between atoms: N_11  and  S_12
REMARK    4  A    between atoms: S_12  and  C_15
REMARK    5  A    between atoms: C_15  and  C_16
REMARK    6  A    between atoms: C_21  and  N_22
REMARK    7  A    between atoms: C_23  and  C_25
REMARK    8  A    between atoms: C_25  and  N_26
REMARK    9  A    between atoms: C_25  and  C_27
REMARK   10  A    between atoms: C_27  and  C_28
REMARK   11  A    between atoms: C_28  and  S_29
REMARK   12  A    between atoms: S_29  and  C_30
REMARK   13  A    between atoms: C_33  and  C_34
REMARK   14  A    between atoms: C_33  and  C_35
REMARK                            x       y       z     vdW  Elec       q    Type
REMARK                         _______ _______ _______ _____ _____    ______ ____
ROOT
ATOM      1  C   UNL     1      -7.420   2.103 130.679  0.00  0.00    +0.000 C 
ATOM      2  C   UNL     1      -8.607   1.133 130.403  0.00  0.00    +0.000 C 
ATOM      3  C   UNL     1      -8.907   0.561 131.834  0.00  0.00    +0.000 C 
ATOM      4  C   UNL     1      -7.806   1.205 132.704  0.00  0.00    +0.000 C 
ATOM      5  C   UNL     1      -8.160   2.692 132.939  0.00  0.00    +0.000 C 
ATOM      6  C   UNL     1      -7.989   3.316 131.536  0.00  0.00    +0.000 C 
ATOM      7  C   UNL     1      -6.617   1.243 131.726  0.00  0.00    +0.000 C 
ATOM      8  C   UNL     1      -5.376   1.931 132.309  0.00  0.00    +0.000 C 
ATOM      9  C   UNL     1      -6.263  -0.231 131.339  0.00  0.00    +0.000 C 
ENDROOT
BRANCH   6  10
ATOM     10  N   UNL     1      -9.190   3.984 130.976  0.00  0.00    +0.000 N 
ATOM     11  C   UNL     1      -9.606   5.250 131.328  0.00  0.00    +0.000 C 
ATOM     12  O   UNL     1      -8.914   6.028 131.973  0.00  0.00    +0.000 OA
ATOM     13  H   UNL     1      -9.515   3.653 130.075  0.00  0.00    +0.000 HD
BRANCH  11  14
ATOM     14  C   UNL     1     -10.961   5.778 130.886  0.00  0.00    +0.000 C 
BRANCH  14  15
ATOM     15  N   UNL     1     -11.898   6.004 131.991  0.00  0.00    +0.000 NA
ATOM     16  H   UNL     1     -12.841   6.133 131.630  0.00  0.00    +0.000 HD
ATOM     17  H   UNL     1     -11.652   6.850 132.496  0.00  0.00    +0.000 HD
ENDBRANCH  14  15
BRANCH  14  18
ATOM     18  C   UNL     1     -10.706   7.110 130.130  0.00  0.00    +0.000 C 
BRANCH  18  19
ATOM     19  C   UNL     1     -10.381   6.873 128.677  0.00  0.00    +0.000 C 
BRANCH  19  20
ATOM     20  S   UNL     1     -11.569   7.596 127.558  0.00  0.00    +0.000 S 
ATOM     21  C   UNL     1     -12.415   8.853 128.498  0.00  0.00    +0.000 C 
ATOM     22  O   UNL     1     -10.847   8.257 126.488  0.00  0.00    +0.000 OA
ATOM     23  O   UNL     1     -12.538   6.560 127.256  0.00  0.00    +0.000 OA
ENDBRANCH  19  20
ENDBRANCH  18  19
ENDBRANCH  14  18
ENDBRANCH  11  14
ENDBRANCH   6  10
BRANCH   1  24
ATOM     24  C   UNL     1      -6.665   2.620 129.435  0.00  0.00    +0.000 C 
BRANCH  24  25
ATOM     25  S   UNL     1      -7.798   3.254 128.192  0.00  0.00    +0.000 S 
ATOM     26  O   UNL     1      -7.712   4.701 128.321  0.00  0.00    +0.000 OA
ATOM     27  O   UNL     1      -9.071   2.597 128.236  0.00  0.00    +0.000 OA
BRANCH  25  31
ATOM     28  N   UNL     1      -7.641   0.022 126.447  0.00  0.00    +0.000 N 
ATOM     29  C   UNL     1      -6.564   0.463 127.348  0.00  0.00    +0.000 C 
ATOM     30  C   UNL     1      -6.069   1.851 126.835  0.00  0.00    +0.000 C 
ATOM     31  N   UNL     1      -7.240   2.842 126.677  0.00  0.00    +0.000 NA
ATOM     32  C   UNL     1      -8.252   2.275 125.756  0.00  0.00    +0.000 C 
ATOM     33  C   UNL     1      -8.780   0.932 126.284  0.00  0.00    +0.000 C 
BRANCH  28  40
ATOM     34  C   UNL     1      -6.763  -0.603 123.774  0.00  0.00    +0.000 C 
ATOM     35  C   UNL     1      -7.454  -1.596 124.675  0.00  0.00    +0.000 A 
ATOM     36  C   UNL     1      -7.698  -2.880 124.180  0.00  0.00    +0.000 A 
ATOM     37  C   UNL     1      -8.310  -3.838 124.980  0.00  0.00    +0.000 A 
ATOM     38  C   UNL     1      -8.680  -3.521 126.285  0.00  0.00    +0.000 A 
ATOM     39  C   UNL     1      -8.426  -2.246 126.798  0.00  0.00    +0.000 A 
ATOM     40  C   UNL     1      -7.825  -1.265 126.002  0.00  0.00    +0.000 A 
ENDBRANCH  28  40
ENDBRANCH  25  31
ENDBRANCH  24  25
ENDBRANCH   1  24
TORSDOF 10
ENDMDL
MODEL 8
REMARK VINA RESULT:      -8.4      3.257      8.202
REMARK  Name = CHEMBL2112903
REMARK  14 active torsions:
REMARK  status: ('A' for Active; 'I' for Inactive)
REMARK    1  A    between atoms: C_1  and  C_2
REMARK    2  A    between atoms: C_7  and  N_8
REMARK    3  A    between atoms: N_11  and  S_12
REMARK    4  A    between atoms: S_12  and  C_15
REMARK    5  A    between atoms: C_15  and  C_16
REMARK    6  A    between atoms: C_21  and  N_22
REMARK    7  A    between atoms: C_23  and  C_25
REMARK    8  A    between atoms: C_25  and  N_26
REMARK    9  A    between atoms: C_25  and  C_27
REMARK   10  A    between atoms: C_27  and  C_28
REMARK   11  A    between atoms: C_28  and  S_29
REMARK   12  A    between atoms: S_29  and  C_30
REMARK   13  A    between atoms: C_33  and  C_34
REMARK   14  A    between atoms: C_33  and  C_35
REMARK                            x       y       z     vdW  Elec       q    Type
REMARK                         _______ _______ _______ _____ _____    ______ ____
ROOT
ATOM      1  C   UNL     1      -5.570   3.987 128.125  0.00  0.00    +0.000 C 
ATOM      2  C   UNL     1      -5.969   2.533 128.520  0.00  0.00    +0.000 C 
ATOM      3  C   UNL     1      -4.969   2.223 129.690  0.00  0.00    +0.000 C 
ATOM      4  C   UNL     1      -4.088   3.490 129.741  0.00  0.00    +0.000 C 
ATOM      5  C   UNL     1      -4.899   4.636 130.390  0.00  0.00    +0.000 C 
ATOM      6  C   UNL     1      -5.984   4.936 129.332  0.00  0.00    +0.000 C 
ATOM      7  C   UNL     1      -4.005   3.873 128.252  0.00  0.00    +0.000 C 
ATOM      8  C   UNL     1      -3.241   5.180 128.006  0.00  0.00    +0.000 C 
ATOM      9  C   UNL     1      -3.296   2.703 127.492  0.00  0.00    +0.000 C 
ENDROOT
BRANCH   6  10
ATOM     10  N   UNL     1      -7.389   4.805 129.794  0.00  0.00    +0.000 N 
ATOM     11  C   UNL     1      -8.094   5.810 130.421  0.00  0.00    +0.000 C 
ATOM     12  O   UNL     1      -7.707   6.970 130.469  0.00  0.00    +0.000 OA
ATOM     13  H   UNL     1      -7.951   4.096 129.339  0.00  0.00    +0.000 HD
BRANCH  11  14
ATOM     14  C   UNL     1      -9.443   5.532 131.064  0.00  0.00    +0.000 C 
BRANCH  14  15
ATOM     15  N   UNL     1      -9.741   6.396 132.212  0.00  0.00    +0.000 NA
ATOM     16  H   UNL     1      -9.998   5.830 133.018  0.00  0.00    +0.000 HD
ATOM     17  H   UNL     1     -10.530   7.000 132.005  0.00  0.00    +0.000 HD
ENDBRANCH  14  15
BRANCH  14  18
ATOM     18  C   UNL     1     -10.521   5.728 129.963  0.00  0.00    +0.000 C 
BRANCH  18  19
ATOM     19  C   UNL     1     -11.361   6.954 130.218  0.00  0.00    +0.000 C 
BRANCH  19  20
ATOM     20  S   UNL     1     -11.404   8.083 128.836  0.00  0.00    +0.000 S 
ATOM     21  C   UNL     1     -12.205   7.196 127.514  0.00  0.00    +0.000 C 
ATOM     22  O   UNL     1     -12.250   9.207 129.189  0.00  0.00    +0.000 OA
ATOM     23  O   UNL     1     -10.027   8.300 128.435  0.00  0.00    +0.000 OA
ENDBRANCH  19  20
ENDBRANCH  18  19
ENDBRANCH  14  18
ENDBRANCH  11  14
ENDBRANCH   6  10
BRANCH   1  24
ATOM     24  C   UNL     1      -6.154   4.510 126.794  0.00  0.00    +0.000 C 
BRANCH  24  25
ATOM     25  S   UNL     1      -7.904   4.132 126.647  0.00  0.00    +0.000 S 
ATOM     26  O   UNL     1      -8.576   5.397 126.900  0.00  0.00    +0.000 OA
ATOM     27  O   UNL     1      -8.267   2.958 127.385  0.00  0.00    +0.000 OA
BRANCH  25  31
ATOM     28  N   UNL     1      -6.984   1.137 124.723  0.00  0.00    +0.000 N 
ATOM     29  C   UNL     1      -6.094   2.306 124.798  0.00  0.00    +0.000 C 
ATOM     30  C   UNL     1      -6.909   3.543 124.309  0.00  0.00    +0.000 C 
ATOM     31  N   UNL     1      -8.239   3.680 125.078  0.00  0.00    +0.000 NA
ATOM     32  C   UNL     1      -9.032   2.437 124.927  0.00  0.00    +0.000 C 
ATOM     33  C   UNL     1      -8.252   1.223 125.455  0.00  0.00    +0.000 C 
BRANCH  28  40
ATOM     34  C   UNL     1      -5.472  -0.492 126.558  0.00  0.00    +0.000 C 
ATOM     35  C   UNL     1      -5.824  -0.927 125.157  0.00  0.00    +0.000 A 
ATOM     36  C   UNL     1      -5.375  -2.176 124.720  0.00  0.00    +0.000 A 
ATOM     37  C   UNL     1      -5.694  -2.632 123.446  0.00  0.00    +0.000 A 
ATOM     38  C   UNL     1      -6.467  -1.843 122.599  0.00  0.00    +0.000 A 
ATOM     39  C   UNL     1      -6.936  -0.598 123.029  0.00  0.00    +0.000 A 
ATOM     40  C   UNL     1      -6.612  -0.117 124.302  0.00  0.00    +0.000 A 
ENDBRANCH  28  40
ENDBRANCH  25  31
ENDBRANCH  24  25
ENDBRANCH   1  24
TORSDOF 10
ENDMDL
MODEL 9
REMARK VINA RESULT:      -8.3      3.329      8.160
REMARK  Name = CHEMBL2112903
REMARK  14 active torsions:
REMARK  status: ('A' for Active; 'I' for Inactive)
REMARK    1  A    between atoms: C_1  and  C_2
REMARK    2  A    between atoms: C_7  and  N_8
REMARK    3  A    between atoms: N_11  and  S_12
REMARK    4  A    between atoms: S_12  and  C_15
REMARK    5  A    between atoms: C_15  and  C_16
REMARK    6  A    between atoms: C_21  and  N_22
REMARK    7  A    between atoms: C_23  and  C_25
REMARK    8  A    between atoms: C_25  and  N_26
REMARK    9  A    between atoms: C_25  and  C_27
REMARK   10  A    between atoms: C_27  and  C_28
REMARK   11  A    between atoms: C_28  and  S_29
REMARK   12  A    between atoms: S_29  and  C_30
REMARK   13  A    between atoms: C_33  and  C_34
REMARK   14  A    between atoms: C_33  and  C_35
REMARK                            x       y       z     vdW  Elec       q    Type
REMARK                         _______ _______ _______ _____ _____    ______ ____
ROOT
ATOM      1  C   UNL     1      -7.760   2.937 131.249  0.00  0.00    +0.000 C 
ATOM      2  C   UNL     1      -9.019   2.525 130.428  0.00  0.00    +0.000 C 
ATOM      3  C   UNL     1     -10.068   2.229 131.559  0.00  0.00    +0.000 C 
ATOM      4  C   UNL     1      -9.249   2.421 132.853  0.00  0.00    +0.000 C 
ATOM      5  C   UNL     1      -9.034   3.933 133.089  0.00  0.00    +0.000 C 
ATOM      6  C   UNL     1      -8.081   4.333 131.941  0.00  0.00    +0.000 C 
ATOM      7  C   UNL     1      -7.864   1.897 132.427  0.00  0.00    +0.000 C 
ATOM      8  C   UNL     1      -6.798   2.051 133.519  0.00  0.00    +0.000 C 
ATOM      9  C   UNL     1      -8.014   0.386 132.053  0.00  0.00    +0.000 C 
ENDROOT
BRANCH   6  10
ATOM     10  N   UNL     1      -8.576   5.396 131.031  0.00  0.00    +0.000 N 
ATOM     11  C   UNL     1      -9.566   6.297 131.361  0.00  0.00    +0.000 C 
ATOM     12  O   UNL     1      -9.982   6.446 132.503  0.00  0.00    +0.000 OA
ATOM     13  H   UNL     1      -7.950   5.688 130.291  0.00  0.00    +0.000 HD
BRANCH  11  14
ATOM     14  C   UNL     1     -10.176   7.207 130.308  0.00  0.00    +0.000 C 
BRANCH  14  15
ATOM     15  N   UNL     1      -9.698   6.940 128.947  0.00  0.00    +0.000 NA
ATOM     16  H   UNL     1      -9.578   5.938 128.808  0.00  0.00    +0.000 HD
ATOM     17  H   UNL     1      -8.792   7.374 128.798  0.00  0.00    +0.000 HD
ENDBRANCH  14  15
BRANCH  14  18
ATOM     18  C   UNL     1     -11.715   7.012 130.374  0.00  0.00    +0.000 C 
BRANCH  18  19
ATOM     19  C   UNL     1     -12.451   8.307 130.138  0.00  0.00    +0.000 C 
BRANCH  19  20
ATOM     20  S   UNL     1     -12.907   8.561 128.431  0.00  0.00    +0.000 S 
ATOM     21  C   UNL     1     -13.842   7.119 127.961  0.00  0.00    +0.000 C 
ATOM     22  O   UNL     1     -13.795   9.705 128.360  0.00  0.00    +0.000 OA
ATOM     23  O   UNL     1     -11.675   8.543 127.665  0.00  0.00    +0.000 OA
ENDBRANCH  19  20
ENDBRANCH  18  19
ENDBRANCH  14  18
ENDBRANCH  11  14
ENDBRANCH   6  10
BRANCH   1  24
ATOM     24  C   UNL     1      -6.434   3.010 130.461  0.00  0.00    +0.000 C 
BRANCH  24  25
ATOM     25  S   UNL     1      -6.694   3.598 128.783  0.00  0.00    +0.000 S 
ATOM     26  O   UNL     1      -5.469   4.309 128.450  0.00  0.00    +0.000 OA
ATOM     27  O   UNL     1      -7.968   4.234 128.625  0.00  0.00    +0.000 OA
BRANCH  25  31
ATOM     28  N   UNL     1      -6.365   3.326 125.131  0.00  0.00    +0.000 N 
ATOM     29  C   UNL     1      -7.647   3.677 125.764  0.00  0.00    +0.000 C 
ATOM     30  C   UNL     1      -7.989   2.543 126.780  0.00  0.00    +0.000 C 
ATOM     31  N   UNL     1      -6.821   2.291 127.756  0.00  0.00    +0.000 NA
ATOM     32  C   UNL     1      -5.597   1.957 126.992  0.00  0.00    +0.000 C 
ATOM     33  C   UNL     1      -5.227   3.095 126.027  0.00  0.00    +0.000 C 
BRANCH  28  40
ATOM     34  C   UNL     1      -7.531   1.480 123.250  0.00  0.00    +0.000 C 
ATOM     35  C   UNL     1      -6.577   2.579 122.853  0.00  0.00    +0.000 A 
ATOM     36  C   UNL     1      -6.225   2.694 121.506  0.00  0.00    +0.000 A 
ATOM     37  C   UNL     1      -5.368   3.706 121.087  0.00  0.00    +0.000 A 
ATOM     38  C   UNL     1      -4.858   4.613 122.012  0.00  0.00    +0.000 A 
ATOM     39  C   UNL     1      -5.215   4.519 123.360  0.00  0.00    +0.000 A 
ATOM     40  C   UNL     1      -6.064   3.498 123.802  0.00  0.00    +0.000 A 
ENDBRANCH  28  40
ENDBRANCH  25  31
ENDBRANCH  24  25
ENDBRANCH   1  24
TORSDOF 10
ENDMDL
