MODEL 1
REMARK VINA RESULT:      -8.1      0.000      0.000
REMARK  Name = CHEMBL1254297
REMARK  8 active torsions:
REMARK  status: ('A' for Active; 'I' for Inactive)
REMARK    1  A    between atoms: C_1  and  O_2
REMARK    2  A    between atoms: O_2  and  C_3
REMARK    3  A    between atoms: C_6  and  N_7
REMARK    4  A    between atoms: C_8  and  C_9
REMARK    5  A    between atoms: C_12  and  C_13
REMARK    6  A    between atoms: C_16  and  C_17
REMARK    7  A    between atoms: C_22  and  O_23
REMARK    8  A    between atoms: O_23  and  C_24
REMARK                            x       y       z     vdW  Elec       q    Type
REMARK                         _______ _______ _______ _____ _____    ______ ____
ROOT
ATOM      1  N   UNL     1      -8.678  -1.467 124.645  0.00  0.00    +0.000 N 
ATOM      2  C   UNL     1      -9.166  -1.863 123.407  0.00  0.00    +0.000 A 
ATOM      3  C   UNL     1      -9.521  -1.014 122.245  0.00  0.00    +0.000 C 
ATOM      4  N   UNL     1      -9.150  -3.184 123.343  0.00  0.00    +0.000 NA
ATOM      5  N   UNL     1      -8.651  -3.672 124.512  0.00  0.00    +0.000 NA
ATOM      6  C   UNL     1      -8.382  -2.652 125.312  0.00  0.00    +0.000 A 
ENDROOT
BRANCH   1  10
ATOM      7  C   UNL     1      -7.912   2.339 126.201  0.00  0.00    +0.000 A 
ATOM      8  C   UNL     1      -6.968   1.754 125.373  0.00  0.00    +0.000 A 
ATOM      9  C   UNL     1      -7.222   0.483 124.845  0.00  0.00    +0.000 A 
ATOM     10  C   UNL     1      -8.428  -0.157 125.134  0.00  0.00    +0.000 A 
ATOM     11  C   UNL     1      -9.298   0.474 126.009  0.00  0.00    +0.000 A 
ATOM     12  N   UNL     1      -9.055   1.702 126.550  0.00  0.00    +0.000 NA
BRANCH   7  14
ATOM     13  C   UNL     1      -7.909   4.700 125.978  0.00  0.00    +0.000 C 
ATOM     14  O   UNL     1      -7.725   3.556 126.810  0.00  0.00    +0.000 OA
ENDBRANCH   7  14
ENDBRANCH   1  10
BRANCH   6  15
ATOM     15  C   UNL     1      -7.962  -2.781 126.702  0.00  0.00    +0.000 A 
ATOM     16  C   UNL     1      -6.713  -2.317 127.124  0.00  0.00    +0.000 A 
ATOM     17  C   UNL     1      -6.268  -2.580 128.424  0.00  0.00    +0.000 A 
ATOM     18  C   UNL     1      -7.108  -3.205 129.363  0.00  0.00    +0.000 A 
ATOM     19  C   UNL     1      -8.416  -3.511 128.971  0.00  0.00    +0.000 A 
ATOM     20  C   UNL     1      -8.790  -3.420 127.631  0.00  0.00    +0.000 A 
BRANCH  18  21
ATOM     21  C   UNL     1      -6.587  -3.596 130.685  0.00  0.00    +0.000 A 
ATOM     22  C   UNL     1      -5.718  -4.713 130.714  0.00  0.00    +0.000 A 
ATOM     23  C   UNL     1      -5.253  -5.261 131.911  0.00  0.00    +0.000 A 
ATOM     24  C   UNL     1      -5.591  -4.660 133.114  0.00  0.00    +0.000 A 
ATOM     25  C   UNL     1      -6.419  -3.539 133.115  0.00  0.00    +0.000 A 
ATOM     26  C   UNL     1      -6.942  -3.003 131.920  0.00  0.00    +0.000 A 
BRANCH  26  27
ATOM     27  O   UNL     1      -7.794  -1.959 132.195  0.00  0.00    +0.000 OA
ATOM     28  C   UNL     1      -7.341  -0.621 132.107  0.00  0.00    +0.000 C 
ENDBRANCH  26  27
ENDBRANCH  18  21
ENDBRANCH   6  15
TORSDOF 5
ENDMDL
MODEL 2
REMARK VINA RESULT:      -7.8      6.815     10.304
REMARK  Name = CHEMBL1254297
REMARK  8 active torsions:
REMARK  status: ('A' for Active; 'I' for Inactive)
REMARK    1  A    between atoms: C_1  and  O_2
REMARK    2  A    between atoms: O_2  and  C_3
REMARK    3  A    between atoms: C_6  and  N_7
REMARK    4  A    between atoms: C_8  and  C_9
REMARK    5  A    between atoms: C_12  and  C_13
REMARK    6  A    between atoms: C_16  and  C_17
REMARK    7  A    between atoms: C_22  and  O_23
REMARK    8  A    between atoms: O_23  and  C_24
REMARK                            x       y       z     vdW  Elec       q    Type
REMARK                         _______ _______ _______ _____ _____    ______ ____
ROOT
ATOM      1  N   UNL     1      -7.159   2.973 131.899  0.00  0.00    +0.000 N 
ATOM      2  C   UNL     1      -6.765   1.777 132.484  0.00  0.00    +0.000 A 
ATOM      3  C   UNL     1      -5.406   1.187 132.544  0.00  0.00    +0.000 C 
ATOM      4  N   UNL     1      -7.793   1.260 133.136  0.00  0.00    +0.000 NA
ATOM      5  N   UNL     1      -8.860   2.095 133.002  0.00  0.00    +0.000 NA
ATOM      6  C   UNL     1      -8.500   3.118 132.244  0.00  0.00    +0.000 A 
ENDROOT
BRANCH   1  10
ATOM      7  C   UNL     1      -4.979   5.826 129.754  0.00  0.00    +0.000 A 
ATOM      8  C   UNL     1      -4.933   5.852 131.138  0.00  0.00    +0.000 A 
ATOM      9  C   UNL     1      -5.655   4.897 131.861  0.00  0.00    +0.000 A 
ATOM     10  C   UNL     1      -6.381   3.919 131.179  0.00  0.00    +0.000 A 
ATOM     11  C   UNL     1      -6.416   3.990 129.796  0.00  0.00    +0.000 A 
ATOM     12  N   UNL     1      -5.736   4.929 129.078  0.00  0.00    +0.000 NA
BRANCH   7  14
ATOM     13  C   UNL     1      -3.335   6.250 128.098  0.00  0.00    +0.000 C 
ATOM     14  O   UNL     1      -4.350   6.756 128.964  0.00  0.00    +0.000 OA
ENDBRANCH   7  14
ENDBRANCH   1  10
BRANCH   6  15
ATOM     15  C   UNL     1      -9.408   4.152 131.764  0.00  0.00    +0.000 A 
ATOM     16  C   UNL     1     -10.286   3.907 130.703  0.00  0.00    +0.000 A 
ATOM     17  C   UNL     1     -11.043   4.951 130.162  0.00  0.00    +0.000 A 
ATOM     18  C   UNL     1     -11.030   6.231 130.744  0.00  0.00    +0.000 A 
ATOM     19  C   UNL     1     -10.274   6.414 131.908  0.00  0.00    +0.000 A 
ATOM     20  C   UNL     1      -9.381   5.431 132.331  0.00  0.00    +0.000 A 
BRANCH  18  21
ATOM     21  C   UNL     1     -11.725   7.354 130.091  0.00  0.00    +0.000 A 
ATOM     22  C   UNL     1     -12.478   8.205 130.935  0.00  0.00    +0.000 A 
ATOM     23  C   UNL     1     -13.281   9.229 130.430  0.00  0.00    +0.000 A 
ATOM     24  C   UNL     1     -13.297   9.476 129.066  0.00  0.00    +0.000 A 
ATOM     25  C   UNL     1     -12.539   8.675 128.213  0.00  0.00    +0.000 A 
ATOM     26  C   UNL     1     -11.764   7.602 128.698  0.00  0.00    +0.000 A 
BRANCH  26  27
ATOM     27  O   UNL     1     -11.185   6.919 127.655  0.00  0.00    +0.000 OA
ATOM     28  C   UNL     1     -10.960   7.560 126.414  0.00  0.00    +0.000 C 
ENDBRANCH  26  27
ENDBRANCH  18  21
ENDBRANCH   6  15
TORSDOF 5
ENDMDL
MODEL 3
REMARK VINA RESULT:      -7.8      3.249      7.321
REMARK  Name = CHEMBL1254297
REMARK  8 active torsions:
REMARK  status: ('A' for Active; 'I' for Inactive)
REMARK    1  A    between atoms: C_1  and  O_2
REMARK    2  A    between atoms: O_2  and  C_3
REMARK    3  A    between atoms: C_6  and  N_7
REMARK    4  A    between atoms: C_8  and  C_9
REMARK    5  A    between atoms: C_12  and  C_13
REMARK    6  A    between atoms: C_16  and  C_17
REMARK    7  A    between atoms: C_22  and  O_23
REMARK    8  A    between atoms: O_23  and  C_24
REMARK                            x       y       z     vdW  Elec       q    Type
REMARK                         _______ _______ _______ _____ _____    ______ ____
ROOT
ATOM      1  N   UNL     1      -5.854  -3.084 131.791  0.00  0.00    +0.000 N 
ATOM      2  C   UNL     1      -5.143  -3.947 132.615  0.00  0.00    +0.000 A 
ATOM      3  C   UNL     1      -4.694  -3.722 134.010  0.00  0.00    +0.000 C 
ATOM      4  N   UNL     1      -5.022  -5.116 132.009  0.00  0.00    +0.000 NA
ATOM      5  N   UNL     1      -5.648  -5.049 130.801  0.00  0.00    +0.000 NA
ATOM      6  C   UNL     1      -6.134  -3.828 130.648  0.00  0.00    +0.000 A 
ENDROOT
BRANCH   1  10
ATOM      7  C   UNL     1      -7.148   0.793 132.677  0.00  0.00    +0.000 A 
ATOM      8  C   UNL     1      -5.892   0.619 132.119  0.00  0.00    +0.000 A 
ATOM      9  C   UNL     1      -5.456  -0.675 131.816  0.00  0.00    +0.000 A 
ATOM     10  C   UNL     1      -6.302  -1.761 132.049  0.00  0.00    +0.000 A 
ATOM     11  C   UNL     1      -7.522  -1.508 132.654  0.00  0.00    +0.000 A 
ATOM     12  N   UNL     1      -7.952  -0.255 132.977  0.00  0.00    +0.000 NA
BRANCH   7  14
ATOM     13  C   UNL     1      -8.994   2.281 132.710  0.00  0.00    +0.000 C 
ATOM     14  O   UNL     1      -7.636   2.018 133.060  0.00  0.00    +0.000 OA
ENDBRANCH   7  14
ENDBRANCH   1  10
BRANCH   6  15
ATOM     15  C   UNL     1      -6.752  -3.332 129.425  0.00  0.00    +0.000 A 
ATOM     16  C   UNL     1      -8.091  -3.605 129.129  0.00  0.00    +0.000 A 
ATOM     17  C   UNL     1      -8.624  -3.248 127.886  0.00  0.00    +0.000 A 
ATOM     18  C   UNL     1      -7.867  -2.506 126.961  0.00  0.00    +0.000 A 
ATOM     19  C   UNL     1      -6.585  -2.096 127.343  0.00  0.00    +0.000 A 
ATOM     20  C   UNL     1      -5.993  -2.610 128.496  0.00  0.00    +0.000 A 
BRANCH  18  21
ATOM     21  C   UNL     1      -8.388  -2.250 125.607  0.00  0.00    +0.000 A 
ATOM     22  C   UNL     1      -8.826  -3.380 124.876  0.00  0.00    +0.000 A 
ATOM     23  C   UNL     1      -9.226  -3.292 123.542  0.00  0.00    +0.000 A 
ATOM     24  C   UNL     1      -9.265  -2.054 122.921  0.00  0.00    +0.000 A 
ATOM     25  C   UNL     1      -8.872  -0.918 123.626  0.00  0.00    +0.000 A 
ATOM     26  C   UNL     1      -8.413  -0.993 124.957  0.00  0.00    +0.000 A 
BRANCH  26  27
ATOM     27  O   UNL     1      -8.006   0.245 125.395  0.00  0.00    +0.000 OA
ATOM     28  C   UNL     1      -8.953   1.194 125.848  0.00  0.00    +0.000 C 
ENDBRANCH  26  27
ENDBRANCH  18  21
ENDBRANCH   6  15
TORSDOF 5
ENDMDL
MODEL 4
REMARK VINA RESULT:      -7.7      3.250      6.926
REMARK  Name = CHEMBL1254297
REMARK  8 active torsions:
REMARK  status: ('A' for Active; 'I' for Inactive)
REMARK    1  A    between atoms: C_1  and  O_2
REMARK    2  A    between atoms: O_2  and  C_3
REMARK    3  A    between atoms: C_6  and  N_7
REMARK    4  A    between atoms: C_8  and  C_9
REMARK    5  A    between atoms: C_12  and  C_13
REMARK    6  A    between atoms: C_16  and  C_17
REMARK    7  A    between atoms: C_22  and  O_23
REMARK    8  A    between atoms: O_23  and  C_24
REMARK                            x       y       z     vdW  Elec       q    Type
REMARK                         _______ _______ _______ _____ _____    ______ ____
ROOT
ATOM      1  N   UNL     1      -6.521  -1.970 131.784  0.00  0.00    +0.000 N 
ATOM      2  C   UNL     1      -5.898  -2.483 132.913  0.00  0.00    +0.000 A 
ATOM      3  C   UNL     1      -5.717  -1.837 134.235  0.00  0.00    +0.000 C 
ATOM      4  N   UNL     1      -5.583  -3.748 132.691  0.00  0.00    +0.000 NA
ATOM      5  N   UNL     1      -5.993  -4.087 131.438  0.00  0.00    +0.000 NA
ATOM      6  C   UNL     1      -6.540  -3.022 130.873  0.00  0.00    +0.000 A 
ENDROOT
BRANCH   1  10
ATOM      7  C   UNL     1      -8.260   1.767 131.070  0.00  0.00    +0.000 A 
ATOM      8  C   UNL     1      -9.040   0.760 131.616  0.00  0.00    +0.000 A 
ATOM      9  C   UNL     1      -8.462  -0.490 131.862  0.00  0.00    +0.000 A 
ATOM     10  C   UNL     1      -7.109  -0.692 131.585  0.00  0.00    +0.000 A 
ATOM     11  C   UNL     1      -6.410   0.349 130.996  0.00  0.00    +0.000 A 
ATOM     12  N   UNL     1      -6.964   1.566 130.729  0.00  0.00    +0.000 NA
BRANCH   7  14
ATOM     13  C   UNL     1     -10.176   3.115 130.705  0.00  0.00    +0.000 C 
ATOM     14  O   UNL     1      -8.754   3.005 130.742  0.00  0.00    +0.000 OA
ENDBRANCH   7  14
ENDBRANCH   1  10
BRANCH   6  15
ATOM     15  C   UNL     1      -6.973  -2.955 129.483  0.00  0.00    +0.000 A 
ATOM     16  C   UNL     1      -6.137  -2.438 128.489  0.00  0.00    +0.000 A 
ATOM     17  C   UNL     1      -6.623  -2.246 127.192  0.00  0.00    +0.000 A 
ATOM     18  C   UNL     1      -7.911  -2.677 126.831  0.00  0.00    +0.000 A 
ATOM     19  C   UNL     1      -8.672  -3.346 127.796  0.00  0.00    +0.000 A 
ATOM     20  C   UNL     1      -8.263  -3.367 129.128  0.00  0.00    +0.000 A 
BRANCH  18  21
ATOM     21  C   UNL     1      -8.461  -2.352 125.503  0.00  0.00    +0.000 A 
ATOM     22  C   UNL     1      -8.882  -3.447 124.710  0.00  0.00    +0.000 A 
ATOM     23  C   UNL     1      -9.306  -3.288 123.390  0.00  0.00    +0.000 A 
ATOM     24  C   UNL     1      -9.387  -2.016 122.846  0.00  0.00    +0.000 A 
ATOM     25  C   UNL     1      -9.010  -0.915 123.614  0.00  0.00    +0.000 A 
ATOM     26  C   UNL     1      -8.528  -1.059 124.931  0.00  0.00    +0.000 A 
BRANCH  26  27
ATOM     27  O   UNL     1      -8.145   0.160 125.438  0.00  0.00    +0.000 OA
ATOM     28  C   UNL     1      -9.004   0.880 126.302  0.00  0.00    +0.000 C 
ENDBRANCH  26  27
ENDBRANCH  18  21
ENDBRANCH   6  15
TORSDOF 5
ENDMDL
MODEL 5
REMARK VINA RESULT:      -7.5      4.610      7.270
REMARK  Name = CHEMBL1254297
REMARK  8 active torsions:
REMARK  status: ('A' for Active; 'I' for Inactive)
REMARK    1  A    between atoms: C_1  and  O_2
REMARK    2  A    between atoms: O_2  and  C_3
REMARK    3  A    between atoms: C_6  and  N_7
REMARK    4  A    between atoms: C_8  and  C_9
REMARK    5  A    between atoms: C_12  and  C_13
REMARK    6  A    between atoms: C_16  and  C_17
REMARK    7  A    between atoms: C_22  and  O_23
REMARK    8  A    between atoms: O_23  and  C_24
REMARK                            x       y       z     vdW  Elec       q    Type
REMARK                         _______ _______ _______ _____ _____    ______ ____
ROOT
ATOM      1  N   UNL     1      -9.700   4.350 131.550  0.00  0.00    +0.000 N 
ATOM      2  C   UNL     1     -10.707   5.215 131.144  0.00  0.00    +0.000 A 
ATOM      3  C   UNL     1     -10.977   6.595 131.614  0.00  0.00    +0.000 C 
ATOM      4  N   UNL     1     -11.357   4.670 130.130  0.00  0.00    +0.000 NA
ATOM      5  N   UNL     1     -10.794   3.463 129.848  0.00  0.00    +0.000 NA
ATOM      6  C   UNL     1      -9.810   3.248 130.707  0.00  0.00    +0.000 A 
ENDROOT
BRANCH   1  10
ATOM      7  C   UNL     1      -6.778   5.037 134.463  0.00  0.00    +0.000 A 
ATOM      8  C   UNL     1      -7.959   4.416 134.835  0.00  0.00    +0.000 A 
ATOM      9  C   UNL     1      -8.938   4.178 133.864  0.00  0.00    +0.000 A 
ATOM     10  C   UNL     1      -8.696   4.540 132.537  0.00  0.00    +0.000 A 
ATOM     11  C   UNL     1      -7.511   5.200 132.256  0.00  0.00    +0.000 A 
ATOM     12  N   UNL     1      -6.558   5.459 133.195  0.00  0.00    +0.000 NA
BRANCH   7  14
ATOM     13  C   UNL     1      -4.812   6.293 134.889  0.00  0.00    +0.000 C 
ATOM     14  O   UNL     1      -5.787   5.361 135.356  0.00  0.00    +0.000 OA
ENDBRANCH   7  14
ENDBRANCH   1  10
BRANCH   6  15
ATOM     15  C   UNL     1      -9.060   2.002 130.810  0.00  0.00    +0.000 A 
ATOM     16  C   UNL     1      -7.970   1.744 129.974  0.00  0.00    +0.000 A 
ATOM     17  C   UNL     1      -7.356   0.487 129.986  0.00  0.00    +0.000 A 
ATOM     18  C   UNL     1      -7.740  -0.496 130.917  0.00  0.00    +0.000 A 
ATOM     19  C   UNL     1      -8.719  -0.159 131.858  0.00  0.00    +0.000 A 
ATOM     20  C   UNL     1      -9.454   1.017 131.722  0.00  0.00    +0.000 A 
BRANCH  18  21
ATOM     21  C   UNL     1      -7.182  -1.856 130.836  0.00  0.00    +0.000 A 
ATOM     22  C   UNL     1      -6.298  -2.238 131.875  0.00  0.00    +0.000 A 
ATOM     23  C   UNL     1      -5.606  -3.450 131.853  0.00  0.00    +0.000 A 
ATOM     24  C   UNL     1      -5.834  -4.349 130.823  0.00  0.00    +0.000 A 
ATOM     25  C   UNL     1      -6.724  -4.015 129.803  0.00  0.00    +0.000 A 
ATOM     26  C   UNL     1      -7.392  -2.774 129.778  0.00  0.00    +0.000 A 
BRANCH  26  27
ATOM     27  O   UNL     1      -8.141  -2.654 128.632  0.00  0.00    +0.000 OA
ATOM     28  C   UNL     1      -8.788  -3.784 128.077  0.00  0.00    +0.000 C 
ENDBRANCH  26  27
ENDBRANCH  18  21
ENDBRANCH   6  15
TORSDOF 5
ENDMDL
MODEL 6
REMARK VINA RESULT:      -7.5      4.232      6.972
REMARK  Name = CHEMBL1254297
REMARK  8 active torsions:
REMARK  status: ('A' for Active; 'I' for Inactive)
REMARK    1  A    between atoms: C_1  and  O_2
REMARK    2  A    between atoms: O_2  and  C_3
REMARK    3  A    between atoms: C_6  and  N_7
REMARK    4  A    between atoms: C_8  and  C_9
REMARK    5  A    between atoms: C_12  and  C_13
REMARK    6  A    between atoms: C_16  and  C_17
REMARK    7  A    between atoms: C_22  and  O_23
REMARK    8  A    between atoms: O_23  and  C_24
REMARK                            x       y       z     vdW  Elec       q    Type
REMARK                         _______ _______ _______ _____ _____    ______ ____
ROOT
ATOM      1  N   UNL     1      -5.065   3.844 127.665  0.00  0.00    +0.000 N 
ATOM      2  C   UNL     1      -4.082   4.800 127.881  0.00  0.00    +0.000 A 
ATOM      3  C   UNL     1      -4.069   5.895 128.880  0.00  0.00    +0.000 C 
ATOM      4  N   UNL     1      -3.034   4.514 127.126  0.00  0.00    +0.000 NA
ATOM      5  N   UNL     1      -3.300   3.381 126.420  0.00  0.00    +0.000 NA
ATOM      6  C   UNL     1      -4.525   2.979 126.718  0.00  0.00    +0.000 A 
ENDROOT
BRANCH   1  10
ATOM      7  C   UNL     1      -8.802   3.304 129.465  0.00  0.00    +0.000 A 
ATOM      8  C   UNL     1      -7.715   2.602 129.959  0.00  0.00    +0.000 A 
ATOM      9  C   UNL     1      -6.461   2.783 129.365  0.00  0.00    +0.000 A 
ATOM     10  C   UNL     1      -6.321   3.687 128.310  0.00  0.00    +0.000 A 
ATOM     11  C   UNL     1      -7.465   4.313 127.842  0.00  0.00    +0.000 A 
ATOM     12  N   UNL     1      -8.698   4.130 128.396  0.00  0.00    +0.000 NA
BRANCH   7  14
ATOM     13  C   UNL     1     -10.680   4.318 130.498  0.00  0.00    +0.000 C 
ATOM     14  O   UNL     1     -10.079   3.148 129.946  0.00  0.00    +0.000 OA
ENDBRANCH   7  14
ENDBRANCH   1  10
BRANCH   6  15
ATOM     15  C   UNL     1      -5.216   1.878 126.059  0.00  0.00    +0.000 A 
ATOM     16  C   UNL     1      -6.186   2.115 125.080  0.00  0.00    +0.000 A 
ATOM     17  C   UNL     1      -6.941   1.056 124.567  0.00  0.00    +0.000 A 
ATOM     18  C   UNL     1      -6.662  -0.274 124.931  0.00  0.00    +0.000 A 
ATOM     19  C   UNL     1      -5.577  -0.506 125.783  0.00  0.00    +0.000 A 
ATOM     20  C   UNL     1      -4.952   0.556 126.435  0.00  0.00    +0.000 A 
BRANCH  18  21
ATOM     21  C   UNL     1      -7.544  -1.368 124.489  0.00  0.00    +0.000 A 
ATOM     22  C   UNL     1      -7.941  -1.347 123.130  0.00  0.00    +0.000 A 
ATOM     23  C   UNL     1      -8.871  -2.252 122.615  0.00  0.00    +0.000 A 
ATOM     24  C   UNL     1      -9.378  -3.251 123.431  0.00  0.00    +0.000 A 
ATOM     25  C   UNL     1      -8.979  -3.317 124.765  0.00  0.00    +0.000 A 
ATOM     26  C   UNL     1      -8.083  -2.380 125.319  0.00  0.00    +0.000 A 
BRANCH  26  27
ATOM     27  O   UNL     1      -7.920  -2.609 126.665  0.00  0.00    +0.000 OA
ATOM     28  C   UNL     1      -8.751  -3.533 127.342  0.00  0.00    +0.000 C 
ENDBRANCH  26  27
ENDBRANCH  18  21
ENDBRANCH   6  15
TORSDOF 5
ENDMDL
MODEL 7
REMARK VINA RESULT:      -7.5      4.296      7.383
REMARK  Name = CHEMBL1254297
REMARK  8 active torsions:
REMARK  status: ('A' for Active; 'I' for Inactive)
REMARK    1  A    between atoms: C_1  and  O_2
REMARK    2  A    between atoms: O_2  and  C_3
REMARK    3  A    between atoms: C_6  and  N_7
REMARK    4  A    between atoms: C_8  and  C_9
REMARK    5  A    between atoms: C_12  and  C_13
REMARK    6  A    between atoms: C_16  and  C_17
REMARK    7  A    between atoms: C_22  and  O_23
REMARK    8  A    between atoms: O_23  and  C_24
REMARK                            x       y       z     vdW  Elec       q    Type
REMARK                         _______ _______ _______ _____ _____    ______ ____
ROOT
ATOM      1  N   UNL     1      -6.691  -2.736 130.630  0.00  0.00    +0.000 N 
ATOM      2  C   UNL     1      -6.051  -3.774 131.293  0.00  0.00    +0.000 A 
ATOM      3  C   UNL     1      -5.561  -5.056 130.735  0.00  0.00    +0.000 C 
ATOM      4  N   UNL     1      -5.799  -3.398 132.536  0.00  0.00    +0.000 NA
ATOM      5  N   UNL     1      -6.252  -2.126 132.708  0.00  0.00    +0.000 NA
ATOM      6  C   UNL     1      -6.810  -1.722 131.578  0.00  0.00    +0.000 A 
ENDROOT
BRANCH   1  10
ATOM      7  C   UNL     1      -7.744  -2.562 126.586  0.00  0.00    +0.000 A 
ATOM      8  C   UNL     1      -8.618  -3.160 127.479  0.00  0.00    +0.000 A 
ATOM      9  C   UNL     1      -8.274  -3.216 128.834  0.00  0.00    +0.000 A 
ATOM     10  C   UNL     1      -7.076  -2.644 129.266  0.00  0.00    +0.000 A 
ATOM     11  C   UNL     1      -6.235  -2.108 128.305  0.00  0.00    +0.000 A 
ATOM     12  N   UNL     1      -6.546  -2.066 126.978  0.00  0.00    +0.000 NA
BRANCH   7  14
ATOM     13  C   UNL     1      -8.550  -3.682 124.658  0.00  0.00    +0.000 C 
ATOM     14  O   UNL     1      -7.970  -2.512 125.233  0.00  0.00    +0.000 OA
ENDBRANCH   7  14
ENDBRANCH   1  10
BRANCH   6  15
ATOM     15  C   UNL     1      -7.529  -0.466 131.413  0.00  0.00    +0.000 A 
ATOM     16  C   UNL     1      -6.942   0.624 130.764  0.00  0.00    +0.000 A 
ATOM     17  C   UNL     1      -7.589   1.864 130.746  0.00  0.00    +0.000 A 
ATOM     18  C   UNL     1      -8.886   2.011 131.269  0.00  0.00    +0.000 A 
ATOM     19  C   UNL     1      -9.525   0.869 131.765  0.00  0.00    +0.000 A 
ATOM     20  C   UNL     1      -8.812  -0.314 131.952  0.00  0.00    +0.000 A 
BRANCH  18  21
ATOM     21  C   UNL     1      -9.504   3.344 131.365  0.00  0.00    +0.000 A 
ATOM     22  C   UNL     1     -10.564   3.614 130.465  0.00  0.00    +0.000 A 
ATOM     23  C   UNL     1     -11.152   4.876 130.368  0.00  0.00    +0.000 A 
ATOM     24  C   UNL     1     -10.742   5.889 131.221  0.00  0.00    +0.000 A 
ATOM     25  C   UNL     1      -9.724   5.644 132.140  0.00  0.00    +0.000 A 
ATOM     26  C   UNL     1      -9.080   4.392 132.218  0.00  0.00    +0.000 A 
BRANCH  26  27
ATOM     27  O   UNL     1      -8.060   4.433 133.138  0.00  0.00    +0.000 OA
ATOM     28  C   UNL     1      -8.327   4.245 134.515  0.00  0.00    +0.000 C 
ENDBRANCH  26  27
ENDBRANCH  18  21
ENDBRANCH   6  15
TORSDOF 5
ENDMDL
MODEL 8
REMARK VINA RESULT:      -7.4      2.935      5.474
REMARK  Name = CHEMBL1254297
REMARK  8 active torsions:
REMARK  status: ('A' for Active; 'I' for Inactive)
REMARK    1  A    between atoms: C_1  and  O_2
REMARK    2  A    between atoms: O_2  and  C_3
REMARK    3  A    between atoms: C_6  and  N_7
REMARK    4  A    between atoms: C_8  and  C_9
REMARK    5  A    between atoms: C_12  and  C_13
REMARK    6  A    between atoms: C_16  and  C_17
REMARK    7  A    between atoms: C_22  and  O_23
REMARK    8  A    between atoms: O_23  and  C_24
REMARK                            x       y       z     vdW  Elec       q    Type
REMARK                         _______ _______ _______ _____ _____    ______ ____
ROOT
ATOM      1  N   UNL     1      -6.697   2.772 123.455  0.00  0.00    +0.000 N 
ATOM      2  C   UNL     1      -6.101   3.589 122.503  0.00  0.00    +0.000 A 
ATOM      3  C   UNL     1      -6.232   3.526 121.027  0.00  0.00    +0.000 C 
ATOM      4  N   UNL     1      -5.467   4.572 123.119  0.00  0.00    +0.000 NA
ATOM      5  N   UNL     1      -5.638   4.429 124.462  0.00  0.00    +0.000 NA
ATOM      6  C   UNL     1      -6.357   3.340 124.680  0.00  0.00    +0.000 A 
ENDROOT
BRANCH   1  10
ATOM      7  C   UNL     1      -9.203  -0.550 123.037  0.00  0.00    +0.000 A 
ATOM      8  C   UNL     1      -9.756   0.718 122.962  0.00  0.00    +0.000 A 
ATOM      9  C   UNL     1      -8.922   1.833 123.096  0.00  0.00    +0.000 A 
ATOM     10  C   UNL     1      -7.549   1.651 123.269  0.00  0.00    +0.000 A 
ATOM     11  C   UNL     1      -7.081   0.352 123.382  0.00  0.00    +0.000 A 
ATOM     12  N   UNL     1      -7.884  -0.745 123.277  0.00  0.00    +0.000 NA
BRANCH   7  14
ATOM     13  C   UNL     1      -9.271  -2.901 123.337  0.00  0.00    +0.000 C 
ATOM     14  O   UNL     1      -9.950  -1.700 122.975  0.00  0.00    +0.000 OA
ENDBRANCH   7  14
ENDBRANCH   1  10
BRANCH   6  15
ATOM     15  C   UNL     1      -6.633   2.782 125.997  0.00  0.00    +0.000 A 
ATOM     16  C   UNL     1      -5.680   2.012 126.670  0.00  0.00    +0.000 A 
ATOM     17  C   UNL     1      -6.015   1.364 127.864  0.00  0.00    +0.000 A 
ATOM     18  C   UNL     1      -7.267   1.568 128.471  0.00  0.00    +0.000 A 
ATOM     19  C   UNL     1      -8.147   2.475 127.869  0.00  0.00    +0.000 A 
ATOM     20  C   UNL     1      -7.887   2.969 126.592  0.00  0.00    +0.000 A 
BRANCH  18  21
ATOM     21  C   UNL     1      -7.659   0.782 129.653  0.00  0.00    +0.000 A 
ATOM     22  C   UNL     1      -7.935   1.513 130.833  0.00  0.00    +0.000 A 
ATOM     23  C   UNL     1      -8.196   0.885 132.052  0.00  0.00    +0.000 A 
ATOM     24  C   UNL     1      -8.258  -0.499 132.108  0.00  0.00    +0.000 A 
ATOM     25  C   UNL     1      -8.024  -1.245 130.955  0.00  0.00    +0.000 A 
ATOM     26  C   UNL     1      -7.705  -0.632 129.726  0.00  0.00    +0.000 A 
BRANCH  26  27
ATOM     27  O   UNL     1      -7.436  -1.582 128.770  0.00  0.00    +0.000 OA
ATOM     28  C   UNL     1      -6.227  -2.317 128.809  0.00  0.00    +0.000 C 
ENDBRANCH  26  27
ENDBRANCH  18  21
ENDBRANCH   6  15
TORSDOF 5
ENDMDL
MODEL 9
REMARK VINA RESULT:      -7.4      5.593      8.728
REMARK  Name = CHEMBL1254297
REMARK  8 active torsions:
REMARK  status: ('A' for Active; 'I' for Inactive)
REMARK    1  A    between atoms: C_1  and  O_2
REMARK    2  A    between atoms: O_2  and  C_3
REMARK    3  A    between atoms: C_6  and  N_7
REMARK    4  A    between atoms: C_8  and  C_9
REMARK    5  A    between atoms: C_12  and  C_13
REMARK    6  A    between atoms: C_16  and  C_17
REMARK    7  A    between atoms: C_22  and  O_23
REMARK    8  A    between atoms: O_23  and  C_24
REMARK                            x       y       z     vdW  Elec       q    Type
REMARK                         _______ _______ _______ _____ _____    ______ ____
ROOT
ATOM      1  N   UNL     1      -8.563   3.599 131.431  0.00  0.00    +0.000 N 
ATOM      2  C   UNL     1      -8.420   3.232 132.763  0.00  0.00    +0.000 A 
ATOM      3  C   UNL     1      -9.039   3.853 133.957  0.00  0.00    +0.000 C 
ATOM      4  N   UNL     1      -7.723   2.111 132.825  0.00  0.00    +0.000 NA
ATOM      5  N   UNL     1      -7.408   1.719 131.560  0.00  0.00    +0.000 NA
ATOM      6  C   UNL     1      -7.889   2.615 130.712  0.00  0.00    +0.000 A 
ENDROOT
BRANCH   1  10
ATOM      7  C   UNL     1     -10.811   6.770 129.887  0.00  0.00    +0.000 A 
ATOM      8  C   UNL     1      -9.548   7.030 130.393  0.00  0.00    +0.000 A 
ATOM      9  C   UNL     1      -8.789   5.972 130.906  0.00  0.00    +0.000 A 
ATOM     10  C   UNL     1      -9.302   4.675 130.870  0.00  0.00    +0.000 A 
ATOM     11  C   UNL     1     -10.591   4.504 130.393  0.00  0.00    +0.000 A 
ATOM     12  N   UNL     1     -11.352   5.528 129.911  0.00  0.00    +0.000 NA
BRANCH   7  14
ATOM     13  C   UNL     1     -13.043   7.523 129.615  0.00  0.00    +0.000 C 
ATOM     14  O   UNL     1     -11.649   7.751 129.417  0.00  0.00    +0.000 OA
ENDBRANCH   7  14
ENDBRANCH   1  10
BRANCH   6  15
ATOM     15  C   UNL     1      -7.636   2.614 129.277  0.00  0.00    +0.000 A 
ATOM     16  C   UNL     1      -6.776   3.548 128.693  0.00  0.00    +0.000 A 
ATOM     17  C   UNL     1      -6.661   3.624 127.301  0.00  0.00    +0.000 A 
ATOM     18  C   UNL     1      -7.308   2.693 126.470  0.00  0.00    +0.000 A 
ATOM     19  C   UNL     1      -8.030   1.661 127.080  0.00  0.00    +0.000 A 
ATOM     20  C   UNL     1      -8.296   1.699 128.448  0.00  0.00    +0.000 A 
BRANCH  18  21
ATOM     21  C   UNL     1      -7.289   2.861 125.007  0.00  0.00    +0.000 A 
ATOM     22  C   UNL     1      -6.058   3.264 124.435  0.00  0.00    +0.000 A 
ATOM     23  C   UNL     1      -5.936   3.577 123.080  0.00  0.00    +0.000 A 
ATOM     24  C   UNL     1      -7.030   3.426 122.242  0.00  0.00    +0.000 A 
ATOM     25  C   UNL     1      -8.247   2.999 122.770  0.00  0.00    +0.000 A 
ATOM     26  C   UNL     1      -8.405   2.730 124.146  0.00  0.00    +0.000 A 
BRANCH  26  27
ATOM     27  O   UNL     1      -9.713   2.410 124.425  0.00  0.00    +0.000 OA
ATOM     28  C   UNL     1     -10.312   1.268 123.844  0.00  0.00    +0.000 C 
ENDBRANCH  26  27
ENDBRANCH  18  21
ENDBRANCH   6  15
TORSDOF 5
ENDMDL
