MODEL 1
REMARK VINA RESULT:      -9.7      0.000      0.000
REMARK  Name = CHEMBL1643590
REMARK  12 active torsions:
REMARK  status: ('A' for Active; 'I' for Inactive)
REMARK    1  A    between atoms: C_1  and  O_2
REMARK    2  A    between atoms: O_2  and  C_3
REMARK    3  A    between atoms: C_6  and  S_7
REMARK    4  A    between atoms: S_7  and  N_10
REMARK    5  A    between atoms: N_10  and  C_11
REMARK    6  A    between atoms: N_10  and  C_31
REMARK    7  A    between atoms: C_11  and  C_12
REMARK    8  A    between atoms: C_15  and  C_16
REMARK    9  A    between atoms: C_19  and  C_20
REMARK   10  A    between atoms: C_20  and  N_21
REMARK   11  A    between atoms: N_21  and  C_22
REMARK   12  A    between atoms: C_22  and  C_23
REMARK                            x       y       z     vdW  Elec       q    Type
REMARK                         _______ _______ _______ _____ _____    ______ ____
ROOT
ATOM      1  C   UNL     1      -7.053   1.953 126.652  0.00  0.00    +0.000 A 
ATOM      2  C   UNL     1      -5.827   2.557 126.397  0.00  0.00    +0.000 A 
ATOM      3  S   UNL     1      -5.635   3.940 127.522  0.00  0.00    +0.000 S 
ATOM      4  C   UNL     1      -7.469   3.905 127.975  0.00  0.00    +0.000 A 
ATOM      5  N   UNL     1      -7.997   2.891 127.255  0.00  0.00    +0.000 NA
ENDROOT
BRANCH   4   6
ATOM      6  C   UNL     1      -8.175   4.431 129.550  0.00  0.00    +0.000 A 
ATOM      7  C   UNL     1      -9.293   3.784 129.979  0.00  0.00    +0.000 A 
ATOM      8  C   UNL     1     -10.118   4.416 130.984  0.00  0.00    +0.000 A 
ATOM      9  C   UNL     1      -9.913   5.723 131.613  0.00  0.00    +0.000 A 
ATOM     10  C   UNL     1      -8.775   6.435 131.300  0.00  0.00    +0.000 A 
ATOM     11  C   UNL     1      -7.887   5.769 130.423  0.00  0.00    +0.000 A 
BRANCH   9  12
ATOM     12  C   UNL     1     -11.044   6.406 132.347  0.00  0.00    +0.000 C 
BRANCH  12  13
ATOM     13  N   UNL     1     -12.333   6.335 131.652  0.00  0.00    +0.000 NA
ATOM     14  H   UNL     1     -13.107   6.169 132.297  0.00  0.00    +0.000 HD
BRANCH  13  15
ATOM     15  C   UNL     1     -12.537   7.568 130.925  0.00  0.00    +0.000 C 
BRANCH  15  16
ATOM     16  C   UNL     1     -12.287   7.318 129.495  0.00  0.00    +0.000 A 
ATOM     17  C   UNL     1     -11.207   7.831 128.726  0.00  0.00    +0.000 A 
ATOM     18  C   UNL     1     -11.474   7.489 127.425  0.00  0.00    +0.000 A 
ATOM     19  O   UNL     1     -12.595   6.724 127.352  0.00  0.00    +0.000 OA
ATOM     20  C   UNL     1     -13.068   6.601 128.617  0.00  0.00    +0.000 A 
ENDBRANCH  15  16
ENDBRANCH  13  15
ENDBRANCH  12  13
ENDBRANCH   9  12
ENDBRANCH   4   6
BRANCH   1  21
ATOM     21  C   UNL     1      -7.461   0.482 126.194  0.00  0.00    +0.000 C 
BRANCH  21  22
ATOM     22  N   UNL     1      -7.814   0.137 124.693  0.00  0.00    +0.000 NA
BRANCH  22  23
ATOM     23  C   UNL     1      -8.416  -1.272 124.569  0.00  0.00    +0.000 C 
ATOM     24  C   UNL     1      -7.368  -2.324 124.186  0.00  0.00    +0.000 C 
ATOM     25  C   UNL     1      -8.040  -3.657 124.475  0.00  0.00    +0.000 C 
ATOM     26  C   UNL     1      -8.996  -3.385 125.626  0.00  0.00    +0.000 C 
ATOM     27  C   UNL     1      -8.974  -1.874 125.856  0.00  0.00    +0.000 C 
ENDBRANCH  22  23
BRANCH  22  28
ATOM     28  S   UNL     1      -9.049   1.229 123.833  0.00  0.00    +0.000 S 
ATOM     29  O   UNL     1      -9.746   1.943 124.811  0.00  0.00    +0.000 OA
ATOM     30  O   UNL     1      -9.708   0.377 122.806  0.00  0.00    +0.000 OA
BRANCH  28  34
ATOM     31  C   UNL     1      -7.061   3.917 120.683  0.00  0.00    +0.000 A 
ATOM     32  C   UNL     1      -6.352   3.667 121.810  0.00  0.00    +0.000 A 
ATOM     33  C   UNL     1      -6.843   2.781 122.843  0.00  0.00    +0.000 A 
ATOM     34  C   UNL     1      -8.165   2.344 122.874  0.00  0.00    +0.000 A 
ATOM     35  C   UNL     1      -8.967   2.981 122.084  0.00  0.00    +0.000 A 
ATOM     36  C   UNL     1      -8.329   3.532 120.999  0.00  0.00    +0.000 A 
BRANCH  31  38
ATOM     37  C   UNL     1      -5.250   5.381 119.683  0.00  0.00    +0.000 C 
ATOM     38  O   UNL     1      -6.457   4.614 119.677  0.00  0.00    +0.000 OA
ENDBRANCH  31  38
ENDBRANCH  28  34
ENDBRANCH  22  28
ENDBRANCH  21  22
ENDBRANCH   1  21
TORSDOF 11
ENDMDL
MODEL 2
REMARK VINA RESULT:      -9.1      2.156      2.491
REMARK  Name = CHEMBL1643590
REMARK  12 active torsions:
REMARK  status: ('A' for Active; 'I' for Inactive)
REMARK    1  A    between atoms: C_1  and  O_2
REMARK    2  A    between atoms: O_2  and  C_3
REMARK    3  A    between atoms: C_6  and  S_7
REMARK    4  A    between atoms: S_7  and  N_10
REMARK    5  A    between atoms: N_10  and  C_11
REMARK    6  A    between atoms: N_10  and  C_31
REMARK    7  A    between atoms: C_11  and  C_12
REMARK    8  A    between atoms: C_15  and  C_16
REMARK    9  A    between atoms: C_19  and  C_20
REMARK   10  A    between atoms: C_20  and  N_21
REMARK   11  A    between atoms: N_21  and  C_22
REMARK   12  A    between atoms: C_22  and  C_23
REMARK                            x       y       z     vdW  Elec       q    Type
REMARK                         _______ _______ _______ _____ _____    ______ ____
ROOT
ATOM      1  C   UNL     1      -7.673  -0.684 129.295  0.00  0.00    +0.000 A 
ATOM      2  C   UNL     1      -7.945  -1.424 130.441  0.00  0.00    +0.000 A 
ATOM      3  S   UNL     1      -8.241  -0.282 131.791  0.00  0.00    +0.000 S 
ATOM      4  C   UNL     1      -7.512   1.160 130.813  0.00  0.00    +0.000 A 
ATOM      5  N   UNL     1      -7.143   0.637 129.623  0.00  0.00    +0.000 NA
ENDROOT
BRANCH   4   6
ATOM      6  C   UNL     1      -7.972   2.895 130.996  0.00  0.00    +0.000 A 
ATOM      7  C   UNL     1      -8.029   3.395 132.262  0.00  0.00    +0.000 A 
ATOM      8  C   UNL     1      -8.774   4.612 132.494  0.00  0.00    +0.000 A 
ATOM      9  C   UNL     1      -9.522   5.401 131.512  0.00  0.00    +0.000 A 
ATOM     10  C   UNL     1      -9.477   5.022 130.188  0.00  0.00    +0.000 A 
ATOM     11  C   UNL     1      -8.639   3.912 129.922  0.00  0.00    +0.000 A 
BRANCH   9  12
ATOM     12  C   UNL     1     -10.548   6.414 131.965  0.00  0.00    +0.000 C 
BRANCH  12  13
ATOM     13  N   UNL     1     -11.936   5.973 131.794  0.00  0.00    +0.000 NA
ATOM     14  H   UNL     1     -12.305   5.533 132.638  0.00  0.00    +0.000 HD
BRANCH  13  15
ATOM     15  C   UNL     1     -12.744   7.113 131.425  0.00  0.00    +0.000 C 
BRANCH  15  16
ATOM     16  C   UNL     1     -12.582   7.358 129.982  0.00  0.00    +0.000 A 
ATOM     17  C   UNL     1     -12.276   8.602 129.367  0.00  0.00    +0.000 A 
ATOM     18  C   UNL     1     -12.399   8.397 128.017  0.00  0.00    +0.000 A 
ATOM     19  O   UNL     1     -12.672   7.092 127.755  0.00  0.00    +0.000 OA
ATOM     20  C   UNL     1     -12.754   6.460 128.952  0.00  0.00    +0.000 A 
ENDBRANCH  15  16
ENDBRANCH  13  15
ENDBRANCH  12  13
ENDBRANCH   9  12
ENDBRANCH   4   6
BRANCH   1  21
ATOM     21  C   UNL     1      -7.753  -1.243 127.805  0.00  0.00    +0.000 C 
BRANCH  21  22
ATOM     22  N   UNL     1      -7.492  -0.323 126.547  0.00  0.00    +0.000 NA
BRANCH  22  23
ATOM     23  C   UNL     1      -7.284  -1.160 125.274  0.00  0.00    +0.000 C 
ATOM     24  C   UNL     1      -5.824  -1.156 124.804  0.00  0.00    +0.000 C 
ATOM     25  C   UNL     1      -5.740  -2.296 123.802  0.00  0.00    +0.000 C 
ATOM     26  C   UNL     1      -6.774  -3.313 124.262  0.00  0.00    +0.000 C 
ATOM     27  C   UNL     1      -7.539  -2.658 125.413  0.00  0.00    +0.000 C 
ENDBRANCH  22  23
BRANCH  22  28
ATOM     28  S   UNL     1      -8.829   0.880 126.077  0.00  0.00    +0.000 S 
ATOM     29  O   UNL     1      -9.101   1.678 127.192  0.00  0.00    +0.000 OA
ATOM     30  O   UNL     1      -9.863   0.088 125.357  0.00  0.00    +0.000 OA
BRANCH  28  34
ATOM     31  C   UNL     1      -7.483   3.079 122.275  0.00  0.00    +0.000 A 
ATOM     32  C   UNL     1      -6.703   3.221 123.374  0.00  0.00    +0.000 A 
ATOM     33  C   UNL     1      -6.985   2.525 124.610  0.00  0.00    +0.000 A 
ATOM     34  C   UNL     1      -8.201   1.883 124.834  0.00  0.00    +0.000 A 
ATOM     35  C   UNL     1      -9.133   2.172 123.985  0.00  0.00    +0.000 A 
ATOM     36  C   UNL     1      -8.646   2.562 122.762  0.00  0.00    +0.000 A 
BRANCH  31  38
ATOM     37  C   UNL     1      -5.776   4.159 120.744  0.00  0.00    +0.000 C 
ATOM     38  O   UNL     1      -7.053   3.621 121.099  0.00  0.00    +0.000 OA
ENDBRANCH  31  38
ENDBRANCH  28  34
ENDBRANCH  22  28
ENDBRANCH  21  22
ENDBRANCH   1  21
TORSDOF 11
ENDMDL
MODEL 3
REMARK VINA RESULT:      -8.9      3.067      8.463
REMARK  Name = CHEMBL1643590
REMARK  12 active torsions:
REMARK  status: ('A' for Active; 'I' for Inactive)
REMARK    1  A    between atoms: C_1  and  O_2
REMARK    2  A    between atoms: O_2  and  C_3
REMARK    3  A    between atoms: C_6  and  S_7
REMARK    4  A    between atoms: S_7  and  N_10
REMARK    5  A    between atoms: N_10  and  C_11
REMARK    6  A    between atoms: N_10  and  C_31
REMARK    7  A    between atoms: C_11  and  C_12
REMARK    8  A    between atoms: C_15  and  C_16
REMARK    9  A    between atoms: C_19  and  C_20
REMARK   10  A    between atoms: C_20  and  N_21
REMARK   11  A    between atoms: N_21  and  C_22
REMARK   12  A    between atoms: C_22  and  C_23
REMARK                            x       y       z     vdW  Elec       q    Type
REMARK                         _______ _______ _______ _____ _____    ______ ____
ROOT
ATOM      1  C   UNL     1      -6.346   2.265 130.888  0.00  0.00    +0.000 A 
ATOM      2  C   UNL     1      -5.079   2.063 131.424  0.00  0.00    +0.000 A 
ATOM      3  S   UNL     1      -4.612   0.356 131.137  0.00  0.00    +0.000 S 
ATOM      4  C   UNL     1      -6.388  -0.122 130.706  0.00  0.00    +0.000 A 
ATOM      5  N   UNL     1      -7.104   1.018 130.820  0.00  0.00    +0.000 NA
ENDROOT
BRANCH   4   6
ATOM      6  C   UNL     1      -6.879  -1.454 129.592  0.00  0.00    +0.000 A 
ATOM      7  C   UNL     1      -6.601  -1.294 128.268  0.00  0.00    +0.000 A 
ATOM      8  C   UNL     1      -7.318  -2.101 127.307  0.00  0.00    +0.000 A 
ATOM      9  C   UNL     1      -8.362  -3.092 127.576  0.00  0.00    +0.000 A 
ATOM     10  C   UNL     1      -8.675  -3.381 128.886  0.00  0.00    +0.000 A 
ATOM     11  C   UNL     1      -7.885  -2.702 129.844  0.00  0.00    +0.000 A 
BRANCH   9  12
ATOM     12  C   UNL     1      -9.274  -3.566 126.467  0.00  0.00    +0.000 C 
BRANCH  12  13
ATOM     13  N   UNL     1      -9.445  -2.595 125.382  0.00  0.00    +0.000 NA
ATOM     14  H   UNL     1      -8.864  -1.766 125.514  0.00  0.00    +0.000 HD
BRANCH  13  15
ATOM     15  C   UNL     1      -9.127  -3.240 124.128  0.00  0.00    +0.000 C 
BRANCH  15  16
ATOM     16  C   UNL     1      -7.752  -2.877 123.746  0.00  0.00    +0.000 A 
ATOM     17  C   UNL     1      -7.368  -1.799 122.903  0.00  0.00    +0.000 A 
ATOM     18  C   UNL     1      -6.022  -1.949 122.686  0.00  0.00    +0.000 A 
ATOM     19  O   UNL     1      -5.535  -2.991 123.410  0.00  0.00    +0.000 OA
ATOM     20  C   UNL     1      -6.586  -3.533 124.074  0.00  0.00    +0.000 A 
ENDBRANCH  15  16
ENDBRANCH  13  15
ENDBRANCH  12  13
ENDBRANCH   9  12
ENDBRANCH   4   6
BRANCH   1  21
ATOM     21  C   UNL     1      -6.980   3.688 130.549  0.00  0.00    +0.000 C 
BRANCH  21  22
ATOM     22  N   UNL     1      -8.169   3.854 129.522  0.00  0.00    +0.000 NA
BRANCH  22  23
ATOM     23  C   UNL     1      -9.118   4.988 129.945  0.00  0.00    +0.000 C 
ATOM     24  C   UNL     1     -10.483   4.464 130.410  0.00  0.00    +0.000 C 
ATOM     25  C   UNL     1     -11.124   5.645 131.122  0.00  0.00    +0.000 C 
ATOM     26  C   UNL     1      -9.966   6.444 131.699  0.00  0.00    +0.000 C 
ATOM     27  C   UNL     1      -8.688   5.797 131.164  0.00  0.00    +0.000 C 
ENDBRANCH  22  23
BRANCH  22  28
ATOM     28  S   UNL     1      -7.728   4.272 127.765  0.00  0.00    +0.000 S 
ATOM     29  O   UNL     1      -6.339   4.413 127.692  0.00  0.00    +0.000 OA
ATOM     30  O   UNL     1      -8.689   5.325 127.338  0.00  0.00    +0.000 OA
BRANCH  28  34
ATOM     31  C   UNL     1      -9.402   1.192 124.797  0.00  0.00    +0.000 A 
ATOM     32  C   UNL     1      -8.986   0.722 125.997  0.00  0.00    +0.000 A 
ATOM     33  C   UNL     1      -8.503   1.602 127.039  0.00  0.00    +0.000 A 
ATOM     34  C   UNL     1      -8.188   2.936 126.792  0.00  0.00    +0.000 A 
ATOM     35  C   UNL     1      -8.110   3.253 125.539  0.00  0.00    +0.000 A 
ATOM     36  C   UNL     1      -8.870   2.444 124.731  0.00  0.00    +0.000 A 
BRANCH  31  38
ATOM     37  C   UNL     1     -10.189   0.404 122.519  0.00  0.00    +0.000 C 
ATOM     38  O   UNL     1     -10.013   0.326 123.936  0.00  0.00    +0.000 OA
ENDBRANCH  31  38
ENDBRANCH  28  34
ENDBRANCH  22  28
ENDBRANCH  21  22
ENDBRANCH   1  21
TORSDOF 11
ENDMDL
MODEL 4
REMARK VINA RESULT:      -8.9      2.690      3.332
REMARK  Name = CHEMBL1643590
REMARK  12 active torsions:
REMARK  status: ('A' for Active; 'I' for Inactive)
REMARK    1  A    between atoms: C_1  and  O_2
REMARK    2  A    between atoms: O_2  and  C_3
REMARK    3  A    between atoms: C_6  and  S_7
REMARK    4  A    between atoms: S_7  and  N_10
REMARK    5  A    between atoms: N_10  and  C_11
REMARK    6  A    between atoms: N_10  and  C_31
REMARK    7  A    between atoms: C_11  and  C_12
REMARK    8  A    between atoms: C_15  and  C_16
REMARK    9  A    between atoms: C_19  and  C_20
REMARK   10  A    between atoms: C_20  and  N_21
REMARK   11  A    between atoms: N_21  and  C_22
REMARK   12  A    between atoms: C_22  and  C_23
REMARK                            x       y       z     vdW  Elec       q    Type
REMARK                         _______ _______ _______ _____ _____    ______ ____
ROOT
ATOM      1  C   UNL     1      -7.714  -1.830 128.390  0.00  0.00    +0.000 A 
ATOM      2  C   UNL     1      -7.500  -3.076 128.969  0.00  0.00    +0.000 A 
ATOM      3  S   UNL     1      -7.546  -2.883 130.751  0.00  0.00    +0.000 S 
ATOM      4  C   UNL     1      -7.388  -1.006 130.614  0.00  0.00    +0.000 A 
ATOM      5  N   UNL     1      -7.324  -0.747 129.289  0.00  0.00    +0.000 NA
ENDROOT
BRANCH   4   6
ATOM      6  C   UNL     1      -8.039   0.194 131.795  0.00  0.00    +0.000 A 
ATOM      7  C   UNL     1      -9.343   0.563 131.654  0.00  0.00    +0.000 A 
ATOM      8  C   UNL     1      -9.787   1.787 132.280  0.00  0.00    +0.000 A 
ATOM      9  C   UNL     1      -8.986   2.734 133.060  0.00  0.00    +0.000 A 
ATOM     10  C   UNL     1      -7.668   2.424 133.319  0.00  0.00    +0.000 A 
ATOM     11  C   UNL     1      -7.253   1.162 132.832  0.00  0.00    +0.000 A 
BRANCH   9  12
ATOM     12  C   UNL     1      -9.490   4.135 133.318  0.00  0.00    +0.000 C 
BRANCH  12  13
ATOM     13  N   UNL     1      -9.831   4.878 132.101  0.00  0.00    +0.000 NA
ATOM     14  H   UNL     1     -10.332   4.298 131.426  0.00  0.00    +0.000 HD
BRANCH  13  15
ATOM     15  C   UNL     1     -10.627   6.028 132.467  0.00  0.00    +0.000 C 
BRANCH  15  16
ATOM     16  C   UNL     1     -11.436   6.431 131.304  0.00  0.00    +0.000 A 
ATOM     17  C   UNL     1     -12.565   7.294 131.321  0.00  0.00    +0.000 A 
ATOM     18  C   UNL     1     -13.099   7.242 130.059  0.00  0.00    +0.000 A 
ATOM     19  O   UNL     1     -12.325   6.480 129.243  0.00  0.00    +0.000 OA
ATOM     20  C   UNL     1     -11.300   6.012 129.999  0.00  0.00    +0.000 A 
ENDBRANCH  15  16
ENDBRANCH  13  15
ENDBRANCH  12  13
ENDBRANCH   9  12
ENDBRANCH   4   6
BRANCH   1  21
ATOM     21  C   UNL     1      -8.156  -1.588 126.877  0.00  0.00    +0.000 C 
BRANCH  21  22
ATOM     22  N   UNL     1      -7.660  -0.338 126.047  0.00  0.00    +0.000 NA
BRANCH  22  23
ATOM     23  C   UNL     1      -7.333  -0.724 124.596  0.00  0.00    +0.000 C 
ATOM     24  C   UNL     1      -6.005  -1.482 124.478  0.00  0.00    +0.000 C 
ATOM     25  C   UNL     1      -6.034  -2.093 123.086  0.00  0.00    +0.000 C 
ATOM     26  C   UNL     1      -7.504  -2.341 122.786  0.00  0.00    +0.000 C 
ATOM     27  C   UNL     1      -8.290  -1.714 123.938  0.00  0.00    +0.000 C 
ENDBRANCH  22  23
BRANCH  22  28
ATOM     28  S   UNL     1      -8.834   1.094 125.875  0.00  0.00    +0.000 S 
ATOM     29  O   UNL     1      -8.817   1.811 127.075  0.00  0.00    +0.000 OA
ATOM     30  O   UNL     1     -10.072   0.541 125.262  0.00  0.00    +0.000 OA
BRANCH  28  34
ATOM     31  C   UNL     1      -7.493   3.288 122.070  0.00  0.00    +0.000 A 
ATOM     32  C   UNL     1      -6.764   3.505 123.191  0.00  0.00    +0.000 A 
ATOM     33  C   UNL     1      -7.046   2.820 124.433  0.00  0.00    +0.000 A 
ATOM     34  C   UNL     1      -8.226   2.107 124.631  0.00  0.00    +0.000 A 
ATOM     35  C   UNL     1      -9.143   2.315 123.742  0.00  0.00    +0.000 A 
ATOM     36  C   UNL     1      -8.637   2.708 122.528  0.00  0.00    +0.000 A 
BRANCH  31  38
ATOM     37  C   UNL     1      -7.781   4.182 119.715  0.00  0.00    +0.000 C 
ATOM     38  O   UNL     1      -7.055   3.830 120.896  0.00  0.00    +0.000 OA
ENDBRANCH  31  38
ENDBRANCH  28  34
ENDBRANCH  22  28
ENDBRANCH  21  22
ENDBRANCH   1  21
TORSDOF 11
ENDMDL
MODEL 5
REMARK VINA RESULT:      -8.8      2.405      3.156
REMARK  Name = CHEMBL1643590
REMARK  12 active torsions:
REMARK  status: ('A' for Active; 'I' for Inactive)
REMARK    1  A    between atoms: C_1  and  O_2
REMARK    2  A    between atoms: O_2  and  C_3
REMARK    3  A    between atoms: C_6  and  S_7
REMARK    4  A    between atoms: S_7  and  N_10
REMARK    5  A    between atoms: N_10  and  C_11
REMARK    6  A    between atoms: N_10  and  C_31
REMARK    7  A    between atoms: C_11  and  C_12
REMARK    8  A    between atoms: C_15  and  C_16
REMARK    9  A    between atoms: C_19  and  C_20
REMARK   10  A    between atoms: C_20  and  N_21
REMARK   11  A    between atoms: N_21  and  C_22
REMARK   12  A    between atoms: C_22  and  C_23
REMARK                            x       y       z     vdW  Elec       q    Type
REMARK                         _______ _______ _______ _____ _____    ______ ____
ROOT
ATOM      1  C   UNL     1      -7.536   1.042 128.605  0.00  0.00    +0.000 A 
ATOM      2  C   UNL     1      -6.435   0.873 129.437  0.00  0.00    +0.000 A 
ATOM      3  S   UNL     1      -6.601   1.994 130.826  0.00  0.00    +0.000 S 
ATOM      4  C   UNL     1      -7.951   2.981 129.947  0.00  0.00    +0.000 A 
ATOM      5  N   UNL     1      -8.119   2.373 128.752  0.00  0.00    +0.000 NA
ENDROOT
BRANCH   4   6
ATOM      6  C   UNL     1      -9.283   3.892 130.754  0.00  0.00    +0.000 A 
ATOM      7  C   UNL     1     -10.498   3.896 130.138  0.00  0.00    +0.000 A 
ATOM      8  C   UNL     1     -11.455   4.918 130.500  0.00  0.00    +0.000 A 
ATOM      9  C   UNL     1     -11.277   6.005 131.466  0.00  0.00    +0.000 A 
ATOM     10  C   UNL     1     -10.109   6.055 132.195  0.00  0.00    +0.000 A 
ATOM     11  C   UNL     1      -9.218   4.983 131.954  0.00  0.00    +0.000 A 
BRANCH   9  12
ATOM     12  C   UNL     1     -12.204   7.199 131.455  0.00  0.00    +0.000 C 
BRANCH  12  13
ATOM     13  N   UNL     1     -13.104   7.243 130.299  0.00  0.00    +0.000 NA
ATOM     14  H   UNL     1     -14.084   7.308 130.578  0.00  0.00    +0.000 HD
BRANCH  13  15
ATOM     15  C   UNL     1     -12.740   8.369 129.469  0.00  0.00    +0.000 C 
BRANCH  15  16
ATOM     16  C   UNL     1     -12.131   7.863 128.227  0.00  0.00    +0.000 A 
ATOM     17  C   UNL     1     -10.846   8.197 127.721  0.00  0.00    +0.000 A 
ATOM     18  C   UNL     1     -10.776   7.639 126.470  0.00  0.00    +0.000 A 
ATOM     19  O   UNL     1     -11.892   6.909 126.209  0.00  0.00    +0.000 OA
ATOM     20  C   UNL     1     -12.700   7.026 127.293  0.00  0.00    +0.000 A 
ENDBRANCH  15  16
ENDBRANCH  13  15
ENDBRANCH  12  13
ENDBRANCH   9  12
ENDBRANCH   4   6
BRANCH   1  21
ATOM     21  C   UNL     1      -8.014   0.000 127.497  0.00  0.00    +0.000 C 
BRANCH  21  22
ATOM     22  N   UNL     1      -7.493   0.063 126.006  0.00  0.00    +0.000 NA
BRANCH  22  23
ATOM     23  C   UNL     1      -8.039  -1.109 125.174  0.00  0.00    +0.000 C 
ATOM     24  C   UNL     1      -6.953  -2.134 124.825  0.00  0.00    +0.000 C 
ATOM     25  C   UNL     1      -7.721  -3.359 124.352  0.00  0.00    +0.000 C 
ATOM     26  C   UNL     1      -9.039  -3.326 125.109  0.00  0.00    +0.000 C 
ATOM     27  C   UNL     1      -9.065  -1.999 125.868  0.00  0.00    +0.000 C 
ENDBRANCH  22  23
BRANCH  22  28
ATOM     28  S   UNL     1      -7.938   1.567 125.007  0.00  0.00    +0.000 S 
ATOM     29  O   UNL     1      -9.189   2.015 125.440  0.00  0.00    +0.000 OA
ATOM     30  O   UNL     1      -7.627   1.229 123.592  0.00  0.00    +0.000 OA
BRANCH  28  34
ATOM     31  C   UNL     1      -4.677   4.396 126.574  0.00  0.00    +0.000 A 
ATOM     32  C   UNL     1      -5.638   4.943 125.791  0.00  0.00    +0.000 A 
ATOM     33  C   UNL     1      -6.754   4.169 125.294  0.00  0.00    +0.000 A 
ATOM     34  C   UNL     1      -6.776   2.778 125.362  0.00  0.00    +0.000 A 
ATOM     35  C   UNL     1      -5.641   2.230 125.654  0.00  0.00    +0.000 A 
ATOM     36  C   UNL     1      -4.814   3.055 126.375  0.00  0.00    +0.000 A 
BRANCH  31  38
ATOM     37  C   UNL     1      -2.609   4.920 127.943  0.00  0.00    +0.000 C 
ATOM     38  O   UNL     1      -3.760   5.226 127.152  0.00  0.00    +0.000 OA
ENDBRANCH  31  38
ENDBRANCH  28  34
ENDBRANCH  22  28
ENDBRANCH  21  22
ENDBRANCH   1  21
TORSDOF 11
ENDMDL
MODEL 6
REMARK VINA RESULT:      -8.8      4.463      8.679
REMARK  Name = CHEMBL1643590
REMARK  12 active torsions:
REMARK  status: ('A' for Active; 'I' for Inactive)
REMARK    1  A    between atoms: C_1  and  O_2
REMARK    2  A    between atoms: O_2  and  C_3
REMARK    3  A    between atoms: C_6  and  S_7
REMARK    4  A    between atoms: S_7  and  N_10
REMARK    5  A    between atoms: N_10  and  C_11
REMARK    6  A    between atoms: N_10  and  C_31
REMARK    7  A    between atoms: C_11  and  C_12
REMARK    8  A    between atoms: C_15  and  C_16
REMARK    9  A    between atoms: C_19  and  C_20
REMARK   10  A    between atoms: C_20  and  N_21
REMARK   11  A    between atoms: N_21  and  C_22
REMARK   12  A    between atoms: C_22  and  C_23
REMARK                            x       y       z     vdW  Elec       q    Type
REMARK                         _______ _______ _______ _____ _____    ______ ____
ROOT
ATOM      1  C   UNL     1      -8.258  -0.294 123.678  0.00  0.00    +0.000 A 
ATOM      2  C   UNL     1      -9.051  -1.361 123.270  0.00  0.00    +0.000 A 
ATOM      3  S   UNL     1      -8.845  -2.697 124.447  0.00  0.00    +0.000 S 
ATOM      4  C   UNL     1      -7.309  -1.888 125.191  0.00  0.00    +0.000 A 
ATOM      5  N   UNL     1      -7.134  -0.743 124.496  0.00  0.00    +0.000 NA
ENDROOT
BRANCH   4   6
ATOM      6  C   UNL     1      -6.746  -2.070 126.896  0.00  0.00    +0.000 A 
ATOM      7  C   UNL     1      -5.410  -1.939 127.128  0.00  0.00    +0.000 A 
ATOM      8  C   UNL     1      -4.865  -2.472 128.356  0.00  0.00    +0.000 A 
ATOM      9  C   UNL     1      -5.583  -3.182 129.418  0.00  0.00    +0.000 A 
ATOM     10  C   UNL     1      -6.951  -3.312 129.316  0.00  0.00    +0.000 A 
ATOM     11  C   UNL     1      -7.520  -2.674 128.188  0.00  0.00    +0.000 A 
BRANCH   9  12
ATOM     12  C   UNL     1      -4.828  -4.002 130.438  0.00  0.00    +0.000 C 
BRANCH  12  13
ATOM     13  N   UNL     1      -5.689  -4.812 131.305  0.00  0.00    +0.000 NA
ATOM     14  H   UNL     1      -5.589  -5.811 131.119  0.00  0.00    +0.000 HD
BRANCH  13  15
ATOM     15  C   UNL     1      -5.365  -4.520 132.684  0.00  0.00    +0.000 C 
BRANCH  15  16
ATOM     16  C   UNL     1      -6.218  -3.411 133.143  0.00  0.00    +0.000 A 
ATOM     17  C   UNL     1      -7.576  -3.190 132.790  0.00  0.00    +0.000 A 
ATOM     18  C   UNL     1      -7.904  -1.959 133.301  0.00  0.00    +0.000 A 
ATOM     19  O   UNL     1      -6.870  -1.450 134.020  0.00  0.00    +0.000 OA
ATOM     20  C   UNL     1      -5.858  -2.350 133.944  0.00  0.00    +0.000 A 
ENDBRANCH  15  16
ENDBRANCH  13  15
ENDBRANCH  12  13
ENDBRANCH   9  12
ENDBRANCH   4   6
BRANCH   1  21
ATOM     21  C   UNL     1      -8.428   1.213 123.187  0.00  0.00    +0.000 C 
BRANCH  21  22
ATOM     22  N   UNL     1      -7.367   2.333 123.530  0.00  0.00    +0.000 NA
BRANCH  22  23
ATOM     23  C   UNL     1      -7.273   3.378 122.406  0.00  0.00    +0.000 C 
ATOM     24  C   UNL     1      -6.060   3.149 121.495  0.00  0.00    +0.000 C 
ATOM     25  C   UNL     1      -6.335   4.006 120.269  0.00  0.00    +0.000 C 
ATOM     26  C   UNL     1      -7.850   4.052 120.140  0.00  0.00    +0.000 C 
ATOM     27  C   UNL     1      -8.408   3.363 121.386  0.00  0.00    +0.000 C 
ENDBRANCH  22  23
BRANCH  22  28
ATOM     28  S   UNL     1      -7.659   3.347 125.060  0.00  0.00    +0.000 S 
ATOM     29  O   UNL     1      -9.026   3.633 125.132  0.00  0.00    +0.000 OA
ATOM     30  O   UNL     1      -6.597   4.389 125.074  0.00  0.00    +0.000 OA
BRANCH  28  34
ATOM     31  C   UNL     1      -7.159   1.021 128.989  0.00  0.00    +0.000 A 
ATOM     32  C   UNL     1      -6.031   1.290 128.288  0.00  0.00    +0.000 A 
ATOM     33  C   UNL     1      -6.052   2.074 127.072  0.00  0.00    +0.000 A 
ATOM     34  C   UNL     1      -7.239   2.372 126.408  0.00  0.00    +0.000 A 
ATOM     35  C   UNL     1      -8.268   1.694 126.802  0.00  0.00    +0.000 A 
ATOM     36  C   UNL     1      -8.163   1.261 128.100  0.00  0.00    +0.000 A 
BRANCH  31  38
ATOM     37  C   UNL     1      -5.866   0.093 130.961  0.00  0.00    +0.000 C 
ATOM     38  O   UNL     1      -7.037   0.436 130.216  0.00  0.00    +0.000 OA
ENDBRANCH  31  38
ENDBRANCH  28  34
ENDBRANCH  22  28
ENDBRANCH  21  22
ENDBRANCH   1  21
TORSDOF 11
ENDMDL
MODEL 7
REMARK VINA RESULT:      -8.8      2.502      3.139
REMARK  Name = CHEMBL1643590
REMARK  12 active torsions:
REMARK  status: ('A' for Active; 'I' for Inactive)
REMARK    1  A    between atoms: C_1  and  O_2
REMARK    2  A    between atoms: O_2  and  C_3
REMARK    3  A    between atoms: C_6  and  S_7
REMARK    4  A    between atoms: S_7  and  N_10
REMARK    5  A    between atoms: N_10  and  C_11
REMARK    6  A    between atoms: N_10  and  C_31
REMARK    7  A    between atoms: C_11  and  C_12
REMARK    8  A    between atoms: C_15  and  C_16
REMARK    9  A    between atoms: C_19  and  C_20
REMARK   10  A    between atoms: C_20  and  N_21
REMARK   11  A    between atoms: N_21  and  C_22
REMARK   12  A    between atoms: C_22  and  C_23
REMARK                            x       y       z     vdW  Elec       q    Type
REMARK                         _______ _______ _______ _____ _____    ______ ____
ROOT
ATOM      1  C   UNL     1      -7.739  -2.280 128.315  0.00  0.00    +0.000 A 
ATOM      2  C   UNL     1      -7.638  -3.301 129.253  0.00  0.00    +0.000 A 
ATOM      3  S   UNL     1      -7.679  -2.568 130.889  0.00  0.00    +0.000 S 
ATOM      4  C   UNL     1      -7.359  -0.843 130.191  0.00  0.00    +0.000 A 
ATOM      5  N   UNL     1      -7.264  -1.008 128.854  0.00  0.00    +0.000 NA
ENDROOT
BRANCH   4   6
ATOM      6  C   UNL     1      -7.912   0.709 130.928  0.00  0.00    +0.000 A 
ATOM      7  C   UNL     1      -9.145   0.721 131.506  0.00  0.00    +0.000 A 
ATOM      8  C   UNL     1      -9.794   1.993 131.729  0.00  0.00    +0.000 A 
ATOM      9  C   UNL     1      -9.291   3.324 131.383  0.00  0.00    +0.000 A 
ATOM     10  C   UNL     1      -8.023   3.434 130.853  0.00  0.00    +0.000 A 
ATOM     11  C   UNL     1      -7.318   2.210 130.757  0.00  0.00    +0.000 A 
BRANCH   9  12
ATOM     12  C   UNL     1     -10.229   4.508 131.327  0.00  0.00    +0.000 C 
BRANCH  12  13
ATOM     13  N   UNL     1     -10.643   4.874 129.969  0.00  0.00    +0.000 NA
ATOM     14  H   UNL     1     -11.654   4.807 129.845  0.00  0.00    +0.000 HD
BRANCH  13  15
ATOM     15  C   UNL     1     -10.188   6.218 129.691  0.00  0.00    +0.000 C 
BRANCH  15  16
ATOM     16  C   UNL     1     -11.321   7.002 129.171  0.00  0.00    +0.000 A 
ATOM     17  C   UNL     1     -11.259   8.312 128.624  0.00  0.00    +0.000 A 
ATOM     18  C   UNL     1     -12.560   8.706 128.439  0.00  0.00    +0.000 A 
ATOM     19  O   UNL     1     -13.414   7.695 128.749  0.00  0.00    +0.000 OA
ATOM     20  C   UNL     1     -12.653   6.653 129.166  0.00  0.00    +0.000 A 
ENDBRANCH  15  16
ENDBRANCH  13  15
ENDBRANCH  12  13
ENDBRANCH   9  12
ENDBRANCH   4   6
BRANCH   1  21
ATOM     21  C   UNL     1      -8.148  -2.479 126.787  0.00  0.00    +0.000 C 
BRANCH  21  22
ATOM     22  N   UNL     1      -7.705  -1.464 125.660  0.00  0.00    +0.000 NA
BRANCH  22  23
ATOM     23  C   UNL     1      -6.926  -2.176 124.542  0.00  0.00    +0.000 C 
ATOM     24  C   UNL     1      -5.436  -1.811 124.544  0.00  0.00    +0.000 C 
ATOM     25  C   UNL     1      -4.784  -2.859 123.654  0.00  0.00    +0.000 C 
ATOM     26  C   UNL     1      -5.640  -4.106 123.807  0.00  0.00    +0.000 C 
ATOM     27  C   UNL     1      -6.852  -3.697 124.645  0.00  0.00    +0.000 C 
ENDBRANCH  22  23
BRANCH  22  28
ATOM     28  S   UNL     1      -9.049  -0.550 124.757  0.00  0.00    +0.000 S 
ATOM     29  O   UNL     1      -9.995  -0.136 125.699  0.00  0.00    +0.000 OA
ATOM     30  O   UNL     1      -9.378  -1.374 123.563  0.00  0.00    +0.000 OA
BRANCH  28  34
ATOM     31  C   UNL     1      -7.554   3.013 122.273  0.00  0.00    +0.000 A 
ATOM     32  C   UNL     1      -6.724   2.548 123.239  0.00  0.00    +0.000 A 
ATOM     33  C   UNL     1      -7.054   1.390 124.040  0.00  0.00    +0.000 A 
ATOM     34  C   UNL     1      -8.336   0.845 124.057  0.00  0.00    +0.000 A 
ATOM     35  C   UNL     1      -9.250   1.589 123.523  0.00  0.00    +0.000 A 
ATOM     36  C   UNL     1      -8.757   2.450 122.574  0.00  0.00    +0.000 A 
BRANCH  31  38
ATOM     37  C   UNL     1      -6.645   3.913 120.085  0.00  0.00    +0.000 C 
ATOM     38  O   UNL     1      -7.096   3.992 121.440  0.00  0.00    +0.000 OA
ENDBRANCH  31  38
ENDBRANCH  28  34
ENDBRANCH  22  28
ENDBRANCH  21  22
ENDBRANCH   1  21
TORSDOF 11
ENDMDL
MODEL 8
REMARK VINA RESULT:      -8.7      2.825      5.143
REMARK  Name = CHEMBL1643590
REMARK  12 active torsions:
REMARK  status: ('A' for Active; 'I' for Inactive)
REMARK    1  A    between atoms: C_1  and  O_2
REMARK    2  A    between atoms: O_2  and  C_3
REMARK    3  A    between atoms: C_6  and  S_7
REMARK    4  A    between atoms: S_7  and  N_10
REMARK    5  A    between atoms: N_10  and  C_11
REMARK    6  A    between atoms: N_10  and  C_31
REMARK    7  A    between atoms: C_11  and  C_12
REMARK    8  A    between atoms: C_15  and  C_16
REMARK    9  A    between atoms: C_19  and  C_20
REMARK   10  A    between atoms: C_20  and  N_21
REMARK   11  A    between atoms: N_21  and  C_22
REMARK   12  A    between atoms: C_22  and  C_23
REMARK                            x       y       z     vdW  Elec       q    Type
REMARK                         _______ _______ _______ _____ _____    ______ ____
ROOT
ATOM      1  C   UNL     1      -5.884   2.310 126.485  0.00  0.00    +0.000 A 
ATOM      2  C   UNL     1      -4.811   3.169 126.275  0.00  0.00    +0.000 A 
ATOM      3  S   UNL     1      -4.924   4.511 127.459  0.00  0.00    +0.000 S 
ATOM      4  C   UNL     1      -6.712   4.071 127.880  0.00  0.00    +0.000 A 
ATOM      5  N   UNL     1      -7.009   3.001 127.111  0.00  0.00    +0.000 NA
ENDROOT
BRANCH   4   6
ATOM      6  C   UNL     1      -7.524   4.368 129.464  0.00  0.00    +0.000 A 
ATOM      7  C   UNL     1      -8.765   3.835 129.638  0.00  0.00    +0.000 A 
ATOM      8  C   UNL     1      -9.609   4.371 130.682  0.00  0.00    +0.000 A 
ATOM      9  C   UNL     1      -9.303   5.469 131.601  0.00  0.00    +0.000 A 
ATOM     10  C   UNL     1      -8.048   6.037 131.556  0.00  0.00    +0.000 A 
ATOM     11  C   UNL     1      -7.161   5.431 130.635  0.00  0.00    +0.000 A 
BRANCH   9  12
ATOM     12  C   UNL     1     -10.409   6.160 132.366  0.00  0.00    +0.000 C 
BRANCH  12  13
ATOM     13  N   UNL     1     -11.754   5.871 131.858  0.00  0.00    +0.000 NA
ATOM     14  H   UNL     1     -12.371   5.513 132.589  0.00  0.00    +0.000 HD
BRANCH  13  15
ATOM     15  C   UNL     1     -12.301   7.078 131.281  0.00  0.00    +0.000 C 
BRANCH  15  16
ATOM     16  C   UNL     1     -12.040   7.068 129.832  0.00  0.00    +0.000 A 
ATOM     17  C   UNL     1     -11.042   7.815 129.150  0.00  0.00    +0.000 A 
ATOM     18  C   UNL     1     -11.281   7.632 127.811  0.00  0.00    +0.000 A 
ATOM     19  O   UNL     1     -12.300   6.753 127.624  0.00  0.00    +0.000 OA
ATOM     20  C   UNL     1     -12.739   6.392 128.856  0.00  0.00    +0.000 A 
ENDBRANCH  15  16
ENDBRANCH  13  15
ENDBRANCH  12  13
ENDBRANCH   9  12
ENDBRANCH   4   6
BRANCH   1  21
ATOM     21  C   UNL     1      -5.969   0.808 125.961  0.00  0.00    +0.000 C 
BRANCH  21  22
ATOM     22  N   UNL     1      -7.240   0.254 125.202  0.00  0.00    +0.000 NA
BRANCH  22  23
ATOM     23  C   UNL     1      -6.916  -1.042 124.440  0.00  0.00    +0.000 C 
ATOM     24  C   UNL     1      -6.710  -0.802 122.939  0.00  0.00    +0.000 C 
ATOM     25  C   UNL     1      -6.047  -2.075 122.435  0.00  0.00    +0.000 C 
ATOM     26  C   UNL     1      -5.245  -2.605 123.613  0.00  0.00    +0.000 C 
ATOM     27  C   UNL     1      -5.599  -1.720 124.808  0.00  0.00    +0.000 C 
ENDBRANCH  22  23
BRANCH  22  28
ATOM     28  S   UNL     1      -8.723  -0.191 126.230  0.00  0.00    +0.000 S 
ATOM     29  O   UNL     1      -9.387  -1.244 125.594  0.00  0.00    +0.000 OA
ATOM     30  O   UNL     1      -9.376   1.096 126.592  0.00  0.00    +0.000 OA
BRANCH  28  34
ATOM     31  C   UNL     1      -7.715  -2.220 130.225  0.00  0.00    +0.000 A 
ATOM     32  C   UNL     1      -7.410  -0.905 130.112  0.00  0.00    +0.000 A 
ATOM     33  C   UNL     1      -7.741  -0.141 128.929  0.00  0.00    +0.000 A 
ATOM     34  C   UNL     1      -8.145  -0.752 127.745  0.00  0.00    +0.000 A 
ATOM     35  C   UNL     1      -7.955  -2.031 127.701  0.00  0.00    +0.000 A 
ATOM     36  C   UNL     1      -7.943  -2.617 128.942  0.00  0.00    +0.000 A 
BRANCH  31  38
ATOM     37  C   UNL     1      -6.335  -3.190 132.117  0.00  0.00    +0.000 C 
ATOM     38  O   UNL     1      -7.538  -2.826 131.436  0.00  0.00    +0.000 OA
ENDBRANCH  31  38
ENDBRANCH  28  34
ENDBRANCH  22  28
ENDBRANCH  21  22
ENDBRANCH   1  21
TORSDOF 11
ENDMDL
MODEL 9
REMARK VINA RESULT:      -8.7      2.937      3.687
REMARK  Name = CHEMBL1643590
REMARK  12 active torsions:
REMARK  status: ('A' for Active; 'I' for Inactive)
REMARK    1  A    between atoms: C_1  and  O_2
REMARK    2  A    between atoms: O_2  and  C_3
REMARK    3  A    between atoms: C_6  and  S_7
REMARK    4  A    between atoms: S_7  and  N_10
REMARK    5  A    between atoms: N_10  and  C_11
REMARK    6  A    between atoms: N_10  and  C_31
REMARK    7  A    between atoms: C_11  and  C_12
REMARK    8  A    between atoms: C_15  and  C_16
REMARK    9  A    between atoms: C_19  and  C_20
REMARK   10  A    between atoms: C_20  and  N_21
REMARK   11  A    between atoms: N_21  and  C_22
REMARK   12  A    between atoms: C_22  and  C_23
REMARK                            x       y       z     vdW  Elec       q    Type
REMARK                         _______ _______ _______ _____ _____    ______ ____
ROOT
ATOM      1  C   UNL     1      -7.395   0.785 129.383  0.00  0.00    +0.000 A 
ATOM      2  C   UNL     1      -6.137   1.234 129.767  0.00  0.00    +0.000 A 
ATOM      3  S   UNL     1      -6.330   2.819 130.582  0.00  0.00    +0.000 S 
ATOM      4  C   UNL     1      -8.094   3.007 129.934  0.00  0.00    +0.000 A 
ATOM      5  N   UNL     1      -8.330   1.893 129.206  0.00  0.00    +0.000 NA
ENDROOT
BRANCH   4   6
ATOM      6  C   UNL     1      -9.423   3.919 130.747  0.00  0.00    +0.000 A 
ATOM      7  C   UNL     1     -10.635   3.937 130.127  0.00  0.00    +0.000 A 
ATOM      8  C   UNL     1     -11.587   4.961 130.497  0.00  0.00    +0.000 A 
ATOM      9  C   UNL     1     -11.405   6.038 131.474  0.00  0.00    +0.000 A 
ATOM     10  C   UNL     1     -10.238   6.073 132.207  0.00  0.00    +0.000 A 
ATOM     11  C   UNL     1      -9.353   4.997 131.957  0.00  0.00    +0.000 A 
BRANCH   9  12
ATOM     12  C   UNL     1     -12.323   7.238 131.472  0.00  0.00    +0.000 C 
BRANCH  12  13
ATOM     13  N   UNL     1     -13.130   7.368 130.255  0.00  0.00    +0.000 NA
ATOM     14  H   UNL     1     -14.118   7.520 130.464  0.00  0.00    +0.000 HD
BRANCH  13  15
ATOM     15  C   UNL     1     -12.607   8.460 129.466  0.00  0.00    +0.000 C 
BRANCH  15  16
ATOM     16  C   UNL     1     -12.047   7.915 128.218  0.00  0.00    +0.000 A 
ATOM     17  C   UNL     1     -10.786   8.238 127.649  0.00  0.00    +0.000 A 
ATOM     18  C   UNL     1     -10.763   7.638 126.415  0.00  0.00    +0.000 A 
ATOM     19  O   UNL     1     -11.884   6.894 126.225  0.00  0.00    +0.000 OA
ATOM     20  C   UNL     1     -12.647   7.044 127.336  0.00  0.00    +0.000 A 
ENDBRANCH  15  16
ENDBRANCH  13  15
ENDBRANCH  12  13
ENDBRANCH   9  12
ENDBRANCH   4   6
BRANCH   1  21
ATOM     21  C   UNL     1      -7.752  -0.722 129.005  0.00  0.00    +0.000 C 
BRANCH  21  22
ATOM     22  N   UNL     1      -6.880  -1.563 127.989  0.00  0.00    +0.000 NA
BRANCH  22  23
ATOM     23  C   UNL     1      -6.312  -2.827 128.654  0.00  0.00    +0.000 C 
ATOM     24  C   UNL     1      -4.807  -2.715 128.932  0.00  0.00    +0.000 C 
ATOM     25  C   UNL     1      -4.510  -3.852 129.898  0.00  0.00    +0.000 C 
ATOM     26  C   UNL     1      -5.792  -4.051 130.691  0.00  0.00    +0.000 C 
ATOM     27  C   UNL     1      -6.841  -3.142 130.050  0.00  0.00    +0.000 C 
ENDBRANCH  22  23
BRANCH  22  28
ATOM     28  S   UNL     1      -7.726  -2.202 126.462  0.00  0.00    +0.000 S 
ATOM     29  O   UNL     1      -8.824  -2.967 126.866  0.00  0.00    +0.000 OA
ATOM     30  O   UNL     1      -6.645  -2.714 125.576  0.00  0.00    +0.000 OA
BRANCH  28  34
ATOM     31  C   UNL     1      -8.544   1.623 124.055  0.00  0.00    +0.000 A 
ATOM     32  C   UNL     1      -9.520   1.210 124.899  0.00  0.00    +0.000 A 
ATOM     33  C   UNL     1      -9.353   0.060 125.759  0.00  0.00    +0.000 A 
ATOM     34  C   UNL     1      -8.304  -0.842 125.591  0.00  0.00    +0.000 A 
ATOM     35  C   UNL     1      -7.660  -0.724 124.475  0.00  0.00    +0.000 A 
ATOM     36  C   UNL     1      -7.721   0.543 123.949  0.00  0.00    +0.000 A 
BRANCH  31  38
ATOM     37  C   UNL     1      -8.681   3.123 122.016  0.00  0.00    +0.000 C 
ATOM     38  O   UNL     1      -8.703   2.817 123.412  0.00  0.00    +0.000 OA
ENDBRANCH  31  38
ENDBRANCH  28  34
ENDBRANCH  22  28
ENDBRANCH  21  22
ENDBRANCH   1  21
TORSDOF 11
ENDMDL
