MODEL 1
REMARK VINA RESULT:      -9.6      0.000      0.000
REMARK  Name = CHEMBL3813722
REMARK  25 active torsions:
REMARK  status: ('A' for Active; 'I' for Inactive)
REMARK    1  A    between atoms: C_1  and  C_2
REMARK    2  A    between atoms: C_2  and  C_3
REMARK    3  A    between atoms: C_3  and  C_4
REMARK    4  A    between atoms: C_3  and  C_5
REMARK    5  A    between atoms: C_9  and  C_10
REMARK    6  A    between atoms: C_10  and  C_11
REMARK    7  A    between atoms: C_14  and  O_15
REMARK    8  A    between atoms: C_21  and  N_22
REMARK    9  A    between atoms: C_27  and  C_28
REMARK   10  A    between atoms: C_34  and  C_35
REMARK   11  A    between atoms: N_37  and  C_38
REMARK   12  A    between atoms: N_37  and  C_39
REMARK   13  A    between atoms: C_39  and  C_40
REMARK   14  A    between atoms: C_39  and  C_44
REMARK   15  A    between atoms: C_40  and  C_41
REMARK   16  A    between atoms: C_41  and  C_42
REMARK   17  A    between atoms: C_41  and  C_43
REMARK   18  A    between atoms: N_46  and  C_47
REMARK   19  A    between atoms: N_46  and  C_48
REMARK   20  A    between atoms: C_48  and  C_49
REMARK   21  A    between atoms: C_55  and  C_56
REMARK   22  A    between atoms: C_56  and  C_57
REMARK   23  A    between atoms: C_63  and  C_64
REMARK   24  A    between atoms: C_64  and  C_65
REMARK   25  A    between atoms: C_65  and  C_66
REMARK                            x       y       z     vdW  Elec       q    Type
REMARK                         _______ _______ _______ _____ _____    ______ ____
ROOT
ATOM      1  C   UNL     1      -8.615   4.869 129.028  0.00  0.00    +0.000 C 
ATOM      2  N   UNL     1      -7.823   4.050 126.971  0.00  0.00    +0.000 N 
ATOM      3  C   UNL     1      -7.238   3.278 125.262  0.00  0.00    +0.000 C 
ATOM      4  O   UNL     1      -5.999   3.333 124.347  0.00  0.00    +0.000 OA
ATOM      5  C   UNL     1      -7.125   1.379 124.289  0.00  0.00    +0.000 C 
ATOM      6  N   UNL     1      -6.435  -0.025 124.785  0.00  0.00    +0.000 N 
ATOM      7  C   UNL     1      -5.674  -0.042 125.918  0.00  0.00    +0.000 C 
ATOM      8  O   UNL     1      -5.263  -1.069 126.440  0.00  0.00    +0.000 OA
ATOM      9  C   UNL     1      -5.320   1.199 126.683  0.00  0.00    +0.000 C 
ATOM     10  C   UNL     1      -6.167   1.535 127.851  0.00  0.00    +0.000 C 
ATOM     11  S   UNL     1      -5.249   0.313 128.812  0.00  0.00    +0.000 S 
ATOM     12  S   UNL     1      -6.393  -0.191 130.317  0.00  0.00    +0.000 S 
ATOM     13  C   UNL     1      -5.532  -0.478 131.953  0.00  0.00    +0.000 C 
ATOM     14  C   UNL     1      -6.189  -0.245 133.328  0.00  0.00    +0.000 C 
ATOM     15  N   UNL     1      -6.005   1.137 133.832  0.00  0.00    +0.000 N 
ATOM     16  C   UNL     1      -6.420   2.199 133.187  0.00  0.00    +0.000 C 
ATOM     17  O   UNL     1      -6.104   3.331 133.558  0.00  0.00    +0.000 OA
ATOM     18  C   UNL     1      -7.305   1.691 131.910  0.00  0.00    +0.000 C 
ATOM     19  N   UNL     1      -9.117   2.021 132.073  0.00  0.00    +0.000 N 
ATOM     20  C   UNL     1      -9.436   3.555 131.217  0.00  0.00    +0.000 C 
ATOM     21  O   UNL     1     -10.827   3.550 131.287  0.00  0.00    +0.000 OA
ATOM     22  C   UNL     1      -7.929   5.167 131.806  0.00  0.00    +0.000 C 
ATOM     23  N   UNL     1      -7.588   6.288 130.964  0.00  0.00    +0.000 N 
ATOM     24  C   UNL     1      -8.408   6.460 129.888  0.00  0.00    +0.000 C 
ATOM     25  O   UNL     1      -9.077   7.505 129.922  0.00  0.00    +0.000 OA
ATOM     26  H   UNL     1      -7.215   4.338 125.864  0.00  0.00    +0.000 HD
ATOM     27  H   UNL     1      -6.545  -1.024 124.379  0.00  0.00    +0.000 HD
ATOM     28  H   UNL     1      -5.522   1.405 134.687  0.00  0.00    +0.000 HD
ATOM     29  H   UNL     1      -9.782   1.539 131.549  0.00  0.00    +0.000 HD
ATOM     30  H   UNL     1      -6.845   5.994 130.406  0.00  0.00    +0.000 HD
ENDROOT
BRANCH  14  31
ATOM     31  C   UNL     1      -5.532  -1.140 134.343  0.00  0.00    +0.000 C 
ATOM     32  O   UNL     1      -4.571  -0.597 134.886  0.00  0.00    +0.000 OA
ATOM     33  N   UNL     1      -6.150  -2.364 134.647  0.00  0.00    +0.000 N 
ATOM     34  C   UNL     1      -6.663  -3.371 133.735  0.00  0.00    +0.000 C 
ATOM     35  C   UNL     1      -7.832  -3.953 134.475  0.00  0.00    +0.000 C 
ATOM     36  C   UNL     1      -7.280  -4.115 135.856  0.00  0.00    +0.000 C 
ATOM     37  C   UNL     1      -6.261  -2.992 135.996  0.00  0.00    +0.000 C 
BRANCH  37  38
ATOM     38  C   UNL     1      -5.054  -3.914 136.363  0.00  0.00    +0.000 C 
ATOM     39  O   UNL     1      -4.928  -4.974 135.726  0.00  0.00    +0.000 OA
ATOM     40  N   UNL     1      -3.980  -3.271 137.090  0.00  0.00    +0.000 N 
ATOM     41  C   UNL     1      -4.238  -2.149 137.972  0.00  0.00    +0.000 C 
BRANCH  40  42
ATOM     42  C   UNL     1      -2.570  -3.803 137.040  0.00  0.00    +0.000 C 
BRANCH  42  43
ATOM     43  C   UNL     1      -1.787  -3.312 135.765  0.00  0.00    +0.000 C 
ATOM     44  O   UNL     1      -2.002  -3.744 134.633  0.00  0.00    +0.000 OA
ATOM     45  N   UNL     1      -0.821  -2.352 135.903  0.00  0.00    +0.000 N 
ATOM     46  C   UNL     1      -0.527  -1.793 137.175  0.00  0.00    +0.000 C 
BRANCH  45  47
ATOM     47  C   UNL     1      -0.071  -1.874 134.718  0.00  0.00    +0.000 C 
BRANCH  47  48
ATOM     48  C   UNL     1       1.087  -2.788 134.223  0.00  0.00    +0.000 C 
ATOM     49  N   UNL     1       1.284  -4.038 134.748  0.00  0.00    +0.000 N 
ATOM     50  O   UNL     1       1.863  -2.418 133.346  0.00  0.00    +0.000 OA
ATOM     51  H   UNL     1       0.790  -4.527 135.446  0.00  0.00    +0.000 HD
ATOM     52  H   UNL     1       1.988  -4.695 134.505  0.00  0.00    +0.000 HD
ENDBRANCH  47  48
ENDBRANCH  45  47
ENDBRANCH  42  43
BRANCH  42  53
ATOM     53  C   UNL     1      -2.497  -5.358 137.089  0.00  0.00    +0.000 C 
BRANCH  53  54
ATOM     54  C   UNL     1      -2.122  -5.913 138.438  0.00  0.00    +0.000 C 
ATOM     55  C   UNL     1      -1.249  -4.966 139.144  0.00  0.00    +0.000 C 
ATOM     56  C   UNL     1      -3.204  -5.876 139.442  0.00  0.00    +0.000 C 
ENDBRANCH  53  54
ENDBRANCH  42  53
ENDBRANCH  40  42
ENDBRANCH  37  38
ENDBRANCH  14  31
BRANCH   9  57
ATOM     57  N   UNL     1      -5.758   2.274 126.052  0.00  0.00    +0.000 NA
ATOM     58  H   UNL     1      -6.727   2.052 126.216  0.00  0.00    +0.000 HD
ATOM     59  H   UNL     1      -5.701   2.055 125.039  0.00  0.00    +0.000 HD
ENDBRANCH   9  57
BRANCH   1  60
ATOM     60  C   UNL     1      -9.657   5.400 130.906  0.00  0.00    +0.000 C 
ATOM     61  C   UNL     1     -10.806   6.255 132.598  0.00  0.00    +0.000 C 
BRANCH  60  63
ATOM     62  C   UNL     1     -11.965   6.025 129.261  0.00  0.00    +0.000 C 
ATOM     63  C   UNL     1     -11.409   6.330 131.099  0.00  0.00    +0.000 C 
ENDBRANCH  60  63
ENDBRANCH   1  60
BRANCH  18  64
ATOM     64  C   UNL     1      -6.430   2.610 130.515  0.00  0.00    +0.000 C 
BRANCH  64  65
ATOM     65  C   UNL     1      -5.201   3.272 130.973  0.00  0.00    +0.000 C 
ATOM     66  N   UNL     1      -4.147   2.491 131.227  0.00  0.00    +0.000 N 
ATOM     67  O   UNL     1      -5.117   4.486 131.013  0.00  0.00    +0.000 OA
ATOM     68  H   UNL     1      -4.228   1.525 131.018  0.00  0.00    +0.000 HD
ATOM     69  H   UNL     1      -3.210   2.811 131.035  0.00  0.00    +0.000 HD
ENDBRANCH  64  65
ENDBRANCH  18  64
BRANCH   5  70
ATOM     70  C   UNL     1      -8.446   1.548 124.695  0.00  0.00    +0.000 C 
BRANCH  70  71
ATOM     71  C   UNL     1      -8.873   0.116 124.486  0.00  0.00    +0.000 A 
ATOM     72  C   UNL     1      -9.011  -0.872 125.500  0.00  0.00    +0.000 A 
ATOM     73  C   UNL     1      -9.386  -2.155 125.170  0.00  0.00    +0.000 A 
ATOM     74  C   UNL     1      -9.519  -2.465 123.833  0.00  0.00    +0.000 A 
ATOM     75  C   UNL     1      -9.180  -1.553 122.847  0.00  0.00    +0.000 A 
ATOM     76  C   UNL     1      -8.825  -0.276 123.168  0.00  0.00    +0.000 A 
BRANCH  74  77
ATOM     77  O   UNL     1      -9.981  -3.661 123.384  0.00  0.00    +0.000 OA
ATOM     78  H   UNL     1      -9.285  -4.196 122.972  0.00  0.00    +0.000 HD
ENDBRANCH  74  77
ENDBRANCH  70  71
ENDBRANCH   5  70
BRANCH  22  79
ATOM     79  C   UNL     1      -7.785   5.738 133.524  0.00  0.00    +0.000 C 
BRANCH  79  80
ATOM     80  C   UNL     1      -8.257   4.999 134.710  0.00  0.00    +0.000 C 
BRANCH  80  81
ATOM     81  C   UNL     1      -7.610   5.599 135.962  0.00  0.00    +0.000 C 
ATOM     82  N   UNL     1      -8.263   6.576 136.696  0.00  0.00    +0.000 N 
ATOM     83  O   UNL     1      -6.498   5.202 136.301  0.00  0.00    +0.000 OA
ATOM     84  H   UNL     1      -9.173   6.972 136.494  0.00  0.00    +0.000 HD
ATOM     85  H   UNL     1      -7.853   6.950 137.541  0.00  0.00    +0.000 HD
ENDBRANCH  80  81
ENDBRANCH  79  80
ENDBRANCH  22  79
TORSDOF 19
ENDMDL
MODEL 2
REMARK VINA RESULT:      -9.4      4.115     12.986
REMARK  Name = CHEMBL3813722
REMARK  25 active torsions:
REMARK  status: ('A' for Active; 'I' for Inactive)
REMARK    1  A    between atoms: C_1  and  C_2
REMARK    2  A    between atoms: C_2  and  C_3
REMARK    3  A    between atoms: C_3  and  C_4
REMARK    4  A    between atoms: C_3  and  C_5
REMARK    5  A    between atoms: C_9  and  C_10
REMARK    6  A    between atoms: C_10  and  C_11
REMARK    7  A    between atoms: C_14  and  O_15
REMARK    8  A    between atoms: C_21  and  N_22
REMARK    9  A    between atoms: C_27  and  C_28
REMARK   10  A    between atoms: C_34  and  C_35
REMARK   11  A    between atoms: N_37  and  C_38
REMARK   12  A    between atoms: N_37  and  C_39
REMARK   13  A    between atoms: C_39  and  C_40
REMARK   14  A    between atoms: C_39  and  C_44
REMARK   15  A    between atoms: C_40  and  C_41
REMARK   16  A    between atoms: C_41  and  C_42
REMARK   17  A    between atoms: C_41  and  C_43
REMARK   18  A    between atoms: N_46  and  C_47
REMARK   19  A    between atoms: N_46  and  C_48
REMARK   20  A    between atoms: C_48  and  C_49
REMARK   21  A    between atoms: C_55  and  C_56
REMARK   22  A    between atoms: C_56  and  C_57
REMARK   23  A    between atoms: C_63  and  C_64
REMARK   24  A    between atoms: C_64  and  C_65
REMARK   25  A    between atoms: C_65  and  C_66
REMARK                            x       y       z     vdW  Elec       q    Type
REMARK                         _______ _______ _______ _____ _____    ______ ____
ROOT
ATOM      1  C   UNL     1      -5.179  -4.171 139.081  0.00  0.00    +0.000 C 
ATOM      2  N   UNL     1      -2.860  -4.552 139.004  0.00  0.00    +0.000 N 
ATOM      3  C   UNL     1      -0.907  -4.755 138.928  0.00  0.00    +0.000 C 
ATOM      4  O   UNL     1       0.116  -5.861 138.602  0.00  0.00    +0.000 OA
ATOM      5  C   UNL     1       0.800  -3.770 138.101  0.00  0.00    +0.000 C 
ATOM      6  N   UNL     1       1.115  -3.317 136.556  0.00  0.00    +0.000 N 
ATOM      7  C   UNL     1       0.278  -3.708 135.551  0.00  0.00    +0.000 C 
ATOM      8  O   UNL     1       0.350  -3.282 134.407  0.00  0.00    +0.000 OA
ATOM      9  C   UNL     1      -0.867  -4.655 135.764  0.00  0.00    +0.000 C 
ATOM     10  C   UNL     1      -2.205  -4.057 135.976  0.00  0.00    +0.000 C 
ATOM     11  S   UNL     1      -2.333  -3.822 134.190  0.00  0.00    +0.000 S 
ATOM     12  S   UNL     1      -3.659  -2.411 133.904  0.00  0.00    +0.000 S 
ATOM     13  C   UNL     1      -4.800  -2.631 132.438  0.00  0.00    +0.000 C 
ATOM     14  C   UNL     1      -6.238  -2.079 132.370  0.00  0.00    +0.000 C 
ATOM     15  N   UNL     1      -7.248  -3.027 132.898  0.00  0.00    +0.000 N 
ATOM     16  C   UNL     1      -7.228  -3.491 134.123  0.00  0.00    +0.000 C 
ATOM     17  O   UNL     1      -7.986  -4.398 134.471  0.00  0.00    +0.000 OA
ATOM     18  C   UNL     1      -6.060  -2.690 134.939  0.00  0.00    +0.000 C 
ATOM     19  N   UNL     1      -6.704  -1.512 136.211  0.00  0.00    +0.000 N 
ATOM     20  C   UNL     1      -6.686  -2.383 137.769  0.00  0.00    +0.000 C 
ATOM     21  O   UNL     1      -7.019  -1.322 138.607  0.00  0.00    +0.000 OA
ATOM     22  C   UNL     1      -7.612  -4.462 137.574  0.00  0.00    +0.000 C 
ATOM     23  N   UNL     1      -7.295  -5.563 138.451  0.00  0.00    +0.000 N 
ATOM     24  C   UNL     1      -6.588  -5.217 139.564  0.00  0.00    +0.000 C 
ATOM     25  O   UNL     1      -7.206  -5.377 140.629  0.00  0.00    +0.000 OA
ATOM     26  H   UNL     1      -1.894  -5.361 139.309  0.00  0.00    +0.000 HD
ATOM     27  H   UNL     1       1.885  -2.654 136.179  0.00  0.00    +0.000 HD
ATOM     28  H   UNL     1      -8.021  -3.434 132.375  0.00  0.00    +0.000 HD
ATOM     29  H   UNL     1      -6.164  -0.781 136.563  0.00  0.00    +0.000 HD
ATOM     30  H   UNL     1      -6.531  -6.018 138.053  0.00  0.00    +0.000 HD
ENDROOT
BRANCH  14  31
ATOM     31  C   UNL     1      -6.607  -1.849 130.931  0.00  0.00    +0.000 C 
ATOM     32  O   UNL     1      -7.604  -2.489 130.600  0.00  0.00    +0.000 OA
ATOM     33  N   UNL     1      -5.905  -0.866 130.214  0.00  0.00    +0.000 N 
ATOM     34  C   UNL     1      -4.469  -0.659 130.130  0.00  0.00    +0.000 C 
ATOM     35  C   UNL     1      -4.337   0.829 129.984  0.00  0.00    +0.000 C 
ATOM     36  C   UNL     1      -5.402   1.142 128.982  0.00  0.00    +0.000 C 
ATOM     37  C   UNL     1      -6.478   0.092 129.225  0.00  0.00    +0.000 C 
BRANCH  37  38
ATOM     38  C   UNL     1      -6.503  -0.454 127.761  0.00  0.00    +0.000 C 
ATOM     39  O   UNL     1      -5.826  -1.467 127.515  0.00  0.00    +0.000 OA
ATOM     40  N   UNL     1      -7.613  -0.003 126.949  0.00  0.00    +0.000 N 
ATOM     41  C   UNL     1      -8.232   1.288 127.176  0.00  0.00    +0.000 C 
BRANCH  40  42
ATOM     42  C   UNL     1      -8.103  -0.809 125.773  0.00  0.00    +0.000 C 
BRANCH  42  43
ATOM     43  C   UNL     1      -8.982   0.044 124.782  0.00  0.00    +0.000 C 
ATOM     44  O   UNL     1     -10.162   0.320 124.995  0.00  0.00    +0.000 OA
ATOM     45  N   UNL     1      -8.420   0.516 123.627  0.00  0.00    +0.000 N 
ATOM     46  C   UNL     1      -7.058   0.253 123.320  0.00  0.00    +0.000 C 
BRANCH  45  47
ATOM     47  C   UNL     1      -9.227   1.321 122.681  0.00  0.00    +0.000 C 
BRANCH  47  48
ATOM     48  C   UNL     1      -8.771   2.794 122.469  0.00  0.00    +0.000 C 
ATOM     49  N   UNL     1      -8.206   3.519 123.484  0.00  0.00    +0.000 N 
ATOM     50  O   UNL     1      -8.902   3.353 121.384  0.00  0.00    +0.000 OA
ATOM     51  H   UNL     1      -8.008   3.273 124.417  0.00  0.00    +0.000 HD
ATOM     52  H   UNL     1      -7.883   4.458 123.454  0.00  0.00    +0.000 HD
ENDBRANCH  47  48
ENDBRANCH  45  47
ENDBRANCH  42  43
BRANCH  42  53
ATOM     53  C   UNL     1      -8.918  -2.070 126.188  0.00  0.00    +0.000 C 
BRANCH  53  54
ATOM     54  C   UNL     1      -8.583  -3.307 125.397  0.00  0.00    +0.000 C 
ATOM     55  C   UNL     1      -9.323  -3.307 124.128  0.00  0.00    +0.000 C 
ATOM     56  C   UNL     1      -7.245  -3.294 124.772  0.00  0.00    +0.000 C 
ENDBRANCH  53  54
ENDBRANCH  42  53
ENDBRANCH  40  42
ENDBRANCH  37  38
ENDBRANCH  14  31
BRANCH   9  57
ATOM     57  N   UNL     1      -0.870  -5.108 137.005  0.00  0.00    +0.000 NA
ATOM     58  H   UNL     1      -1.836  -5.390 136.965  0.00  0.00    +0.000 HD
ATOM     59  H   UNL     1      -0.960  -4.273 137.615  0.00  0.00    +0.000 HD
ENDBRANCH   9  57
BRANCH   1  60
ATOM     60  C   UNL     1      -7.263  -3.445 139.215  0.00  0.00    +0.000 C 
ATOM     61  C   UNL     1      -9.343  -2.859 139.710  0.00  0.00    +0.000 C 
BRANCH  60  63
ATOM     62  C   UNL     1      -6.516  -2.227 141.741  0.00  0.00    +0.000 C 
ATOM     63  C   UNL     1      -8.166  -2.635 140.797  0.00  0.00    +0.000 C 
ENDBRANCH  60  63
ENDBRANCH   1  60
BRANCH  18  64
ATOM     64  C   UNL     1      -5.066  -4.148 135.606  0.00  0.00    +0.000 C 
BRANCH  64  65
ATOM     65  C   UNL     1      -5.508  -5.427 135.036  0.00  0.00    +0.000 C 
ATOM     66  N   UNL     1      -5.183  -5.672 133.764  0.00  0.00    +0.000 N 
ATOM     67  O   UNL     1      -6.049  -6.270 135.728  0.00  0.00    +0.000 OA
ATOM     68  H   UNL     1      -4.599  -5.016 133.303  0.00  0.00    +0.000 HD
ATOM     69  H   UNL     1      -4.965  -6.608 133.457  0.00  0.00    +0.000 HD
ENDBRANCH  64  65
ENDBRANCH  18  64
BRANCH   5  70
ATOM     70  C   UNL     1       0.110  -2.822 138.852  0.00  0.00    +0.000 C 
BRANCH  70  71
ATOM     71  C   UNL     1       1.244  -1.833 138.963  0.00  0.00    +0.000 A 
ATOM     72  C   UNL     1       2.464  -2.035 139.666  0.00  0.00    +0.000 A 
ATOM     73  C   UNL     1       3.410  -1.037 139.710  0.00  0.00    +0.000 A 
ATOM     74  C   UNL     1       3.093   0.181 139.145  0.00  0.00    +0.000 A 
ATOM     75  C   UNL     1       1.824   0.431 138.648  0.00  0.00    +0.000 A 
ATOM     76  C   UNL     1       0.888  -0.558 138.585  0.00  0.00    +0.000 A 
BRANCH  74  77
ATOM     77  O   UNL     1       3.974   1.208 139.034  0.00  0.00    +0.000 OA
ATOM     78  H   UNL     1       4.272   1.535 139.895  0.00  0.00    +0.000 HD
ENDBRANCH  74  77
ENDBRANCH  70  71
ENDBRANCH   5  70
BRANCH  22  79
ATOM     79  C   UNL     1      -9.340  -4.678 137.061  0.00  0.00    +0.000 C 
BRANCH  79  80
ATOM     80  C   UNL     1      -9.978  -5.966 136.733  0.00  0.00    +0.000 C 
BRANCH  80  81
ATOM     81  C   UNL     1     -10.770  -6.456 137.949  0.00  0.00    +0.000 C 
ATOM     82  N   UNL     1     -12.137  -6.662 137.865  0.00  0.00    +0.000 N 
ATOM     83  O   UNL     1     -10.171  -6.657 139.003  0.00  0.00    +0.000 OA
ATOM     84  H   UNL     1     -12.718  -6.518 137.048  0.00  0.00    +0.000 HD
ATOM     85  H   UNL     1     -12.657  -7.016 138.656  0.00  0.00    +0.000 HD
ENDBRANCH  80  81
ENDBRANCH  79  80
ENDBRANCH  22  79
TORSDOF 19
ENDMDL
MODEL 3
REMARK VINA RESULT:      -9.2      3.014     11.647
REMARK  Name = CHEMBL3813722
REMARK  25 active torsions:
REMARK  status: ('A' for Active; 'I' for Inactive)
REMARK    1  A    between atoms: C_1  and  C_2
REMARK    2  A    between atoms: C_2  and  C_3
REMARK    3  A    between atoms: C_3  and  C_4
REMARK    4  A    between atoms: C_3  and  C_5
REMARK    5  A    between atoms: C_9  and  C_10
REMARK    6  A    between atoms: C_10  and  C_11
REMARK    7  A    between atoms: C_14  and  O_15
REMARK    8  A    between atoms: C_21  and  N_22
REMARK    9  A    between atoms: C_27  and  C_28
REMARK   10  A    between atoms: C_34  and  C_35
REMARK   11  A    between atoms: N_37  and  C_38
REMARK   12  A    between atoms: N_37  and  C_39
REMARK   13  A    between atoms: C_39  and  C_40
REMARK   14  A    between atoms: C_39  and  C_44
REMARK   15  A    between atoms: C_40  and  C_41
REMARK   16  A    between atoms: C_41  and  C_42
REMARK   17  A    between atoms: C_41  and  C_43
REMARK   18  A    between atoms: N_46  and  C_47
REMARK   19  A    between atoms: N_46  and  C_48
REMARK   20  A    between atoms: C_48  and  C_49
REMARK   21  A    between atoms: C_55  and  C_56
REMARK   22  A    between atoms: C_56  and  C_57
REMARK   23  A    between atoms: C_63  and  C_64
REMARK   24  A    between atoms: C_64  and  C_65
REMARK   25  A    between atoms: C_65  and  C_66
REMARK                            x       y       z     vdW  Elec       q    Type
REMARK                         _______ _______ _______ _____ _____    ______ ____
ROOT
ATOM      1  C   UNL     1      -4.227   0.304 137.946  0.00  0.00    +0.000 C 
ATOM      2  N   UNL     1      -3.825   2.615 138.110  0.00  0.00    +0.000 N 
ATOM      3  C   UNL     1      -3.604   4.563 138.235  0.00  0.00    +0.000 C 
ATOM      4  O   UNL     1      -2.488   5.604 138.018  0.00  0.00    +0.000 OA
ATOM      5  C   UNL     1      -4.571   6.355 137.588  0.00  0.00    +0.000 C 
ATOM      6  N   UNL     1      -5.019   6.832 136.083  0.00  0.00    +0.000 N 
ATOM      7  C   UNL     1      -4.632   6.099 134.998  0.00  0.00    +0.000 C 
ATOM      8  O   UNL     1      -5.055   6.293 133.866  0.00  0.00    +0.000 OA
ATOM      9  C   UNL     1      -3.697   4.930 135.093  0.00  0.00    +0.000 C 
ATOM     10  C   UNL     1      -4.307   3.583 135.164  0.00  0.00    +0.000 C 
ATOM     11  S   UNL     1      -4.539   3.642 133.375  0.00  0.00    +0.000 S 
ATOM     12  S   UNL     1      -5.962   2.366 132.952  0.00  0.00    +0.000 S 
ATOM     13  C   UNL     1      -5.749   1.381 131.376  0.00  0.00    +0.000 C 
ATOM     14  C   UNL     1      -6.314  -0.037 131.160  0.00  0.00    +0.000 C 
ATOM     15  N   UNL     1      -5.377  -1.106 131.581  0.00  0.00    +0.000 N 
ATOM     16  C   UNL     1      -4.915  -1.216 132.803  0.00  0.00    +0.000 C 
ATOM     17  O   UNL     1      -4.015  -2.015 133.071  0.00  0.00    +0.000 OA
ATOM     18  C   UNL     1      -5.707  -0.131 133.734  0.00  0.00    +0.000 C 
ATOM     19  N   UNL     1      -6.893  -0.892 134.931  0.00  0.00    +0.000 N 
ATOM     20  C   UNL     1      -6.026  -1.044 136.484  0.00  0.00    +0.000 C 
ATOM     21  O   UNL     1      -7.092  -1.452 137.281  0.00  0.00    +0.000 OA
ATOM     22  C   UNL     1      -3.955  -1.963 136.196  0.00  0.00    +0.000 C 
ATOM     23  N   UNL     1      -2.853  -1.750 137.103  0.00  0.00    +0.000 N 
ATOM     24  C   UNL     1      -3.195  -1.157 138.283  0.00  0.00    +0.000 C 
ATOM     25  O   UNL     1      -3.043  -1.884 139.278  0.00  0.00    +0.000 OA
ATOM     26  H   UNL     1      -3.008   3.536 138.513  0.00  0.00    +0.000 HD
ATOM     27  H   UNL     1      -5.673   7.643 135.787  0.00  0.00    +0.000 HD
ATOM     28  H   UNL     1      -4.976  -1.824 130.982  0.00  0.00    +0.000 HD
ATOM     29  H   UNL     1      -7.620  -0.385 135.336  0.00  0.00    +0.000 HD
ATOM     30  H   UNL     1      -2.390  -0.952 136.787  0.00  0.00    +0.000 HD
ENDROOT
BRANCH  14  31
ATOM     31  C   UNL     1      -6.545  -0.254 129.689  0.00  0.00    +0.000 C 
ATOM     32  O   UNL     1      -6.055   0.644 129.006  0.00  0.00    +0.000 OA
ATOM     33  N   UNL     1      -7.123  -1.467 129.280  0.00  0.00    +0.000 N 
ATOM     34  C   UNL     1      -8.301  -2.132 129.809  0.00  0.00    +0.000 C 
ATOM     35  C   UNL     1      -7.990  -3.591 129.632  0.00  0.00    +0.000 C 
ATOM     36  C   UNL     1      -7.420  -3.624 128.250  0.00  0.00    +0.000 C 
ATOM     37  C   UNL     1      -6.752  -2.267 128.076  0.00  0.00    +0.000 C 
BRANCH  37  38
ATOM     38  C   UNL     1      -7.537  -1.865 126.787  0.00  0.00    +0.000 C 
ATOM     39  O   UNL     1      -8.752  -2.124 126.750  0.00  0.00    +0.000 OA
ATOM     40  N   UNL     1      -6.894  -0.871 125.953  0.00  0.00    +0.000 N 
ATOM     41  C   UNL     1      -5.450  -0.756 125.903  0.00  0.00    +0.000 C 
BRANCH  40  42
ATOM     42  C   UNL     1      -7.693   0.014 125.030  0.00  0.00    +0.000 C 
BRANCH  42  43
ATOM     43  C   UNL     1      -8.131   1.362 125.717  0.00  0.00    +0.000 C 
ATOM     44  O   UNL     1      -9.048   1.435 126.534  0.00  0.00    +0.000 OA
ATOM     45  N   UNL     1      -7.465   2.517 125.407  0.00  0.00    +0.000 N 
ATOM     46  C   UNL     1      -6.384   2.509 124.485  0.00  0.00    +0.000 C 
BRANCH  45  47
ATOM     47  C   UNL     1      -7.859   3.796 126.042  0.00  0.00    +0.000 C 
BRANCH  47  48
ATOM     48  C   UNL     1      -7.218   4.102 127.427  0.00  0.00    +0.000 C 
ATOM     49  N   UNL     1      -7.628   3.455 128.562  0.00  0.00    +0.000 N 
ATOM     50  O   UNL     1      -6.323   4.934 127.547  0.00  0.00    +0.000 OA
ATOM     51  H   UNL     1      -8.317   2.763 128.694  0.00  0.00    +0.000 HD
ATOM     52  H   UNL     1      -7.288   3.575 129.487  0.00  0.00    +0.000 HD
ENDBRANCH  47  48
ENDBRANCH  45  47
ENDBRANCH  42  43
BRANCH  42  53
ATOM     53  C   UNL     1      -8.966  -0.680 124.461  0.00  0.00    +0.000 C 
BRANCH  53  54
ATOM     54  C   UNL     1      -8.752  -1.367 123.137  0.00  0.00    +0.000 C 
ATOM     55  C   UNL     1      -7.314  -1.496 122.867  0.00  0.00    +0.000 C 
ATOM     56  C   UNL     1      -9.019  -2.819 123.148  0.00  0.00    +0.000 C 
ENDBRANCH  53  54
ENDBRANCH  42  53
ENDBRANCH  40  42
ENDBRANCH  37  38
ENDBRANCH  14  31
BRANCH   9  57
ATOM     57  N   UNL     1      -3.246   4.795 136.327  0.00  0.00    +0.000 NA
ATOM     58  H   UNL     1      -3.918   5.441 136.710  0.00  0.00    +0.000 HD
ATOM     59  H   UNL     1      -2.391   5.382 136.386  0.00  0.00    +0.000 HD
ENDBRANCH   9  57
BRANCH   1  60
ATOM     60  C   UNL     1      -4.973  -1.777 137.863  0.00  0.00    +0.000 C 
ATOM     61  C   UNL     1      -5.563  -3.896 138.134  0.00  0.00    +0.000 C 
BRANCH  60  63
ATOM     62  C   UNL     1      -6.230  -1.316 140.438  0.00  0.00    +0.000 C 
ATOM     63  C   UNL     1      -5.730  -2.854 139.360  0.00  0.00    +0.000 C 
ENDBRANCH  60  63
ENDBRANCH   1  60
BRANCH  18  64
ATOM     64  C   UNL     1      -4.242   0.775 134.501  0.00  0.00    +0.000 C 
BRANCH  64  65
ATOM     65  C   UNL     1      -3.005   0.580 133.734  0.00  0.00    +0.000 C 
ATOM     66  N   UNL     1      -2.064  -0.195 134.281  0.00  0.00    +0.000 N 
ATOM     67  O   UNL     1      -2.892   1.015 132.602  0.00  0.00    +0.000 OA
ATOM     68  H   UNL     1      -2.283  -0.654 135.132  0.00  0.00    +0.000 HD
ATOM     69  H   UNL     1      -1.483  -0.786 133.706  0.00  0.00    +0.000 HD
ENDBRANCH  64  65
ENDBRANCH  18  64
BRANCH   5  70
ATOM     70  C   UNL     1      -5.528   5.600 138.263  0.00  0.00    +0.000 C 
BRANCH  70  71
ATOM     71  C   UNL     1      -6.532   6.711 138.435  0.00  0.00    +0.000 A 
ATOM     72  C   UNL     1      -6.436   7.791 139.356  0.00  0.00    +0.000 A 
ATOM     73  C   UNL     1      -7.440   8.730 139.430  0.00  0.00    +0.000 A 
ATOM     74  C   UNL     1      -8.570   8.529 138.666  0.00  0.00    +0.000 A 
ATOM     75  C   UNL     1      -8.742   7.367 137.931  0.00  0.00    +0.000 A 
ATOM     76  C   UNL     1      -7.744   6.442 137.840  0.00  0.00    +0.000 A 
BRANCH  74  77
ATOM     77  O   UNL     1      -9.581   9.429 138.573  0.00  0.00    +0.000 OA
ATOM     78  H   UNL     1      -9.282  10.340 138.716  0.00  0.00    +0.000 HD
ENDBRANCH  74  77
ENDBRANCH  70  71
ENDBRANCH   5  70
BRANCH  22  79
ATOM     79  C   UNL     1      -3.754  -3.631 135.508  0.00  0.00    +0.000 C 
BRANCH  79  80
ATOM     80  C   UNL     1      -2.594  -4.513 135.733  0.00  0.00    +0.000 C 
BRANCH  80  81
ATOM     81  C   UNL     1      -1.694  -4.483 134.494  0.00  0.00    +0.000 C 
ATOM     82  N   UNL     1      -0.373  -4.078 134.588  0.00  0.00    +0.000 N 
ATOM     83  O   UNL     1      -2.169  -4.820 133.411  0.00  0.00    +0.000 OA
ATOM     84  H   UNL     1       0.104  -3.777 135.429  0.00  0.00    +0.000 HD
ATOM     85  H   UNL     1       0.231  -4.089 133.778  0.00  0.00    +0.000 HD
ENDBRANCH  80  81
ENDBRANCH  79  80
ENDBRANCH  22  79
TORSDOF 19
ENDMDL
MODEL 4
REMARK VINA RESULT:      -9.1      3.528     11.297
REMARK  Name = CHEMBL3813722
REMARK  25 active torsions:
REMARK  status: ('A' for Active; 'I' for Inactive)
REMARK    1  A    between atoms: C_1  and  C_2
REMARK    2  A    between atoms: C_2  and  C_3
REMARK    3  A    between atoms: C_3  and  C_4
REMARK    4  A    between atoms: C_3  and  C_5
REMARK    5  A    between atoms: C_9  and  C_10
REMARK    6  A    between atoms: C_10  and  C_11
REMARK    7  A    between atoms: C_14  and  O_15
REMARK    8  A    between atoms: C_21  and  N_22
REMARK    9  A    between atoms: C_27  and  C_28
REMARK   10  A    between atoms: C_34  and  C_35
REMARK   11  A    between atoms: N_37  and  C_38
REMARK   12  A    between atoms: N_37  and  C_39
REMARK   13  A    between atoms: C_39  and  C_40
REMARK   14  A    between atoms: C_39  and  C_44
REMARK   15  A    between atoms: C_40  and  C_41
REMARK   16  A    between atoms: C_41  and  C_42
REMARK   17  A    between atoms: C_41  and  C_43
REMARK   18  A    between atoms: N_46  and  C_47
REMARK   19  A    between atoms: N_46  and  C_48
REMARK   20  A    between atoms: C_48  and  C_49
REMARK   21  A    between atoms: C_55  and  C_56
REMARK   22  A    between atoms: C_56  and  C_57
REMARK   23  A    between atoms: C_63  and  C_64
REMARK   24  A    between atoms: C_64  and  C_65
REMARK   25  A    between atoms: C_65  and  C_66
REMARK                            x       y       z     vdW  Elec       q    Type
REMARK                         _______ _______ _______ _____ _____    ______ ____
ROOT
ATOM      1  C   UNL     1      -3.417   5.062 136.006  0.00  0.00    +0.000 C 
ATOM      2  N   UNL     1      -3.392   3.529 137.789  0.00  0.00    +0.000 N 
ATOM      3  C   UNL     1      -3.277   2.200 139.231  0.00  0.00    +0.000 C 
ATOM      4  O   UNL     1      -4.213   1.563 140.278  0.00  0.00    +0.000 OA
ATOM      5  C   UNL     1      -2.548   0.219 139.563  0.00  0.00    +0.000 C 
ATOM      6  N   UNL     1      -2.857  -1.172 138.750  0.00  0.00    +0.000 N 
ATOM      7  C   UNL     1      -3.821  -1.193 137.785  0.00  0.00    +0.000 C 
ATOM      8  O   UNL     1      -4.000  -2.137 137.027  0.00  0.00    +0.000 OA
ATOM      9  C   UNL     1      -4.721  -0.026 137.505  0.00  0.00    +0.000 C 
ATOM     10  C   UNL     1      -4.329   0.877 136.397  0.00  0.00    +0.000 C 
ATOM     11  S   UNL     1      -5.017  -0.322 135.236  0.00  0.00    +0.000 S 
ATOM     12  S   UNL     1      -4.168   0.022 133.507  0.00  0.00    +0.000 S 
ATOM     13  C   UNL     1      -5.260  -0.153 131.998  0.00  0.00    +0.000 C 
ATOM     14  C   UNL     1      -5.060   0.638 130.690  0.00  0.00    +0.000 C 
ATOM     15  N   UNL     1      -5.785   1.930 130.676  0.00  0.00    +0.000 N 
ATOM     16  C   UNL     1      -5.585   2.877 131.560  0.00  0.00    +0.000 C 
ATOM     17  O   UNL     1      -6.321   3.864 131.611  0.00  0.00    +0.000 OA
ATOM     18  C   UNL     1      -4.306   2.438 132.478  0.00  0.00    +0.000 C 
ATOM     19  N   UNL     1      -2.786   3.447 132.181  0.00  0.00    +0.000 N 
ATOM     20  C   UNL     1      -2.772   4.728 133.424  0.00  0.00    +0.000 C 
ATOM     21  O   UNL     1      -1.511   5.258 133.167  0.00  0.00    +0.000 OA
ATOM     22  C   UNL     1      -4.806   5.756 133.584  0.00  0.00    +0.000 C 
ATOM     23  N   UNL     1      -5.271   6.426 134.775  0.00  0.00    +0.000 N 
ATOM     24  C   UNL     1      -4.315   6.620 135.728  0.00  0.00    +0.000 C 
ATOM     25  O   UNL     1      -4.039   7.813 135.933  0.00  0.00    +0.000 OA
ATOM     26  H   UNL     1      -3.777   3.288 139.003  0.00  0.00    +0.000 HD
ATOM     27  H   UNL     1      -2.343  -2.126 138.802  0.00  0.00    +0.000 HD
ATOM     28  H   UNL     1      -6.518   2.201 130.023  0.00  0.00    +0.000 HD
ATOM     29  H   UNL     1      -1.897   3.134 132.431  0.00  0.00    +0.000 HD
ATOM     30  H   UNL     1      -5.727   5.749 135.308  0.00  0.00    +0.000 HD
ENDROOT
BRANCH  14  31
ATOM     31  C   UNL     1      -5.623  -0.159 129.545  0.00  0.00    +0.000 C 
ATOM     32  O   UNL     1      -5.207   0.237 128.457  0.00  0.00    +0.000 OA
ATOM     33  N   UNL     1      -6.392  -1.296 129.842  0.00  0.00    +0.000 N 
ATOM     34  C   UNL     1      -7.487  -1.426 130.788  0.00  0.00    +0.000 C 
ATOM     35  C   UNL     1      -7.365  -2.842 131.272  0.00  0.00    +0.000 C 
ATOM     36  C   UNL     1      -7.114  -3.588 130.001  0.00  0.00    +0.000 C 
ATOM     37  C   UNL     1      -6.370  -2.598 129.115  0.00  0.00    +0.000 C 
BRANCH  37  38
ATOM     38  C   UNL     1      -7.372  -2.668 127.919  0.00  0.00    +0.000 C 
ATOM     39  O   UNL     1      -8.571  -2.861 128.185  0.00  0.00    +0.000 OA
ATOM     40  N   UNL     1      -6.899  -2.091 126.678  0.00  0.00    +0.000 N 
ATOM     41  C   UNL     1      -5.487  -2.075 126.349  0.00  0.00    +0.000 C 
BRANCH  40  42
ATOM     42  C   UNL     1      -7.859  -1.576 125.636  0.00  0.00    +0.000 C 
BRANCH  42  43
ATOM     43  C   UNL     1      -8.153  -0.036 125.796  0.00  0.00    +0.000 C 
ATOM     44  O   UNL     1      -8.693   0.446 126.790  0.00  0.00    +0.000 OA
ATOM     45  N   UNL     1      -7.789   0.820 124.792  0.00  0.00    +0.000 N 
ATOM     46  C   UNL     1      -7.146   0.339 123.621  0.00  0.00    +0.000 C 
BRANCH  45  47
ATOM     47  C   UNL     1      -8.055   2.272 124.921  0.00  0.00    +0.000 C 
BRANCH  47  48
ATOM     48  C   UNL     1      -8.011   3.098 123.603  0.00  0.00    +0.000 C 
ATOM     49  N   UNL     1      -6.931   3.879 123.286  0.00  0.00    +0.000 N 
ATOM     50  O   UNL     1      -8.943   3.077 122.804  0.00  0.00    +0.000 OA
ATOM     51  H   UNL     1      -6.089   4.040 123.772  0.00  0.00    +0.000 HD
ATOM     52  H   UNL     1      -6.803   4.441 122.477  0.00  0.00    +0.000 HD
ENDBRANCH  47  48
ENDBRANCH  45  47
ENDBRANCH  42  43
BRANCH  42  53
ATOM     53  C   UNL     1      -9.220  -2.334 125.624  0.00  0.00    +0.000 C 
BRANCH  53  54
ATOM     54  C   UNL     1      -9.283  -3.470 124.637  0.00  0.00    +0.000 C 
ATOM     55  C   UNL     1      -9.241  -2.944 123.266  0.00  0.00    +0.000 C 
ATOM     56  C   UNL     1      -8.037  -4.253 124.520  0.00  0.00    +0.000 C 
ENDBRANCH  53  54
ENDBRANCH  42  53
ENDBRANCH  40  42
ENDBRANCH  37  38
ENDBRANCH  14  31
BRANCH   9  57
ATOM     57  N   UNL     1      -4.508   0.945 138.376  0.00  0.00    +0.000 NA
ATOM     58  H   UNL     1      -5.427   1.340 138.254  0.00  0.00    +0.000 HD
ATOM     59  H   UNL     1      -3.946   1.660 137.875  0.00  0.00    +0.000 HD
ENDBRANCH   9  57
BRANCH   1  60
ATOM     60  C   UNL     1      -3.077   6.386 134.267  0.00  0.00    +0.000 C 
ATOM     61  C   UNL     1      -2.675   7.989 132.790  0.00  0.00    +0.000 C 
BRANCH  60  63
ATOM     62  C   UNL     1      -0.681   7.290 135.632  0.00  0.00    +0.000 C 
ATOM     63  C   UNL     1      -1.744   7.859 134.107  0.00  0.00    +0.000 C 
ENDBRANCH  60  63
ENDBRANCH   1  60
BRANCH  18  64
ATOM     64  C   UNL     1      -5.066   2.592 134.197  0.00  0.00    +0.000 C 
BRANCH  64  65
ATOM     65  C   UNL     1      -6.534   2.596 134.156  0.00  0.00    +0.000 C 
ATOM     66  N   UNL     1      -7.149   3.741 134.463  0.00  0.00    +0.000 N 
ATOM     67  O   UNL     1      -7.154   1.629 133.753  0.00  0.00    +0.000 OA
ATOM     68  H   UNL     1      -6.584   4.540 134.623  0.00  0.00    +0.000 HD
ATOM     69  H   UNL     1      -8.005   4.008 133.999  0.00  0.00    +0.000 HD
ENDBRANCH  64  65
ENDBRANCH  18  64
BRANCH   5  70
ATOM     70  C   UNL     1      -1.485   0.961 139.054  0.00  0.00    +0.000 C 
BRANCH  70  71
ATOM     71  C   UNL     1      -0.386   0.092 139.614  0.00  0.00    +0.000 A 
ATOM     72  C   UNL     1      -0.175  -0.210 140.988  0.00  0.00    +0.000 A 
ATOM     73  C   UNL     1       0.886  -0.999 141.368  0.00  0.00    +0.000 A 
ATOM     74  C   UNL     1       1.779  -1.394 140.395  0.00  0.00    +0.000 A 
ATOM     75  C   UNL     1       1.680  -0.921 139.096  0.00  0.00    +0.000 A 
ATOM     76  C   UNL     1       0.622  -0.153 138.709  0.00  0.00    +0.000 A 
BRANCH  74  77
ATOM     77  O   UNL     1       2.805  -2.254 140.623  0.00  0.00    +0.000 OA
ATOM     78  H   UNL     1       2.670  -3.114 140.197  0.00  0.00    +0.000 HD
ENDBRANCH  74  77
ENDBRANCH  70  71
ENDBRANCH   5  70
BRANCH  22  79
ATOM     79  C   UNL     1      -5.530   6.635 132.170  0.00  0.00    +0.000 C 
BRANCH  79  80
ATOM     80  C   UNL     1      -4.773   7.188 131.031  0.00  0.00    +0.000 C 
BRANCH  80  81
ATOM     81  C   UNL     1      -4.343   6.041 130.112  0.00  0.00    +0.000 C 
ATOM     82  N   UNL     1      -5.259   5.422 129.277  0.00  0.00    +0.000 N 
ATOM     83  O   UNL     1      -3.170   5.675 130.133  0.00  0.00    +0.000 OA
ATOM     84  H   UNL     1      -6.244   5.646 129.195  0.00  0.00    +0.000 HD
ATOM     85  H   UNL     1      -4.971   4.687 128.646  0.00  0.00    +0.000 HD
ENDBRANCH  80  81
ENDBRANCH  79  80
ENDBRANCH  22  79
TORSDOF 19
ENDMDL
MODEL 5
REMARK VINA RESULT:      -9.1      1.631      2.402
REMARK  Name = CHEMBL3813722
REMARK  25 active torsions:
REMARK  status: ('A' for Active; 'I' for Inactive)
REMARK    1  A    between atoms: C_1  and  C_2
REMARK    2  A    between atoms: C_2  and  C_3
REMARK    3  A    between atoms: C_3  and  C_4
REMARK    4  A    between atoms: C_3  and  C_5
REMARK    5  A    between atoms: C_9  and  C_10
REMARK    6  A    between atoms: C_10  and  C_11
REMARK    7  A    between atoms: C_14  and  O_15
REMARK    8  A    between atoms: C_21  and  N_22
REMARK    9  A    between atoms: C_27  and  C_28
REMARK   10  A    between atoms: C_34  and  C_35
REMARK   11  A    between atoms: N_37  and  C_38
REMARK   12  A    between atoms: N_37  and  C_39
REMARK   13  A    between atoms: C_39  and  C_40
REMARK   14  A    between atoms: C_39  and  C_44
REMARK   15  A    between atoms: C_40  and  C_41
REMARK   16  A    between atoms: C_41  and  C_42
REMARK   17  A    between atoms: C_41  and  C_43
REMARK   18  A    between atoms: N_46  and  C_47
REMARK   19  A    between atoms: N_46  and  C_48
REMARK   20  A    between atoms: C_48  and  C_49
REMARK   21  A    between atoms: C_55  and  C_56
REMARK   22  A    between atoms: C_56  and  C_57
REMARK   23  A    between atoms: C_63  and  C_64
REMARK   24  A    between atoms: C_64  and  C_65
REMARK   25  A    between atoms: C_65  and  C_66
REMARK                            x       y       z     vdW  Elec       q    Type
REMARK                         _______ _______ _______ _____ _____    ______ ____
ROOT
ATOM      1  C   UNL     1      -8.471   4.786 129.141  0.00  0.00    +0.000 C 
ATOM      2  N   UNL     1      -7.794   3.971 127.042  0.00  0.00    +0.000 N 
ATOM      3  C   UNL     1      -7.300   3.199 125.304  0.00  0.00    +0.000 C 
ATOM      4  O   UNL     1      -6.130   3.289 124.304  0.00  0.00    +0.000 OA
ATOM      5  C   UNL     1      -7.184   1.294 124.344  0.00  0.00    +0.000 C 
ATOM      6  N   UNL     1      -6.408  -0.077 124.805  0.00  0.00    +0.000 N 
ATOM      7  C   UNL     1      -5.571  -0.053 125.882  0.00  0.00    +0.000 C 
ATOM      8  O   UNL     1      -5.085  -1.057 126.384  0.00  0.00    +0.000 OA
ATOM      9  C   UNL     1      -5.211   1.210 126.608  0.00  0.00    +0.000 C 
ATOM     10  C   UNL     1      -5.987   1.529 127.829  0.00  0.00    +0.000 C 
ATOM     11  S   UNL     1      -4.958   0.354 128.736  0.00  0.00    +0.000 S 
ATOM     12  S   UNL     1      -5.975  -0.173 130.322  0.00  0.00    +0.000 S 
ATOM     13  C   UNL     1      -4.993  -0.407 131.896  0.00  0.00    +0.000 C 
ATOM     14  C   UNL     1      -5.560  -0.181 133.312  0.00  0.00    +0.000 C 
ATOM     15  N   UNL     1      -5.394   1.213 133.788  0.00  0.00    +0.000 N 
ATOM     16  C   UNL     1      -5.893   2.251 133.163  0.00  0.00    +0.000 C 
ATOM     17  O   UNL     1      -5.595   3.398 133.499  0.00  0.00    +0.000 OA
ATOM     18  C   UNL     1      -6.845   1.695 131.956  0.00  0.00    +0.000 C 
ATOM     19  N   UNL     1      -8.652   1.960 132.242  0.00  0.00    +0.000 N 
ATOM     20  C   UNL     1      -9.088   3.470 131.395  0.00  0.00    +0.000 C 
ATOM     21  O   UNL     1     -10.469   3.415 131.562  0.00  0.00    +0.000 OA
ATOM     22  C   UNL     1      -7.605   5.144 131.861  0.00  0.00    +0.000 C 
ATOM     23  N   UNL     1      -7.366   6.266 130.986  0.00  0.00    +0.000 N 
ATOM     24  C   UNL     1      -8.264   6.394 129.968  0.00  0.00    +0.000 C 
ATOM     25  O   UNL     1      -8.969   7.414 130.039  0.00  0.00    +0.000 OA
ATOM     26  H   UNL     1      -7.275   4.267 125.892  0.00  0.00    +0.000 HD
ATOM     27  H   UNL     1      -6.509  -1.085 124.418  0.00  0.00    +0.000 HD
ATOM     28  H   UNL     1      -4.864   1.510 134.605  0.00  0.00    +0.000 HD
ATOM     29  H   UNL     1      -9.334   1.447 131.770  0.00  0.00    +0.000 HD
ATOM     30  H   UNL     1      -6.653   5.993 130.380  0.00  0.00    +0.000 HD
ENDROOT
BRANCH  14  31
ATOM     31  C   UNL     1      -4.801  -1.038 134.287  0.00  0.00    +0.000 C 
ATOM     32  O   UNL     1      -4.139  -0.366 135.076  0.00  0.00    +0.000 OA
ATOM     33  N   UNL     1      -5.045  -2.421 134.284  0.00  0.00    +0.000 N 
ATOM     34  C   UNL     1      -5.092  -3.329 133.151  0.00  0.00    +0.000 C 
ATOM     35  C   UNL     1      -6.112  -4.352 133.564  0.00  0.00    +0.000 C 
ATOM     36  C   UNL     1      -5.728  -4.623 134.983  0.00  0.00    +0.000 C 
ATOM     37  C   UNL     1      -5.136  -3.310 135.479  0.00  0.00    +0.000 C 
BRANCH  37  38
ATOM     38  C   UNL     1      -3.764  -3.910 135.924  0.00  0.00    +0.000 C 
ATOM     39  O   UNL     1      -3.242  -4.760 135.183  0.00  0.00    +0.000 OA
ATOM     40  N   UNL     1      -3.038  -3.134 136.908  0.00  0.00    +0.000 N 
ATOM     41  C   UNL     1      -3.734  -2.307 137.873  0.00  0.00    +0.000 C 
BRANCH  40  42
ATOM     42  C   UNL     1      -1.539  -3.235 137.035  0.00  0.00    +0.000 C 
BRANCH  42  43
ATOM     43  C   UNL     1      -1.087  -3.734 138.459  0.00  0.00    +0.000 C 
ATOM     44  O   UNL     1      -0.952  -2.983 139.424  0.00  0.00    +0.000 OA
ATOM     45  N   UNL     1      -0.836  -5.065 138.652  0.00  0.00    +0.000 N 
ATOM     46  C   UNL     1      -0.987  -5.996 137.589  0.00  0.00    +0.000 C 
BRANCH  45  47
ATOM     47  C   UNL     1      -0.411  -5.558 139.982  0.00  0.00    +0.000 C 
BRANCH  47  48
ATOM     48  C   UNL     1       1.122  -5.722 140.197  0.00  0.00    +0.000 C 
ATOM     49  N   UNL     1       1.623  -6.614 141.107  0.00  0.00    +0.000 N 
ATOM     50  O   UNL     1       1.931  -5.058 139.556  0.00  0.00    +0.000 OA
ATOM     51  H   UNL     1       1.164  -7.238 141.716  0.00  0.00    +0.000 HD
ATOM     52  H   UNL     1       2.577  -6.795 141.319  0.00  0.00    +0.000 HD
ENDBRANCH  47  48
ENDBRANCH  45  47
ENDBRANCH  42  43
BRANCH  42  53
ATOM     53  C   UNL     1      -0.804  -1.895 136.731  0.00  0.00    +0.000 C 
BRANCH  53  54
ATOM     54  C   UNL     1      -0.076  -1.879 135.412  0.00  0.00    +0.000 C 
ATOM     55  C   UNL     1       0.244  -3.252 135.000  0.00  0.00    +0.000 C 
ATOM     56  C   UNL     1      -0.926  -1.581 134.243  0.00  0.00    +0.000 C 
ENDBRANCH  53  54
ENDBRANCH  42  53
ENDBRANCH  40  42
ENDBRANCH  37  38
ENDBRANCH  14  31
BRANCH   9  57
ATOM     57  N   UNL     1      -5.732   2.261 125.999  0.00  0.00    +0.000 NA
ATOM     58  H   UNL     1      -4.853   2.753 125.962  0.00  0.00    +0.000 HD
ATOM     59  H   UNL     1      -6.207   2.814 126.738  0.00  0.00    +0.000 HD
ENDBRANCH   9  57
BRANCH   1  60
ATOM     60  C   UNL     1      -9.399   5.302 131.082  0.00  0.00    +0.000 C 
ATOM     61  C   UNL     1     -10.458   6.135 132.842  0.00  0.00    +0.000 C 
BRANCH  60  63
ATOM     62  C   UNL     1     -11.845   5.807 129.604  0.00  0.00    +0.000 C 
ATOM     63  C   UNL     1     -11.165   6.175 131.387  0.00  0.00    +0.000 C 
ENDBRANCH  60  63
ENDBRANCH   1  60
BRANCH  18  64
ATOM     64  C   UNL     1      -6.104   2.628 130.495  0.00  0.00    +0.000 C 
BRANCH  64  65
ATOM     65  C   UNL     1      -4.760   3.141 130.789  0.00  0.00    +0.000 C 
ATOM     66  N   UNL     1      -4.610   4.468 130.831  0.00  0.00    +0.000 N 
ATOM     67  O   UNL     1      -3.851   2.389 131.089  0.00  0.00    +0.000 OA
ATOM     68  H   UNL     1      -5.424   5.027 130.740  0.00  0.00    +0.000 HD
ATOM     69  H   UNL     1      -3.966   4.895 131.480  0.00  0.00    +0.000 HD
ENDBRANCH  64  65
ENDBRANCH  18  64
BRANCH   5  70
ATOM     70  C   UNL     1      -8.479   1.419 124.840  0.00  0.00    +0.000 C 
BRANCH  70  71
ATOM     71  C   UNL     1      -8.897  -0.009 124.587  0.00  0.00    +0.000 A 
ATOM     72  C   UNL     1      -8.956  -1.048 125.557  0.00  0.00    +0.000 A 
ATOM     73  C   UNL     1      -9.331  -2.319 125.188  0.00  0.00    +0.000 A 
ATOM     74  C   UNL     1      -9.545  -2.566 123.848  0.00  0.00    +0.000 A 
ATOM     75  C   UNL     1      -9.282  -1.600 122.890  0.00  0.00    +0.000 A 
ATOM     76  C   UNL     1      -8.927  -0.335 123.251  0.00  0.00    +0.000 A 
BRANCH  74  77
ATOM     77  O   UNL     1     -10.016  -3.746 123.369  0.00  0.00    +0.000 OA
ATOM     78  H   UNL     1     -10.942  -3.690 123.089  0.00  0.00    +0.000 HD
ENDBRANCH  74  77
ENDBRANCH  70  71
ENDBRANCH   5  70
BRANCH  22  79
ATOM     79  C   UNL     1      -7.364   5.741 133.559  0.00  0.00    +0.000 C 
BRANCH  79  80
ATOM     80  C   UNL     1      -7.915   5.109 134.772  0.00  0.00    +0.000 C 
BRANCH  80  81
ATOM     81  C   UNL     1      -7.065   5.516 135.979  0.00  0.00    +0.000 C 
ATOM     82  N   UNL     1      -5.749   5.100 136.091  0.00  0.00    +0.000 N 
ATOM     83  O   UNL     1      -7.575   6.216 136.852  0.00  0.00    +0.000 OA
ATOM     84  H   UNL     1      -5.245   4.519 135.431  0.00  0.00    +0.000 HD
ATOM     85  H   UNL     1      -5.176   5.394 136.870  0.00  0.00    +0.000 HD
ENDBRANCH  80  81
ENDBRANCH  79  80
ENDBRANCH  22  79
TORSDOF 19
ENDMDL
MODEL 6
REMARK VINA RESULT:      -9.1      3.632     12.605
REMARK  Name = CHEMBL3813722
REMARK  25 active torsions:
REMARK  status: ('A' for Active; 'I' for Inactive)
REMARK    1  A    between atoms: C_1  and  C_2
REMARK    2  A    between atoms: C_2  and  C_3
REMARK    3  A    between atoms: C_3  and  C_4
REMARK    4  A    between atoms: C_3  and  C_5
REMARK    5  A    between atoms: C_9  and  C_10
REMARK    6  A    between atoms: C_10  and  C_11
REMARK    7  A    between atoms: C_14  and  O_15
REMARK    8  A    between atoms: C_21  and  N_22
REMARK    9  A    between atoms: C_27  and  C_28
REMARK   10  A    between atoms: C_34  and  C_35
REMARK   11  A    between atoms: N_37  and  C_38
REMARK   12  A    between atoms: N_37  and  C_39
REMARK   13  A    between atoms: C_39  and  C_40
REMARK   14  A    between atoms: C_39  and  C_44
REMARK   15  A    between atoms: C_40  and  C_41
REMARK   16  A    between atoms: C_41  and  C_42
REMARK   17  A    between atoms: C_41  and  C_43
REMARK   18  A    between atoms: N_46  and  C_47
REMARK   19  A    between atoms: N_46  and  C_48
REMARK   20  A    between atoms: C_48  and  C_49
REMARK   21  A    between atoms: C_55  and  C_56
REMARK   22  A    between atoms: C_56  and  C_57
REMARK   23  A    between atoms: C_63  and  C_64
REMARK   24  A    between atoms: C_64  and  C_65
REMARK   25  A    between atoms: C_65  and  C_66
REMARK                            x       y       z     vdW  Elec       q    Type
REMARK                         _______ _______ _______ _____ _____    ______ ____
ROOT
ATOM      1  C   UNL     1      -4.813  -2.051 136.914  0.00  0.00    +0.000 C 
ATOM      2  N   UNL     1      -4.310  -0.279 138.376  0.00  0.00    +0.000 N 
ATOM      3  C   UNL     1      -4.002   1.234 139.591  0.00  0.00    +0.000 C 
ATOM      4  O   UNL     1      -2.815   2.095 140.067  0.00  0.00    +0.000 OA
ATOM      5  C   UNL     1      -4.796   3.173 140.007  0.00  0.00    +0.000 C 
ATOM      6  N   UNL     1      -5.048   4.450 139.008  0.00  0.00    +0.000 N 
ATOM      7  C   UNL     1      -4.583   4.409 137.726  0.00  0.00    +0.000 C 
ATOM      8  O   UNL     1      -4.868   5.242 136.876  0.00  0.00    +0.000 OA
ATOM      9  C   UNL     1      -3.727   3.294 137.203  0.00  0.00    +0.000 C 
ATOM     10  C   UNL     1      -4.412   2.207 136.465  0.00  0.00    +0.000 C 
ATOM     11  S   UNL     1      -4.441   3.275 135.009  0.00  0.00    +0.000 S 
ATOM     12  S   UNL     1      -5.873   2.609 133.854  0.00  0.00    +0.000 S 
ATOM     13  C   UNL     1      -5.540   2.650 132.014  0.00  0.00    +0.000 C 
ATOM     14  C   UNL     1      -6.152   1.661 131.002  0.00  0.00    +0.000 C 
ATOM     15  N   UNL     1      -5.325   0.447 130.805  0.00  0.00    +0.000 N 
ATOM     16  C   UNL     1      -5.007  -0.372 131.778  0.00  0.00    +0.000 C 
ATOM     17  O   UNL     1      -4.186  -1.275 131.605  0.00  0.00    +0.000 OA
ATOM     18  C   UNL     1      -5.839   0.088 133.107  0.00  0.00    +0.000 C 
ATOM     19  N   UNL     1      -7.189  -1.079 133.591  0.00  0.00    +0.000 N 
ATOM     20  C   UNL     1      -6.508  -2.159 134.839  0.00  0.00    +0.000 C 
ATOM     21  O   UNL     1      -7.676  -2.826 135.200  0.00  0.00    +0.000 OA
ATOM     22  C   UNL     1      -4.469  -2.976 134.212  0.00  0.00    +0.000 C 
ATOM     23  N   UNL     1      -3.465  -3.421 135.148  0.00  0.00    +0.000 N 
ATOM     24  C   UNL     1      -3.903  -3.552 136.432  0.00  0.00    +0.000 C 
ATOM     25  O   UNL     1      -3.901  -4.720 136.852  0.00  0.00    +0.000 OA
ATOM     26  H   UNL     1      -3.495   0.170 139.278  0.00  0.00    +0.000 HD
ATOM     27  H   UNL     1      -5.622   5.354 139.181  0.00  0.00    +0.000 HD
ATOM     28  H   UNL     1      -4.898   0.145 129.932  0.00  0.00    +0.000 HD
ATOM     29  H   UNL     1      -7.928  -0.809 134.166  0.00  0.00    +0.000 HD
ATOM     30  H   UNL     1      -2.928  -2.636 135.365  0.00  0.00    +0.000 HD
ENDROOT
BRANCH  14  31
ATOM     31  C   UNL     1      -6.230   2.324 129.654  0.00  0.00    +0.000 C 
ATOM     32  O   UNL     1      -7.281   2.065 129.070  0.00  0.00    +0.000 OA
ATOM     33  N   UNL     1      -5.220   3.235 129.303  0.00  0.00    +0.000 N 
ATOM     34  C   UNL     1      -3.780   3.077 129.411  0.00  0.00    +0.000 C 
ATOM     35  C   UNL     1      -3.294   4.469 129.693  0.00  0.00    +0.000 C 
ATOM     36  C   UNL     1      -4.090   5.283 128.723  0.00  0.00    +0.000 C 
ATOM     37  C   UNL     1      -5.400   4.521 128.568  0.00  0.00    +0.000 C 
BRANCH  37  38
ATOM     38  C   UNL     1      -5.318   4.375 127.015  0.00  0.00    +0.000 C 
ATOM     39  O   UNL     1      -4.199   4.161 126.517  0.00  0.00    +0.000 OA
ATOM     40  N   UNL     1      -6.571   4.081 126.352  0.00  0.00    +0.000 N 
ATOM     41  C   UNL     1      -7.833   4.535 126.900  0.00  0.00    +0.000 C 
BRANCH  40  42
ATOM     42  C   UNL     1      -6.607   3.382 125.016  0.00  0.00    +0.000 C 
BRANCH  42  43
ATOM     43  C   UNL     1      -6.581   1.812 125.157  0.00  0.00    +0.000 C 
ATOM     44  O   UNL     1      -5.620   1.193 125.611  0.00  0.00    +0.000 OA
ATOM     45  N   UNL     1      -7.675   1.089 124.768  0.00  0.00    +0.000 N 
ATOM     46  C   UNL     1      -8.829   1.735 124.250  0.00  0.00    +0.000 C 
BRANCH  45  47
ATOM     47  C   UNL     1      -7.674  -0.387 124.892  0.00  0.00    +0.000 C 
BRANCH  47  48
ATOM     48  C   UNL     1      -8.186  -0.964 126.244  0.00  0.00    +0.000 C 
ATOM     49  N   UNL     1      -7.825  -0.404 127.441  0.00  0.00    +0.000 N 
ATOM     50  O   UNL     1      -8.932  -1.938 126.282  0.00  0.00    +0.000 OA
ATOM     51  H   UNL     1      -7.248   0.368 127.641  0.00  0.00    +0.000 HD
ATOM     52  H   UNL     1      -8.093  -0.693 128.353  0.00  0.00    +0.000 HD
ENDBRANCH  47  48
ENDBRANCH  45  47
ENDBRANCH  42  43
BRANCH  42  53
ATOM     53  C   UNL     1      -5.446   3.806 124.068  0.00  0.00    +0.000 C 
BRANCH  53  54
ATOM     54  C   UNL     1      -5.891   4.163 122.674  0.00  0.00    +0.000 C 
ATOM     55  C   UNL     1      -4.733   4.569 121.868  0.00  0.00    +0.000 C 
ATOM     56  C   UNL     1      -6.247   3.007 121.827  0.00  0.00    +0.000 C 
ENDBRANCH  53  54
ENDBRANCH  42  53
ENDBRANCH  40  42
ENDBRANCH  37  38
ENDBRANCH  14  31
BRANCH   9  57
ATOM     57  N   UNL     1      -3.423   2.448 138.171  0.00  0.00    +0.000 NA
ATOM     58  H   UNL     1      -4.375   2.138 138.283  0.00  0.00    +0.000 HD
ATOM     59  H   UNL     1      -3.328   3.021 139.032  0.00  0.00    +0.000 HD
ENDBRANCH   9  57
BRANCH   1  60
ATOM     60  C   UNL     1      -5.654  -3.642 135.628  0.00  0.00    +0.000 C 
ATOM     61  C   UNL     1      -6.414  -5.472 134.635  0.00  0.00    +0.000 C 
BRANCH  60  63
ATOM     62  C   UNL     1      -7.123  -4.515 137.973  0.00  0.00    +0.000 C 
ATOM     63  C   UNL     1      -6.753  -5.205 136.194  0.00  0.00    +0.000 C 
ENDBRANCH  60  63
ENDBRANCH   1  60
BRANCH  18  64
ATOM     64  C   UNL     1      -4.422   0.254 134.341  0.00  0.00    +0.000 C 
BRANCH  64  65
ATOM     65  C   UNL     1      -3.123   0.413 133.675  0.00  0.00    +0.000 C 
ATOM     66  N   UNL     1      -2.226  -0.562 133.848  0.00  0.00    +0.000 N 
ATOM     67  O   UNL     1      -2.917   1.338 132.911  0.00  0.00    +0.000 OA
ATOM     68  H   UNL     1      -2.513  -1.369 134.348  0.00  0.00    +0.000 HD
ATOM     69  H   UNL     1      -1.593  -0.819 133.105  0.00  0.00    +0.000 HD
ENDBRANCH  64  65
ENDBRANCH  18  64
BRANCH   5  70
ATOM     70  C   UNL     1      -5.859   2.277 140.078  0.00  0.00    +0.000 C 
BRANCH  70  71
ATOM     71  C   UNL     1      -6.623   3.003 141.158  0.00  0.00    +0.000 A 
ATOM     72  C   UNL     1      -6.056   3.796 142.195  0.00  0.00    +0.000 A 
ATOM     73  C   UNL     1      -6.868   4.385 143.137  0.00  0.00    +0.000 A 
ATOM     74  C   UNL     1      -8.216   4.099 143.099  0.00  0.00    +0.000 A 
ATOM     75  C   UNL     1      -8.726   3.162 142.214  0.00  0.00    +0.000 A 
ATOM     76  C   UNL     1      -7.930   2.588 141.268  0.00  0.00    +0.000 A 
BRANCH  74  77
ATOM     77  O   UNL     1      -9.132   4.695 143.905  0.00  0.00    +0.000 OA
ATOM     78  H   UNL     1      -9.189   5.651 143.759  0.00  0.00    +0.000 HD
ENDBRANCH  74  77
ENDBRANCH  70  71
ENDBRANCH   5  70
BRANCH  22  79
ATOM     79  C   UNL     1      -4.282  -3.990 132.718  0.00  0.00    +0.000 C 
BRANCH  79  80
ATOM     80  C   UNL     1      -5.386  -4.617 131.968  0.00  0.00    +0.000 C 
BRANCH  80  81
ATOM     81  C   UNL     1      -5.348  -4.125 130.518  0.00  0.00    +0.000 C 
ATOM     82  N   UNL     1      -4.151  -3.761 129.925  0.00  0.00    +0.000 N 
ATOM     83  O   UNL     1      -6.402  -4.053 129.890  0.00  0.00    +0.000 OA
ATOM     84  H   UNL     1      -3.235  -3.778 130.360  0.00  0.00    +0.000 HD
ATOM     85  H   UNL     1      -4.118  -3.467 128.958  0.00  0.00    +0.000 HD
ENDBRANCH  80  81
ENDBRANCH  79  80
ENDBRANCH  22  79
TORSDOF 19
ENDMDL
MODEL 7
REMARK VINA RESULT:      -9.1      4.016     10.689
REMARK  Name = CHEMBL3813722
REMARK  25 active torsions:
REMARK  status: ('A' for Active; 'I' for Inactive)
REMARK    1  A    between atoms: C_1  and  C_2
REMARK    2  A    between atoms: C_2  and  C_3
REMARK    3  A    between atoms: C_3  and  C_4
REMARK    4  A    between atoms: C_3  and  C_5
REMARK    5  A    between atoms: C_9  and  C_10
REMARK    6  A    between atoms: C_10  and  C_11
REMARK    7  A    between atoms: C_14  and  O_15
REMARK    8  A    between atoms: C_21  and  N_22
REMARK    9  A    between atoms: C_27  and  C_28
REMARK   10  A    between atoms: C_34  and  C_35
REMARK   11  A    between atoms: N_37  and  C_38
REMARK   12  A    between atoms: N_37  and  C_39
REMARK   13  A    between atoms: C_39  and  C_40
REMARK   14  A    between atoms: C_39  and  C_44
REMARK   15  A    between atoms: C_40  and  C_41
REMARK   16  A    between atoms: C_41  and  C_42
REMARK   17  A    between atoms: C_41  and  C_43
REMARK   18  A    between atoms: N_46  and  C_47
REMARK   19  A    between atoms: N_46  and  C_48
REMARK   20  A    between atoms: C_48  and  C_49
REMARK   21  A    between atoms: C_55  and  C_56
REMARK   22  A    between atoms: C_56  and  C_57
REMARK   23  A    between atoms: C_63  and  C_64
REMARK   24  A    between atoms: C_64  and  C_65
REMARK   25  A    between atoms: C_65  and  C_66
REMARK                            x       y       z     vdW  Elec       q    Type
REMARK                         _______ _______ _______ _____ _____    ______ ____
ROOT
ATOM      1  C   UNL     1      -5.304   0.659 129.984  0.00  0.00    +0.000 C 
ATOM      2  N   UNL     1      -4.570  -1.230 131.177  0.00  0.00    +0.000 N 
ATOM      3  C   UNL     1      -4.064  -2.814 132.223  0.00  0.00    +0.000 C 
ATOM      4  O   UNL     1      -2.771  -3.487 132.726  0.00  0.00    +0.000 OA
ATOM      5  C   UNL     1      -4.563  -3.775 134.065  0.00  0.00    +0.000 C 
ATOM      6  N   UNL     1      -4.597  -3.180 135.594  0.00  0.00    +0.000 N 
ATOM      7  C   UNL     1      -4.116  -1.928 135.844  0.00  0.00    +0.000 C 
ATOM      8  O   UNL     1      -4.251  -1.353 136.915  0.00  0.00    +0.000 OA
ATOM      9  C   UNL     1      -3.427  -1.095 134.804  0.00  0.00    +0.000 C 
ATOM     10  C   UNL     1      -4.252  -0.096 134.085  0.00  0.00    +0.000 C 
ATOM     11  S   UNL     1      -4.087   1.000 135.510  0.00  0.00    +0.000 S 
ATOM     12  S   UNL     1      -5.578   2.264 135.420  0.00  0.00    +0.000 S 
ATOM     13  C   UNL     1      -5.201   4.026 135.925  0.00  0.00    +0.000 C 
ATOM     14  C   UNL     1      -5.933   5.262 135.364  0.00  0.00    +0.000 C 
ATOM     15  N   UNL     1      -5.296   5.809 134.143  0.00  0.00    +0.000 N 
ATOM     16  C   UNL     1      -5.127   5.113 133.046  0.00  0.00    +0.000 C 
ATOM     17  O   UNL     1      -4.449   5.549 132.114  0.00  0.00    +0.000 OA
ATOM     18  C   UNL     1      -5.909   3.689 133.235  0.00  0.00    +0.000 C 
ATOM     19  N   UNL     1      -7.431   3.524 132.198  0.00  0.00    +0.000 N 
ATOM     20  C   UNL     1      -6.949   2.644 130.721  0.00  0.00    +0.000 C 
ATOM     21  O   UNL     1      -8.212   2.459 130.165  0.00  0.00    +0.000 OA
ATOM     22  C   UNL     1      -5.045   3.519 129.813  0.00  0.00    +0.000 C 
ATOM     23  N   UNL     1      -4.140   2.767 128.977  0.00  0.00    +0.000 N 
ATOM     24  C   UNL     1      -4.621   1.562 128.558  0.00  0.00    +0.000 C 
ATOM     25  O   UNL     1      -4.805   1.487 127.333  0.00  0.00    +0.000 OA
ATOM     26  H   UNL     1      -3.717  -2.204 131.226  0.00  0.00    +0.000 HD
ATOM     27  H   UNL     1      -5.031  -3.612 136.489  0.00  0.00    +0.000 HD
ATOM     28  H   UNL     1      -4.901   6.741 134.038  0.00  0.00    +0.000 HD
ATOM     29  H   UNL     1      -8.133   2.880 132.405  0.00  0.00    +0.000 HD
ATOM     30  H   UNL     1      -3.495   2.350 129.578  0.00  0.00    +0.000 HD
ENDROOT
BRANCH  14  31
ATOM     31  C   UNL     1      -5.880   6.367 136.382  0.00  0.00    +0.000 C 
ATOM     32  O   UNL     1      -6.996   6.654 136.813  0.00  0.00    +0.000 OA
ATOM     33  N   UNL     1      -4.620   6.811 136.814  0.00  0.00    +0.000 N 
ATOM     34  C   UNL     1      -3.461   7.166 136.013  0.00  0.00    +0.000 C 
ATOM     35  C   UNL     1      -2.300   6.770 136.879  0.00  0.00    +0.000 C 
ATOM     36  C   UNL     1      -2.720   7.281 138.220  0.00  0.00    +0.000 C 
ATOM     37  C   UNL     1      -4.241   7.191 138.207  0.00  0.00    +0.000 C 
BRANCH  37  38
ATOM     38  C   UNL     1      -4.493   8.696 138.540  0.00  0.00    +0.000 C 
ATOM     39  O   UNL     1      -4.167   9.536 137.684  0.00  0.00    +0.000 OA
ATOM     40  N   UNL     1      -5.449   8.946 139.598  0.00  0.00    +0.000 N 
ATOM     41  C   UNL     1      -5.637   7.996 140.677  0.00  0.00    +0.000 C 
BRANCH  40  42
ATOM     42  C   UNL     1      -6.211  10.245 139.677  0.00  0.00    +0.000 C 
BRANCH  42  43
ATOM     43  C   UNL     1      -7.483  10.253 138.747  0.00  0.00    +0.000 C 
ATOM     44  O   UNL     1      -7.420  10.191 137.520  0.00  0.00    +0.000 OA
ATOM     45  N   UNL     1      -8.725  10.326 139.315  0.00  0.00    +0.000 N 
ATOM     46  C   UNL     1      -8.878  10.383 140.726  0.00  0.00    +0.000 C 
BRANCH  45  47
ATOM     47  C   UNL     1      -9.935  10.335 138.460  0.00  0.00    +0.000 C 
BRANCH  47  48
ATOM     48  C   UNL     1     -10.409   8.952 137.925  0.00  0.00    +0.000 C 
ATOM     49  N   UNL     1      -9.524   7.929 137.710  0.00  0.00    +0.000 N 
ATOM     50  O   UNL     1     -11.592   8.734 137.680  0.00  0.00    +0.000 OA
ATOM     51  H   UNL     1      -8.549   7.886 137.838  0.00  0.00    +0.000 HD
ATOM     52  H   UNL     1      -9.722   7.016 137.372  0.00  0.00    +0.000 HD
ENDBRANCH  47  48
ENDBRANCH  45  47
ENDBRANCH  42  43
BRANCH  42  53
ATOM     53  C   UNL     1      -5.343  11.490 139.329  0.00  0.00    +0.000 C 
BRANCH  53  54
ATOM     54  C   UNL     1      -6.050  12.806 139.521  0.00  0.00    +0.000 C 
ATOM     55  C   UNL     1      -6.329  13.021 140.947  0.00  0.00    +0.000 C 
ATOM     56  C   UNL     1      -5.189  13.995 139.371  0.00  0.00    +0.000 C 
ENDBRANCH  53  54
ENDBRANCH  42  53
ENDBRANCH  40  42
ENDBRANCH  37  38
ENDBRANCH  14  31
BRANCH   9  57
ATOM     57  N   UNL     1      -3.276  -1.780 133.685  0.00  0.00    +0.000 NA
ATOM     58  H   UNL     1      -3.560  -2.650 134.106  0.00  0.00    +0.000 HD
ATOM     59  H   UNL     1      -2.258  -1.959 133.593  0.00  0.00    +0.000 HD
ENDBRANCH   9  57
BRANCH   1  60
ATOM     60  C   UNL     1      -6.347   2.321 128.965  0.00  0.00    +0.000 C 
ATOM     61  C   UNL     1      -7.339   3.779 127.621  0.00  0.00    +0.000 C 
BRANCH  60  63
ATOM     62  C   UNL     1      -7.947   0.290 127.647  0.00  0.00    +0.000 C 
ATOM     63  C   UNL     1      -7.632   2.197 127.446  0.00  0.00    +0.000 C 
ENDBRANCH  60  63
ENDBRANCH   1  60
BRANCH  18  64
ATOM     64  C   UNL     1      -4.511   2.490 132.831  0.00  0.00    +0.000 C 
BRANCH  64  65
ATOM     65  C   UNL     1      -3.221   3.174 132.674  0.00  0.00    +0.000 C 
ATOM     66  N   UNL     1      -2.550   3.472 133.790  0.00  0.00    +0.000 N 
ATOM     67  O   UNL     1      -2.738   3.361 131.573  0.00  0.00    +0.000 OA
ATOM     68  H   UNL     1      -2.919   3.146 134.651  0.00  0.00    +0.000 HD
ATOM     69  H   UNL     1      -1.542   3.440 133.810  0.00  0.00    +0.000 HD
ENDBRANCH  64  65
ENDBRANCH  18  64
BRANCH   5  70
ATOM     70  C   UNL     1      -5.752  -3.615 133.357  0.00  0.00    +0.000 C 
BRANCH  70  71
ATOM     71  C   UNL     1      -6.632  -4.360 134.329  0.00  0.00    +0.000 A 
ATOM     72  C   UNL     1      -6.436  -5.695 134.781  0.00  0.00    +0.000 A 
ATOM     73  C   UNL     1      -7.332  -6.268 135.654  0.00  0.00    +0.000 A 
ATOM     74  C   UNL     1      -8.462  -5.549 135.986  0.00  0.00    +0.000 A 
ATOM     75  C   UNL     1      -8.745  -4.337 135.377  0.00  0.00    +0.000 A 
ATOM     76  C   UNL     1      -7.853  -3.756 134.525  0.00  0.00    +0.000 A 
BRANCH  74  77
ATOM     77  O   UNL     1      -9.366  -5.960 136.911  0.00  0.00    +0.000 OA
ATOM     78  H   UNL     1      -8.956  -6.450 137.639  0.00  0.00    +0.000 HD
ENDBRANCH  74  77
ENDBRANCH  70  71
ENDBRANCH   5  70
BRANCH  22  79
ATOM     79  C   UNL     1      -4.980   5.241 129.243  0.00  0.00    +0.000 C 
BRANCH  79  80
ATOM     80  C   UNL     1      -4.128   5.747 128.151  0.00  0.00    +0.000 C 
BRANCH  80  81
ATOM     81  C   UNL     1      -2.823   6.289 128.744  0.00  0.00    +0.000 C 
ATOM     82  N   UNL     1      -2.468   6.003 130.051  0.00  0.00    +0.000 N 
ATOM     83  O   UNL     1      -2.100   6.989 128.038  0.00  0.00    +0.000 OA
ATOM     84  H   UNL     1      -2.998   5.445 130.710  0.00  0.00    +0.000 HD
ATOM     85  H   UNL     1      -1.593   6.333 130.434  0.00  0.00    +0.000 HD
ENDBRANCH  80  81
ENDBRANCH  79  80
ENDBRANCH  22  79
TORSDOF 19
ENDMDL
MODEL 8
REMARK VINA RESULT:      -8.6      4.913     10.476
REMARK  Name = CHEMBL3813722
REMARK  25 active torsions:
REMARK  status: ('A' for Active; 'I' for Inactive)
REMARK    1  A    between atoms: C_1  and  C_2
REMARK    2  A    between atoms: C_2  and  C_3
REMARK    3  A    between atoms: C_3  and  C_4
REMARK    4  A    between atoms: C_3  and  C_5
REMARK    5  A    between atoms: C_9  and  C_10
REMARK    6  A    between atoms: C_10  and  C_11
REMARK    7  A    between atoms: C_14  and  O_15
REMARK    8  A    between atoms: C_21  and  N_22
REMARK    9  A    between atoms: C_27  and  C_28
REMARK   10  A    between atoms: C_34  and  C_35
REMARK   11  A    between atoms: N_37  and  C_38
REMARK   12  A    between atoms: N_37  and  C_39
REMARK   13  A    between atoms: C_39  and  C_40
REMARK   14  A    between atoms: C_39  and  C_44
REMARK   15  A    between atoms: C_40  and  C_41
REMARK   16  A    between atoms: C_41  and  C_42
REMARK   17  A    between atoms: C_41  and  C_43
REMARK   18  A    between atoms: N_46  and  C_47
REMARK   19  A    between atoms: N_46  and  C_48
REMARK   20  A    between atoms: C_48  and  C_49
REMARK   21  A    between atoms: C_55  and  C_56
REMARK   22  A    between atoms: C_56  and  C_57
REMARK   23  A    between atoms: C_63  and  C_64
REMARK   24  A    between atoms: C_64  and  C_65
REMARK   25  A    between atoms: C_65  and  C_66
REMARK                            x       y       z     vdW  Elec       q    Type
REMARK                         _______ _______ _______ _____ _____    ______ ____
ROOT
ATOM      1  C   UNL     1      -6.568  -0.313 126.650  0.00  0.00    +0.000 C 
ATOM      2  N   UNL     1      -5.488  -2.055 127.801  0.00  0.00    +0.000 N 
ATOM      3  C   UNL     1      -4.666  -3.501 128.847  0.00  0.00    +0.000 C 
ATOM      4  O   UNL     1      -3.294  -4.195 128.958  0.00  0.00    +0.000 OA
ATOM      5  C   UNL     1      -4.474  -4.132 130.879  0.00  0.00    +0.000 C 
ATOM      6  N   UNL     1      -3.931  -3.314 132.194  0.00  0.00    +0.000 N 
ATOM      7  C   UNL     1      -3.364  -2.082 132.039  0.00  0.00    +0.000 C 
ATOM      8  O   UNL     1      -3.084  -1.344 132.974  0.00  0.00    +0.000 OA
ATOM      9  C   UNL     1      -3.088  -1.473 130.696  0.00  0.00    +0.000 C 
ATOM     10  C   UNL     1      -4.099  -0.529 130.164  0.00  0.00    +0.000 C 
ATOM     11  S   UNL     1      -3.397   0.751 131.227  0.00  0.00    +0.000 S 
ATOM     12  S   UNL     1      -4.789   2.105 131.466  0.00  0.00    +0.000 S 
ATOM     13  C   UNL     1      -4.216   3.886 131.496  0.00  0.00    +0.000 C 
ATOM     14  C   UNL     1      -5.076   5.079 131.035  0.00  0.00    +0.000 C 
ATOM     15  N   UNL     1      -4.921   5.384 129.593  0.00  0.00    +0.000 N 
ATOM     16  C   UNL     1      -5.183   4.520 128.643  0.00  0.00    +0.000 C 
ATOM     17  O   UNL     1      -4.886   4.755 127.471  0.00  0.00    +0.000 OA
ATOM     18  C   UNL     1      -5.870   3.210 129.338  0.00  0.00    +0.000 C 
ATOM     19  N   UNL     1      -7.670   3.016 128.961  0.00  0.00    +0.000 N 
ATOM     20  C   UNL     1      -7.784   1.889 127.582  0.00  0.00    +0.000 C 
ATOM     21  O   UNL     1      -9.167   1.727 127.556  0.00  0.00    +0.000 OA
ATOM     22  C   UNL     1      -6.329   2.459 125.916  0.00  0.00    +0.000 C 
ATOM     23  N   UNL     1      -5.811   1.519 124.951  0.00  0.00    +0.000 N 
ATOM     24  C   UNL     1      -6.439   0.309 124.943  0.00  0.00    +0.000 C 
ATOM     25  O   UNL     1      -7.062   0.067 123.898  0.00  0.00    +0.000 OA
ATOM     26  H   UNL     1      -4.698  -3.078 127.704  0.00  0.00    +0.000 HD
ATOM     27  H   UNL     1      -4.014  -3.570 133.244  0.00  0.00    +0.000 HD
ATOM     28  H   UNL     1      -4.572   6.254 129.196  0.00  0.00    +0.000 HD
ATOM     29  H   UNL     1      -8.261   2.470 129.512  0.00  0.00    +0.000 HD
ATOM     30  H   UNL     1      -5.000   1.145 125.341  0.00  0.00    +0.000 HD
ENDROOT
BRANCH  14  31
ATOM     31  C   UNL     1      -4.628   6.317 131.764  0.00  0.00    +0.000 C 
ATOM     32  O   UNL     1      -5.552   7.110 131.940  0.00  0.00    +0.000 OA
ATOM     33  N   UNL     1      -3.318   6.352 132.267  0.00  0.00    +0.000 N 
ATOM     34  C   UNL     1      -2.079   6.009 131.591  0.00  0.00    +0.000 C 
ATOM     35  C   UNL     1      -1.219   5.458 132.693  0.00  0.00    +0.000 C 
ATOM     36  C   UNL     1      -1.459   6.437 133.798  0.00  0.00    +0.000 C 
ATOM     37  C   UNL     1      -2.883   6.927 133.574  0.00  0.00    +0.000 C 
BRANCH  37  38
ATOM     38  C   UNL     1      -2.521   8.445 133.504  0.00  0.00    +0.000 C 
ATOM     39  O   UNL     1      -2.685   9.025 132.417  0.00  0.00    +0.000 OA
ATOM     40  N   UNL     1      -2.439   9.123 134.781  0.00  0.00    +0.000 N 
ATOM     41  C   UNL     1      -2.051   8.412 135.983  0.00  0.00    +0.000 C 
BRANCH  40  42
ATOM     42  C   UNL     1      -2.653  10.611 134.894  0.00  0.00    +0.000 C 
BRANCH  42  43
ATOM     43  C   UNL     1      -1.383  11.437 134.463  0.00  0.00    +0.000 C 
ATOM     44  O   UNL     1      -0.231  11.074 134.698  0.00  0.00    +0.000 OA
ATOM     45  N   UNL     1      -1.550  12.614 133.785  0.00  0.00    +0.000 N 
ATOM     46  C   UNL     1      -2.849  13.090 133.462  0.00  0.00    +0.000 C 
BRANCH  45  47
ATOM     47  C   UNL     1      -0.370  13.407 133.369  0.00  0.00    +0.000 C 
BRANCH  47  48
ATOM     48  C   UNL     1       0.299  12.990 132.027  0.00  0.00    +0.000 C 
ATOM     49  N   UNL     1      -0.380  13.059 130.839  0.00  0.00    +0.000 N 
ATOM     50  O   UNL     1       1.458  12.587 131.989  0.00  0.00    +0.000 OA
ATOM     51  H   UNL     1      -1.300  13.349 130.641  0.00  0.00    +0.000 HD
ATOM     52  H   UNL     1      -0.048  12.818 129.934  0.00  0.00    +0.000 HD
ENDBRANCH  47  48
ENDBRANCH  45  47
ENDBRANCH  42  43
BRANCH  42  53
ATOM     53  C   UNL     1      -3.068  11.066 136.325  0.00  0.00    +0.000 C 
BRANCH  53  54
ATOM     54  C   UNL     1      -2.025  11.888 137.036  0.00  0.00    +0.000 C 
ATOM     55  C   UNL     1      -2.644  13.083 137.624  0.00  0.00    +0.000 C 
ATOM     56  C   UNL     1      -1.570  11.324 138.322  0.00  0.00    +0.000 C 
ENDBRANCH  53  54
ENDBRANCH  42  53
ENDBRANCH  40  42
ENDBRANCH  37  38
ENDBRANCH  14  31
BRANCH   9  57
ATOM     57  N   UNL     1      -3.375  -2.328 129.731  0.00  0.00    +0.000 NA
ATOM     58  H   UNL     1      -2.407  -2.544 129.550  0.00  0.00    +0.000 HD
ATOM     59  H   UNL     1      -3.582  -1.754 128.891  0.00  0.00    +0.000 HD
ENDBRANCH   9  57
BRANCH   1  60
ATOM     60  C   UNL     1      -7.877   1.259 125.808  0.00  0.00    +0.000 C 
ATOM     61  C   UNL     1      -9.271   2.571 124.690  0.00  0.00    +0.000 C 
BRANCH  60  63
ATOM     62  C   UNL     1      -9.845  -0.845 125.453  0.00  0.00    +0.000 C 
ATOM     63  C   UNL     1      -9.653   1.019 124.935  0.00  0.00    +0.000 C 
ENDBRANCH  60  63
ENDBRANCH   1  60
BRANCH  18  64
ATOM     64  C   UNL     1      -4.745   1.853 128.668  0.00  0.00    +0.000 C 
BRANCH  64  65
ATOM     65  C   UNL     1      -3.650   2.393 127.853  0.00  0.00    +0.000 C 
ATOM     66  N   UNL     1      -2.664   3.023 128.497  0.00  0.00    +0.000 N 
ATOM     67  O   UNL     1      -3.592   2.179 126.656  0.00  0.00    +0.000 OA
ATOM     68  H   UNL     1      -2.686   3.021 129.489  0.00  0.00    +0.000 HD
ATOM     69  H   UNL     1      -1.711   2.960 128.171  0.00  0.00    +0.000 HD
ENDBRANCH  64  65
ENDBRANCH  18  64
BRANCH   5  70
ATOM     70  C   UNL     1      -5.836  -3.982 130.629  0.00  0.00    +0.000 C 
BRANCH  70  71
ATOM     71  C   UNL     1      -6.283  -4.054 132.068  0.00  0.00    +0.000 A 
ATOM     72  C   UNL     1      -5.967  -5.088 132.992  0.00  0.00    +0.000 A 
ATOM     73  C   UNL     1      -6.463  -5.046 134.275  0.00  0.00    +0.000 A 
ATOM     74  C   UNL     1      -7.345  -4.035 134.594  0.00  0.00    +0.000 A 
ATOM     75  C   UNL     1      -7.807  -3.155 133.628  0.00  0.00    +0.000 A 
ATOM     76  C   UNL     1      -7.307  -3.182 132.360  0.00  0.00    +0.000 A 
BRANCH  74  77
ATOM     77  O   UNL     1      -7.822  -3.824 135.847  0.00  0.00    +0.000 OA
ATOM     78  H   UNL     1      -8.502  -3.134 135.875  0.00  0.00    +0.000 HD
ENDBRANCH  74  77
ENDBRANCH  70  71
ENDBRANCH   5  70
BRANCH  22  79
ATOM     79  C   UNL     1      -6.441   4.066 125.078  0.00  0.00    +0.000 C 
BRANCH  79  80
ATOM     80  C   UNL     1      -5.414   4.637 124.188  0.00  0.00    +0.000 C 
BRANCH  80  81
ATOM     81  C   UNL     1      -5.706   4.208 122.747  0.00  0.00    +0.000 C 
ATOM     82  N   UNL     1      -6.953   3.724 122.392  0.00  0.00    +0.000 N 
ATOM     83  O   UNL     1      -4.809   4.297 121.911  0.00  0.00    +0.000 OA
ATOM     84  H   UNL     1      -7.750   3.606 123.007  0.00  0.00    +0.000 HD
ATOM     85  H   UNL     1      -7.159   3.471 121.435  0.00  0.00    +0.000 HD
ENDBRANCH  80  81
ENDBRANCH  79  80
ENDBRANCH  22  79
TORSDOF 19
ENDMDL
MODEL 9
REMARK VINA RESULT:      -8.5      5.531     10.952
REMARK  Name = CHEMBL3813722
REMARK  25 active torsions:
REMARK  status: ('A' for Active; 'I' for Inactive)
REMARK    1  A    between atoms: C_1  and  C_2
REMARK    2  A    between atoms: C_2  and  C_3
REMARK    3  A    between atoms: C_3  and  C_4
REMARK    4  A    between atoms: C_3  and  C_5
REMARK    5  A    between atoms: C_9  and  C_10
REMARK    6  A    between atoms: C_10  and  C_11
REMARK    7  A    between atoms: C_14  and  O_15
REMARK    8  A    between atoms: C_21  and  N_22
REMARK    9  A    between atoms: C_27  and  C_28
REMARK   10  A    between atoms: C_34  and  C_35
REMARK   11  A    between atoms: N_37  and  C_38
REMARK   12  A    between atoms: N_37  and  C_39
REMARK   13  A    between atoms: C_39  and  C_40
REMARK   14  A    between atoms: C_39  and  C_44
REMARK   15  A    between atoms: C_40  and  C_41
REMARK   16  A    between atoms: C_41  and  C_42
REMARK   17  A    between atoms: C_41  and  C_43
REMARK   18  A    between atoms: N_46  and  C_47
REMARK   19  A    between atoms: N_46  and  C_48
REMARK   20  A    between atoms: C_48  and  C_49
REMARK   21  A    between atoms: C_55  and  C_56
REMARK   22  A    between atoms: C_56  and  C_57
REMARK   23  A    between atoms: C_63  and  C_64
REMARK   24  A    between atoms: C_64  and  C_65
REMARK   25  A    between atoms: C_65  and  C_66
REMARK                            x       y       z     vdW  Elec       q    Type
REMARK                         _______ _______ _______ _____ _____    ______ ____
ROOT
ATOM      1  C   UNL     1      -6.671  -0.156 126.773  0.00  0.00    +0.000 C 
ATOM      2  N   UNL     1      -5.744  -1.815 128.157  0.00  0.00    +0.000 N 
ATOM      3  C   UNL     1      -5.050  -3.174 129.395  0.00  0.00    +0.000 C 
ATOM      4  O   UNL     1      -3.739  -3.953 129.620  0.00  0.00    +0.000 OA
ATOM      5  C   UNL     1      -4.928  -3.552 131.494  0.00  0.00    +0.000 C 
ATOM      6  N   UNL     1      -4.334  -2.618 132.705  0.00  0.00    +0.000 N 
ATOM      7  C   UNL     1      -3.669  -1.464 132.406  0.00  0.00    +0.000 C 
ATOM      8  O   UNL     1      -3.340  -0.636 133.244  0.00  0.00    +0.000 OA
ATOM      9  C   UNL     1      -3.333  -1.055 131.002  0.00  0.00    +0.000 C 
ATOM     10  C   UNL     1      -4.260  -0.112 130.334  0.00  0.00    +0.000 C 
ATOM     11  S   UNL     1      -3.469   1.235 131.240  0.00  0.00    +0.000 S 
ATOM     12  S   UNL     1      -4.750   2.714 131.277  0.00  0.00    +0.000 S 
ATOM     13  C   UNL     1      -4.037   4.433 131.092  0.00  0.00    +0.000 C 
ATOM     14  C   UNL     1      -4.795   5.621 130.466  0.00  0.00    +0.000 C 
ATOM     15  N   UNL     1      -4.602   5.725 129.000  0.00  0.00    +0.000 N 
ATOM     16  C   UNL     1      -4.923   4.769 128.163  0.00  0.00    +0.000 C 
ATOM     17  O   UNL     1      -4.597   4.829 126.976  0.00  0.00    +0.000 OA
ATOM     18  C   UNL     1      -5.719   3.617 129.006  0.00  0.00    +0.000 C 
ATOM     19  N   UNL     1      -7.525   3.517 128.621  0.00  0.00    +0.000 N 
ATOM     20  C   UNL     1      -7.716   2.235 127.394  0.00  0.00    +0.000 C 
ATOM     21  O   UNL     1      -9.107   2.179 127.362  0.00  0.00    +0.000 OA
ATOM     22  C   UNL     1      -6.204   2.471 125.698  0.00  0.00    +0.000 C 
ATOM     23  N   UNL     1      -5.754   1.378 124.870  0.00  0.00    +0.000 N 
ATOM     24  C   UNL     1      -6.476   0.229 125.005  0.00  0.00    +0.000 C 
ATOM     25  O   UNL     1      -7.107  -0.095 123.986  0.00  0.00    +0.000 OA
ATOM     26  H   UNL     1      -5.037  -2.900 128.207  0.00  0.00    +0.000 HD
ATOM     27  H   UNL     1      -4.447  -2.730 133.777  0.00  0.00    +0.000 HD
ATOM     28  H   UNL     1      -4.181   6.507 128.503  0.00  0.00    +0.000 HD
ATOM     29  H   UNL     1      -8.163   3.095 129.225  0.00  0.00    +0.000 HD
ATOM     30  H   UNL     1      -4.979   0.996 125.321  0.00  0.00    +0.000 HD
ENDROOT
BRANCH  14  31
ATOM     31  C   UNL     1      -4.257   6.903 131.040  0.00  0.00    +0.000 C 
ATOM     32  O   UNL     1      -5.098   7.801 131.038  0.00  0.00    +0.000 OA
ATOM     33  N   UNL     1      -2.979   6.884 131.622  0.00  0.00    +0.000 N 
ATOM     34  C   UNL     1      -1.749   6.325 131.089  0.00  0.00    +0.000 C 
ATOM     35  C   UNL     1      -1.014   5.862 132.314  0.00  0.00    +0.000 C 
ATOM     36  C   UNL     1      -1.206   7.012 133.249  0.00  0.00    +0.000 C 
ATOM     37  C   UNL     1      -2.556   7.602 132.861  0.00  0.00    +0.000 C 
BRANCH  37  38
ATOM     38  C   UNL     1      -2.030   9.050 132.601  0.00  0.00    +0.000 C 
ATOM     39  O   UNL     1      -2.624   9.732 131.748  0.00  0.00    +0.000 OA
ATOM     40  N   UNL     1      -1.196   9.604 133.646  0.00  0.00    +0.000 N 
ATOM     41  C   UNL     1      -0.376   8.750 134.482  0.00  0.00    +0.000 C 
BRANCH  40  42
ATOM     42  C   UNL     1      -1.068  11.094 133.840  0.00  0.00    +0.000 C 
BRANCH  42  43
ATOM     43  C   UNL     1       0.051  11.471 134.884  0.00  0.00    +0.000 C 
ATOM     44  O   UNL     1      -0.148  11.521 136.097  0.00  0.00    +0.000 OA
ATOM     45  N   UNL     1       1.313  11.752 134.437  0.00  0.00    +0.000 N 
ATOM     46  C   UNL     1       1.624  11.698 133.052  0.00  0.00    +0.000 C 
BRANCH  45  47
ATOM     47  C   UNL     1       2.382  12.108 135.399  0.00  0.00    +0.000 C 
BRANCH  47  48
ATOM     48  C   UNL     1       2.355  13.565 135.946  0.00  0.00    +0.000 C 
ATOM     49  N   UNL     1       2.113  14.632 135.123  0.00  0.00    +0.000 N 
ATOM     50  O   UNL     1       2.551  13.805 137.134  0.00  0.00    +0.000 OA
ATOM     51  H   UNL     1       1.933  14.670 134.155  0.00  0.00    +0.000 HD
ATOM     52  H   UNL     1       2.075  15.594 135.369  0.00  0.00    +0.000 HD
ENDBRANCH  47  48
ENDBRANCH  45  47
ENDBRANCH  42  43
BRANCH  42  53
ATOM     53  C   UNL     1      -2.398  11.773 134.283  0.00  0.00    +0.000 C 
BRANCH  53  54
ATOM     54  C   UNL     1      -2.682  13.079 133.589  0.00  0.00    +0.000 C 
ATOM     55  C   UNL     1      -2.232  14.199 134.426  0.00  0.00    +0.000 C 
ATOM     56  C   UNL     1      -1.782  13.384 132.459  0.00  0.00    +0.000 C 
ENDBRANCH  53  54
ENDBRANCH  42  53
ENDBRANCH  40  42
ENDBRANCH  37  38
ENDBRANCH  14  31
BRANCH   9  57
ATOM     57  N   UNL     1      -3.678  -2.002 130.147  0.00  0.00    +0.000 NA
ATOM     58  H   UNL     1      -4.217  -2.509 130.831  0.00  0.00    +0.000 HD
ATOM     59  H   UNL     1      -2.857  -2.635 130.074  0.00  0.00    +0.000 HD
ENDBRANCH   9  57
BRANCH   1  60
ATOM     60  C   UNL     1      -7.842   1.392 125.713  0.00  0.00    +0.000 C 
ATOM     61  C   UNL     1      -9.116   2.655 124.410  0.00  0.00    +0.000 C 
BRANCH  60  63
ATOM     62  C   UNL     1      -9.980  -0.568 125.613  0.00  0.00    +0.000 C 
ATOM     63  C   UNL     1      -9.623   1.181 124.843  0.00  0.00    +0.000 C 
ENDBRANCH  60  63
ENDBRANCH   1  60
BRANCH  18  64
ATOM     64  C   UNL     1      -4.699   2.102 128.536  0.00  0.00    +0.000 C 
BRANCH  64  65
ATOM     65  C   UNL     1      -3.403   2.466 127.950  0.00  0.00    +0.000 C 
ATOM     66  N   UNL     1      -3.199   2.139 126.671  0.00  0.00    +0.000 N 
ATOM     67  O   UNL     1      -2.597   3.134 128.571  0.00  0.00    +0.000 OA
ATOM     68  H   UNL     1      -3.958   1.742 126.170  0.00  0.00    +0.000 HD
ATOM     69  H   UNL     1      -2.657   2.736 126.065  0.00  0.00    +0.000 HD
ENDBRANCH  64  65
ENDBRANCH  18  64
BRANCH   5  70
ATOM     70  C   UNL     1      -6.271  -3.330 131.201  0.00  0.00    +0.000 C 
BRANCH  70  71
ATOM     71  C   UNL     1      -6.814  -3.776 132.535  0.00  0.00    +0.000 A 
ATOM     72  C   UNL     1      -7.732  -3.055 133.349  0.00  0.00    +0.000 A 
ATOM     73  C   UNL     1      -8.130  -3.565 134.563  0.00  0.00    +0.000 A 
ATOM     74  C   UNL     1      -7.537  -4.732 135.000  0.00  0.00    +0.000 A 
ATOM     75  C   UNL     1      -6.495  -5.313 134.296  0.00  0.00    +0.000 A 
ATOM     76  C   UNL     1      -6.108  -4.822 133.084  0.00  0.00    +0.000 A 
BRANCH  74  77
ATOM     77  O   UNL     1      -7.915  -5.388 136.126  0.00  0.00    +0.000 OA
ATOM     78  H   UNL     1      -7.198  -5.921 136.503  0.00  0.00    +0.000 HD
ENDBRANCH  74  77
ENDBRANCH  70  71
ENDBRANCH   5  70
BRANCH  22  79
ATOM     79  C   UNL     1      -6.180   3.961 124.661  0.00  0.00    +0.000 C 
BRANCH  79  80
ATOM     80  C   UNL     1      -5.194   4.247 123.602  0.00  0.00    +0.000 C 
BRANCH  80  81
ATOM     81  C   UNL     1      -5.752   3.772 122.257  0.00  0.00    +0.000 C 
ATOM     82  N   UNL     1      -5.503   4.485 121.096  0.00  0.00    +0.000 N 
ATOM     83  O   UNL     1      -6.431   2.748 122.228  0.00  0.00    +0.000 OA
ATOM     84  H   UNL     1      -4.964   5.340 121.020  0.00  0.00    +0.000 HD
ATOM     85  H   UNL     1      -5.842   4.156 120.203  0.00  0.00    +0.000 HD
ENDBRANCH  80  81
ENDBRANCH  79  80
ENDBRANCH  22  79
TORSDOF 19
ENDMDL
