MODEL 1
REMARK VINA RESULT:      -9.6      0.000      0.000
REMARK  Name = CHEMBL456254
REMARK  13 active torsions:
REMARK  status: ('A' for Active; 'I' for Inactive)
REMARK    1  A    between atoms: C_1  and  O_2
REMARK    2  A    between atoms: O_2  and  C_3
REMARK    3  A    between atoms: C_6  and  O_7
REMARK    4  A    between atoms: O_7  and  C_8
REMARK    5  A    between atoms: C_9  and  S_10
REMARK    6  A    between atoms: S_10  and  N_13
REMARK    7  A    between atoms: N_13  and  C_14
REMARK    8  A    between atoms: N_13  and  C_28
REMARK    9  A    between atoms: C_14  and  C_15
REMARK   10  A    between atoms: C_18  and  C_19
REMARK   11  A    between atoms: C_24  and  C_25
REMARK   12  A    between atoms: C_31  and  O_32
REMARK   13  A    between atoms: O_32  and  C_33
REMARK                            x       y       z     vdW  Elec       q    Type
REMARK                         _______ _______ _______ _____ _____    ______ ____
ROOT
ATOM      1  N   UNL     1      -8.958   4.207 130.158  0.00  0.00    +0.000 N 
ENDROOT
BRANCH   1   2
ATOM      2  C   UNL     1      -8.299   3.972 131.434  0.00  0.00    +0.000 A 
ATOM      3  C   UNL     1      -8.753   3.040 132.367  0.00  0.00    +0.000 A 
ATOM      4  C   UNL     1      -8.119   2.914 133.592  0.00  0.00    +0.000 A 
ATOM      5  C   UNL     1      -6.995   3.684 133.843  0.00  0.00    +0.000 A 
ATOM      6  N   UNL     1      -6.505   4.569 132.948  0.00  0.00    +0.000 NA
ATOM      7  C   UNL     1      -7.174   4.702 131.780  0.00  0.00    +0.000 A 
BRANCH   5   8
ATOM      8  O   UNL     1      -6.267   3.615 134.998  0.00  0.00    +0.000 OA
ATOM      9  C   UNL     1      -6.365   4.748 135.852  0.00  0.00    +0.000 C 
ENDBRANCH   5   8
ENDBRANCH   1   2
BRANCH   1  10
ATOM     10  S   UNL     1     -10.513   4.909 130.427  0.00  0.00    +0.000 S 
ATOM     11  O   UNL     1     -10.420   5.418 131.785  0.00  0.00    +0.000 OA
ATOM     12  O   UNL     1     -11.470   3.895 130.043  0.00  0.00    +0.000 OA
BRANCH  10  17
ATOM     13  C   UNL     1     -10.280   7.011 127.505  0.00  0.00    +0.000 A 
ATOM     14  C   UNL     1     -11.499   7.669 127.389  0.00  0.00    +0.000 A 
ATOM     15  C   UNL     1     -12.214   8.059 128.453  0.00  0.00    +0.000 A 
ATOM     16  C   UNL     1     -12.072   7.168 129.472  0.00  0.00    +0.000 A 
ATOM     17  C   UNL     1     -10.918   6.378 129.556  0.00  0.00    +0.000 A 
ATOM     18  C   UNL     1      -9.921   6.622 128.711  0.00  0.00    +0.000 A 
BRANCH  13  20
ATOM     19  C   UNL     1      -8.121   5.094 125.758  0.00  0.00    +0.000 C 
ATOM     20  O   UNL     1      -9.593   6.045 126.616  0.00  0.00    +0.000 OA
ENDBRANCH  13  20
BRANCH  16  21
ATOM     21  O   UNL     1     -13.227   7.160 130.168  0.00  0.00    +0.000 OA
ATOM     22  C   UNL     1     -13.027   7.674 131.442  0.00  0.00    +0.000 C 
ENDBRANCH  16  21
ENDBRANCH  10  17
ENDBRANCH   1  10
BRANCH   1  23
ATOM     23  C   UNL     1      -8.279   3.496 128.990  0.00  0.00    +0.000 C 
BRANCH  23  24
ATOM     24  C   UNL     1      -8.578   2.056 128.490  0.00  0.00    +0.000 A 
ATOM     25  C   UNL     1      -7.850   0.686 129.442  0.00  0.00    +0.000 A 
ATOM     26  C   UNL     1      -7.421  -0.864 128.610  0.00  0.00    +0.000 A 
ATOM     27  C   UNL     1      -7.727  -1.047 126.806  0.00  0.00    +0.000 A 
ATOM     28  C   UNL     1      -8.544   0.375 125.905  0.00  0.00    +0.000 A 
ATOM     29  N   UNL     1      -8.932   1.895 126.762  0.00  0.00    +0.000 NA
BRANCH  27  30
ATOM     30  C   UNL     1      -7.022  -2.152 126.106  0.00  0.00    +0.000 A 
ATOM     31  C   UNL     1      -5.653  -2.322 125.671  0.00  0.00    +0.000 A 
ATOM     32  C   UNL     1      -5.402  -2.944 124.469  0.00  0.00    +0.000 A 
ATOM     33  C   UNL     1      -6.405  -3.764 123.995  0.00  0.00    +0.000 A 
ATOM     34  C   UNL     1      -7.673  -3.817 124.606  0.00  0.00    +0.000 A 
ATOM     35  C   UNL     1      -7.997  -2.998 125.654  0.00  0.00    +0.000 A 
ATOM     36  C   UNL     1      -9.349  -2.827 126.282  0.00  0.00    +0.000 C 
ENDBRANCH  27  30
ENDBRANCH  23  24
ENDBRANCH   1  23
TORSDOF 9
ENDMDL
MODEL 2
REMARK VINA RESULT:      -9.5      3.132      5.220
REMARK  Name = CHEMBL456254
REMARK  13 active torsions:
REMARK  status: ('A' for Active; 'I' for Inactive)
REMARK    1  A    between atoms: C_1  and  O_2
REMARK    2  A    between atoms: O_2  and  C_3
REMARK    3  A    between atoms: C_6  and  O_7
REMARK    4  A    between atoms: O_7  and  C_8
REMARK    5  A    between atoms: C_9  and  S_10
REMARK    6  A    between atoms: S_10  and  N_13
REMARK    7  A    between atoms: N_13  and  C_14
REMARK    8  A    between atoms: N_13  and  C_28
REMARK    9  A    between atoms: C_14  and  C_15
REMARK   10  A    between atoms: C_18  and  C_19
REMARK   11  A    between atoms: C_24  and  C_25
REMARK   12  A    between atoms: C_31  and  O_32
REMARK   13  A    between atoms: O_32  and  C_33
REMARK                            x       y       z     vdW  Elec       q    Type
REMARK                         _______ _______ _______ _____ _____    ______ ____
ROOT
ATOM      1  N   UNL     1      -7.362   3.584 130.126  0.00  0.00    +0.000 N 
ENDROOT
BRANCH   1   2
ATOM      2  C   UNL     1      -8.397   4.443 130.680  0.00  0.00    +0.000 A 
ATOM      3  C   UNL     1      -8.166   5.342 131.721  0.00  0.00    +0.000 A 
ATOM      4  C   UNL     1      -9.211   6.082 132.249  0.00  0.00    +0.000 A 
ATOM      5  C   UNL     1     -10.469   5.956 131.683  0.00  0.00    +0.000 A 
ATOM      6  N   UNL     1     -10.721   5.124 130.650  0.00  0.00    +0.000 NA
ATOM      7  C   UNL     1      -9.690   4.381 130.187  0.00  0.00    +0.000 A 
BRANCH   5   8
ATOM      8  O   UNL     1     -11.563   6.664 132.095  0.00  0.00    +0.000 OA
ATOM      9  C   UNL     1     -12.400   7.156 131.055  0.00  0.00    +0.000 C 
ENDBRANCH   5   8
ENDBRANCH   1   2
BRANCH   1  10
ATOM     10  S   UNL     1      -6.412   4.474 128.990  0.00  0.00    +0.000 S 
ATOM     11  O   UNL     1      -5.841   5.541 129.795  0.00  0.00    +0.000 OA
ATOM     12  O   UNL     1      -7.286   4.732 127.868  0.00  0.00    +0.000 OA
BRANCH  10  17
ATOM     13  C   UNL     1      -4.623   2.748 126.377  0.00  0.00    +0.000 A 
ATOM     14  C   UNL     1      -3.301   3.172 126.451  0.00  0.00    +0.000 A 
ATOM     15  C   UNL     1      -2.698   3.461 127.613  0.00  0.00    +0.000 A 
ATOM     16  C   UNL     1      -3.588   4.009 128.484  0.00  0.00    +0.000 A 
ATOM     17  C   UNL     1      -4.954   3.722 128.365  0.00  0.00    +0.000 A 
ATOM     18  C   UNL     1      -5.333   2.801 127.484  0.00  0.00    +0.000 A 
BRANCH  13  20
ATOM     19  C   UNL     1      -6.754   2.388 123.784  0.00  0.00    +0.000 C 
ATOM     20  O   UNL     1      -5.642   2.884 125.310  0.00  0.00    +0.000 OA
ENDBRANCH  13  20
BRANCH  16  21
ATOM     21  O   UNL     1      -2.910   4.877 129.263  0.00  0.00    +0.000 OA
ATOM     22  C   UNL     1      -2.535   5.994 128.528  0.00  0.00    +0.000 C 
ENDBRANCH  16  21
ENDBRANCH  10  17
ENDBRANCH   1  10
BRANCH   1  23
ATOM     23  C   UNL     1      -7.586   2.103 130.424  0.00  0.00    +0.000 C 
BRANCH  23  24
ATOM     24  C   UNL     1      -8.117   1.034 129.429  0.00  0.00    +0.000 A 
ATOM     25  C   UNL     1      -7.299  -0.592 129.452  0.00  0.00    +0.000 A 
ATOM     26  C   UNL     1      -7.216  -1.582 127.938  0.00  0.00    +0.000 A 
ATOM     27  C   UNL     1      -7.964  -0.941 126.386  0.00  0.00    +0.000 A 
ATOM     28  C   UNL     1      -8.850   0.706 126.453  0.00  0.00    +0.000 A 
ATOM     29  N   UNL     1      -8.890   1.659 127.964  0.00  0.00    +0.000 NA
BRANCH  27  30
ATOM     30  C   UNL     1      -7.545  -1.585 125.113  0.00  0.00    +0.000 A 
ATOM     31  C   UNL     1      -6.478  -1.306 124.178  0.00  0.00    +0.000 A 
ATOM     32  C   UNL     1      -6.713  -1.443 122.829  0.00  0.00    +0.000 A 
ATOM     33  C   UNL     1      -7.764  -2.268 122.482  0.00  0.00    +0.000 A 
ATOM     34  C   UNL     1      -8.650  -2.787 123.447  0.00  0.00    +0.000 A 
ATOM     35  C   UNL     1      -8.558  -2.434 124.767  0.00  0.00    +0.000 A 
ATOM     36  C   UNL     1      -9.529  -2.770 125.861  0.00  0.00    +0.000 C 
ENDBRANCH  27  30
ENDBRANCH  23  24
ENDBRANCH   1  23
TORSDOF 9
ENDMDL
MODEL 3
REMARK VINA RESULT:      -9.4      2.699      5.382
REMARK  Name = CHEMBL456254
REMARK  13 active torsions:
REMARK  status: ('A' for Active; 'I' for Inactive)
REMARK    1  A    between atoms: C_1  and  O_2
REMARK    2  A    between atoms: O_2  and  C_3
REMARK    3  A    between atoms: C_6  and  O_7
REMARK    4  A    between atoms: O_7  and  C_8
REMARK    5  A    between atoms: C_9  and  S_10
REMARK    6  A    between atoms: S_10  and  N_13
REMARK    7  A    between atoms: N_13  and  C_14
REMARK    8  A    between atoms: N_13  and  C_28
REMARK    9  A    between atoms: C_14  and  C_15
REMARK   10  A    between atoms: C_18  and  C_19
REMARK   11  A    between atoms: C_24  and  C_25
REMARK   12  A    between atoms: C_31  and  O_32
REMARK   13  A    between atoms: O_32  and  C_33
REMARK                            x       y       z     vdW  Elec       q    Type
REMARK                         _______ _______ _______ _____ _____    ______ ____
ROOT
ATOM      1  N   UNL     1      -7.417   3.909 130.338  0.00  0.00    +0.000 N 
ENDROOT
BRANCH   1   2
ATOM      2  C   UNL     1      -8.316   5.031 130.111  0.00  0.00    +0.000 A 
ATOM      3  C   UNL     1      -8.645   5.957 131.101  0.00  0.00    +0.000 A 
ATOM      4  C   UNL     1      -9.561   6.962 130.838  0.00  0.00    +0.000 A 
ATOM      5  C   UNL     1     -10.091   7.064 129.563  0.00  0.00    +0.000 A 
ATOM      6  N   UNL     1      -9.767   6.208 128.570  0.00  0.00    +0.000 NA
ATOM      7  C   UNL     1      -8.906   5.209 128.871  0.00  0.00    +0.000 A 
BRANCH   5   8
ATOM      8  O   UNL     1     -10.971   8.037 129.180  0.00  0.00    +0.000 OA
ATOM      9  C   UNL     1     -10.891   8.431 127.816  0.00  0.00    +0.000 C 
ENDBRANCH   5   8
ENDBRANCH   1   2
BRANCH   1  10
ATOM     10  S   UNL     1      -5.833   4.308 129.779  0.00  0.00    +0.000 S 
ATOM     11  O   UNL     1      -4.964   3.546 130.660  0.00  0.00    +0.000 OA
ATOM     12  O   UNL     1      -5.796   5.752 129.713  0.00  0.00    +0.000 OA
BRANCH  10  17
ATOM     13  C   UNL     1      -4.610   1.640 127.682  0.00  0.00    +0.000 A 
ATOM     14  C   UNL     1      -5.181   1.825 126.428  0.00  0.00    +0.000 A 
ATOM     15  C   UNL     1      -5.422   3.039 125.915  0.00  0.00    +0.000 A 
ATOM     16  C   UNL     1      -5.767   3.910 126.901  0.00  0.00    +0.000 A 
ATOM     17  C   UNL     1      -5.330   3.692 128.214  0.00  0.00    +0.000 A 
ATOM     18  C   UNL     1      -4.464   2.709 128.438  0.00  0.00    +0.000 A 
BRANCH  13  20
ATOM     19  C   UNL     1      -4.264  -0.608 130.176  0.00  0.00    +0.000 C 
ATOM     20  O   UNL     1      -4.729   0.539 128.666  0.00  0.00    +0.000 OA
ENDBRANCH  13  20
BRANCH  16  21
ATOM     21  O   UNL     1      -6.627   4.804 126.370  0.00  0.00    +0.000 OA
ATOM     22  C   UNL     1      -6.255   5.118 125.069  0.00  0.00    +0.000 C 
ENDBRANCH  16  21
ENDBRANCH  10  17
ENDBRANCH   1  10
BRANCH   1  23
ATOM     23  C   UNL     1      -8.148   2.613 130.684  0.00  0.00    +0.000 C 
BRANCH  23  24
ATOM     24  C   UNL     1      -8.490   1.460 129.701  0.00  0.00    +0.000 A 
ATOM     25  C   UNL     1      -7.956  -0.214 130.177  0.00  0.00    +0.000 A 
ATOM     26  C   UNL     1      -7.549  -1.430 128.897  0.00  0.00    +0.000 A 
ATOM     27  C   UNL     1      -7.684  -0.967 127.123  0.00  0.00    +0.000 A 
ATOM     28  C   UNL     1      -8.308   0.748 126.707  0.00  0.00    +0.000 A 
ATOM     29  N   UNL     1      -8.679   1.922 128.002  0.00  0.00    +0.000 NA
BRANCH  27  30
ATOM     30  C   UNL     1      -6.987  -1.836 126.139  0.00  0.00    +0.000 A 
ATOM     31  C   UNL     1      -5.629  -1.864 125.644  0.00  0.00    +0.000 A 
ATOM     32  C   UNL     1      -5.402  -2.142 124.315  0.00  0.00    +0.000 A 
ATOM     33  C   UNL     1      -6.410  -2.823 123.663  0.00  0.00    +0.000 A 
ATOM     34  C   UNL     1      -7.662  -3.055 124.267  0.00  0.00    +0.000 A 
ATOM     35  C   UNL     1      -7.966  -2.548 125.501  0.00  0.00    +0.000 A 
ATOM     36  C   UNL     1      -9.303  -2.569 126.183  0.00  0.00    +0.000 C 
ENDBRANCH  27  30
ENDBRANCH  23  24
ENDBRANCH   1  23
TORSDOF 9
ENDMDL
MODEL 4
REMARK VINA RESULT:      -9.4      5.887      8.893
REMARK  Name = CHEMBL456254
REMARK  13 active torsions:
REMARK  status: ('A' for Active; 'I' for Inactive)
REMARK    1  A    between atoms: C_1  and  O_2
REMARK    2  A    between atoms: O_2  and  C_3
REMARK    3  A    between atoms: C_6  and  O_7
REMARK    4  A    between atoms: O_7  and  C_8
REMARK    5  A    between atoms: C_9  and  S_10
REMARK    6  A    between atoms: S_10  and  N_13
REMARK    7  A    between atoms: N_13  and  C_14
REMARK    8  A    between atoms: N_13  and  C_28
REMARK    9  A    between atoms: C_14  and  C_15
REMARK   10  A    between atoms: C_18  and  C_19
REMARK   11  A    between atoms: C_24  and  C_25
REMARK   12  A    between atoms: C_31  and  O_32
REMARK   13  A    between atoms: O_32  and  C_33
REMARK                            x       y       z     vdW  Elec       q    Type
REMARK                         _______ _______ _______ _____ _____    ______ ____
ROOT
ATOM      1  N   UNL     1      -8.224  -1.541 127.142  0.00  0.00    +0.000 N 
ENDROOT
BRANCH   1   2
ATOM      2  C   UNL     1      -7.171  -1.985 128.042  0.00  0.00    +0.000 A 
ATOM      3  C   UNL     1      -7.410  -2.387 129.356  0.00  0.00    +0.000 A 
ATOM      4  C   UNL     1      -6.354  -2.733 130.183  0.00  0.00    +0.000 A 
ATOM      5  C   UNL     1      -5.071  -2.731 129.662  0.00  0.00    +0.000 A 
ATOM      6  N   UNL     1      -4.806  -2.384 128.383  0.00  0.00    +0.000 NA
ATOM      7  C   UNL     1      -5.853  -2.006 127.615  0.00  0.00    +0.000 A 
BRANCH   5   8
ATOM      8  O   UNL     1      -3.960  -3.092 130.371  0.00  0.00    +0.000 OA
ATOM      9  C   UNL     1      -3.862  -2.539 131.678  0.00  0.00    +0.000 C 
ENDBRANCH   5   8
ENDBRANCH   1   2
BRANCH   1  10
ATOM     10  S   UNL     1      -8.735  -2.858 126.148  0.00  0.00    +0.000 S 
ATOM     11  O   UNL     1     -10.089  -2.486 125.771  0.00  0.00    +0.000 OA
ATOM     12  O   UNL     1      -8.442  -4.054 126.905  0.00  0.00    +0.000 OA
BRANCH  10  17
ATOM     13  C   UNL     1      -8.603  -2.107 122.622  0.00  0.00    +0.000 A 
ATOM     14  C   UNL     1      -7.260  -2.107 122.265  0.00  0.00    +0.000 A 
ATOM     15  C   UNL     1      -6.364  -2.936 122.819  0.00  0.00    +0.000 A 
ATOM     16  C   UNL     1      -6.670  -3.159 124.125  0.00  0.00    +0.000 A 
ATOM     17  C   UNL     1      -7.994  -3.035 124.567  0.00  0.00    +0.000 A 
ATOM     18  C   UNL     1      -8.948  -2.840 123.661  0.00  0.00    +0.000 A 
BRANCH  13  20
ATOM     19  C   UNL     1     -10.371   0.768 122.654  0.00  0.00    +0.000 C 
ATOM     20  O   UNL     1      -9.627  -1.036 122.605  0.00  0.00    +0.000 OA
ENDBRANCH  13  20
BRANCH  16  21
ATOM     21  O   UNL     1      -5.510  -3.350 124.787  0.00  0.00    +0.000 OA
ATOM     22  C   UNL     1      -4.609  -4.045 123.989  0.00  0.00    +0.000 C 
ENDBRANCH  16  21
ENDBRANCH  10  17
ENDBRANCH   1  10
BRANCH   1  23
ATOM     23  C   UNL     1      -8.359  -0.021 127.078  0.00  0.00    +0.000 C 
BRANCH  23  24
ATOM     24  C   UNL     1      -7.600   0.931 126.114  0.00  0.00    +0.000 A 
ATOM     25  C   UNL     1      -8.058   2.692 126.165  0.00  0.00    +0.000 A 
ATOM     26  C   UNL     1      -7.906   3.708 124.673  0.00  0.00    +0.000 A 
ATOM     27  C   UNL     1      -7.287   2.954 123.115  0.00  0.00    +0.000 A 
ATOM     28  C   UNL     1      -6.768   1.157 123.154  0.00  0.00    +0.000 A 
ATOM     29  N   UNL     1      -6.953   0.187 124.644  0.00  0.00    +0.000 NA
BRANCH  27  30
ATOM     30  C   UNL     1      -7.541   3.697 121.853  0.00  0.00    +0.000 A 
ATOM     31  C   UNL     1      -8.701   3.809 120.998  0.00  0.00    +0.000 A 
ATOM     32  C   UNL     1      -8.530   3.846 119.632  0.00  0.00    +0.000 A 
ATOM     33  C   UNL     1      -7.283   4.242 119.193  0.00  0.00    +0.000 A 
ATOM     34  C   UNL     1      -6.204   4.419 120.082  0.00  0.00    +0.000 A 
ATOM     35  C   UNL     1      -6.320   4.130 121.415  0.00  0.00    +0.000 A 
ATOM     36  C   UNL     1      -5.218   4.106 122.433  0.00  0.00    +0.000 C 
ENDBRANCH  27  30
ENDBRANCH  23  24
ENDBRANCH   1  23
TORSDOF 9
ENDMDL
MODEL 5
REMARK VINA RESULT:      -9.3      4.112      9.196
REMARK  Name = CHEMBL456254
REMARK  13 active torsions:
REMARK  status: ('A' for Active; 'I' for Inactive)
REMARK    1  A    between atoms: C_1  and  O_2
REMARK    2  A    between atoms: O_2  and  C_3
REMARK    3  A    between atoms: C_6  and  O_7
REMARK    4  A    between atoms: O_7  and  C_8
REMARK    5  A    between atoms: C_9  and  S_10
REMARK    6  A    between atoms: S_10  and  N_13
REMARK    7  A    between atoms: N_13  and  C_14
REMARK    8  A    between atoms: N_13  and  C_28
REMARK    9  A    between atoms: C_14  and  C_15
REMARK   10  A    between atoms: C_18  and  C_19
REMARK   11  A    between atoms: C_24  and  C_25
REMARK   12  A    between atoms: C_31  and  O_32
REMARK   13  A    between atoms: O_32  and  C_33
REMARK                            x       y       z     vdW  Elec       q    Type
REMARK                         _______ _______ _______ _____ _____    ______ ____
ROOT
ATOM      1  N   UNL     1      -8.926   6.159 130.322  0.00  0.00    +0.000 N 
ENDROOT
BRANCH   1   2
ATOM      2  C   UNL     1     -10.149   6.931 130.158  0.00  0.00    +0.000 A 
ATOM      3  C   UNL     1     -11.248   6.809 131.008  0.00  0.00    +0.000 A 
ATOM      4  C   UNL     1     -12.407   7.523 130.755  0.00  0.00    +0.000 A 
ATOM      5  C   UNL     1     -12.430   8.400 129.684  0.00  0.00    +0.000 A 
ATOM      6  N   UNL     1     -11.371   8.571 128.862  0.00  0.00    +0.000 NA
ATOM      7  C   UNL     1     -10.270   7.825 129.107  0.00  0.00    +0.000 A 
BRANCH   5   8
ATOM      8  O   UNL     1     -13.502   9.184 129.363  0.00  0.00    +0.000 OA
ATOM      9  C   UNL     1     -13.306  10.584 129.520  0.00  0.00    +0.000 C 
ENDBRANCH   5   8
ENDBRANCH   1   2
BRANCH   1  10
ATOM     10  S   UNL     1      -9.041   4.687 129.426  0.00  0.00    +0.000 S 
ATOM     11  O   UNL     1      -8.689   5.089 128.075  0.00  0.00    +0.000 OA
ATOM     12  O   UNL     1     -10.334   4.130 129.756  0.00  0.00    +0.000 OA
BRANCH  10  17
ATOM     13  C   UNL     1      -5.656   3.459 129.214  0.00  0.00    +0.000 A 
ATOM     14  C   UNL     1      -5.445   2.675 130.342  0.00  0.00    +0.000 A 
ATOM     15  C   UNL     1      -6.410   1.923 130.891  0.00  0.00    +0.000 A 
ATOM     16  C   UNL     1      -7.618   2.535 130.764  0.00  0.00    +0.000 A 
ATOM     17  C   UNL     1      -7.837   3.444 129.721  0.00  0.00    +0.000 A 
ATOM     18  C   UNL     1      -6.897   3.578 128.790  0.00  0.00    +0.000 A 
BRANCH  13  20
ATOM     19  C   UNL     1      -3.762   5.871 127.805  0.00  0.00    +0.000 C 
ATOM     20  O   UNL     1      -5.015   4.713 128.752  0.00  0.00    +0.000 OA
ENDBRANCH  13  20
BRANCH  16  21
ATOM     21  O   UNL     1      -8.362   2.191 131.836  0.00  0.00    +0.000 OA
ATOM     22  C   UNL     1      -8.235   3.144 132.838  0.00  0.00    +0.000 C 
ENDBRANCH  16  21
ENDBRANCH  10  17
ENDBRANCH   1  10
BRANCH   1  23
ATOM     23  C   UNL     1      -8.042   6.668 131.459  0.00  0.00    +0.000 C 
BRANCH  23  24
ATOM     24  C   UNL     1      -6.506   6.475 131.586  0.00  0.00    +0.000 A 
ATOM     25  C   UNL     1      -5.881   5.870 133.185  0.00  0.00    +0.000 A 
ATOM     26  C   UNL     1      -4.227   6.347 133.747  0.00  0.00    +0.000 A 
ATOM     27  C   UNL     1      -3.185   7.438 132.696  0.00  0.00    +0.000 A 
ATOM     28  C   UNL     1      -3.863   7.964 131.033  0.00  0.00    +0.000 A 
ATOM     29  N   UNL     1      -5.509   7.485 130.527  0.00  0.00    +0.000 NA
BRANCH  27  30
ATOM     30  C   UNL     1      -2.028   8.106 133.347  0.00  0.00    +0.000 A 
ATOM     31  C   UNL     1      -1.883   9.376 134.024  0.00  0.00    +0.000 A 
ATOM     32  C   UNL     1      -0.728  10.105 133.846  0.00  0.00    +0.000 A 
ATOM     33  C   UNL     1       0.377   9.389 133.434  0.00  0.00    +0.000 A 
ATOM     34  C   UNL     1       0.284   8.038 133.043  0.00  0.00    +0.000 A 
ATOM     35  C   UNL     1      -0.922   7.393 132.980  0.00  0.00    +0.000 A 
ATOM     36  C   UNL     1      -1.185   6.025 132.421  0.00  0.00    +0.000 C 
ENDBRANCH  27  30
ENDBRANCH  23  24
ENDBRANCH   1  23
TORSDOF 9
ENDMDL
MODEL 6
REMARK VINA RESULT:      -9.2      4.031      9.244
REMARK  Name = CHEMBL456254
REMARK  13 active torsions:
REMARK  status: ('A' for Active; 'I' for Inactive)
REMARK    1  A    between atoms: C_1  and  O_2
REMARK    2  A    between atoms: O_2  and  C_3
REMARK    3  A    between atoms: C_6  and  O_7
REMARK    4  A    between atoms: O_7  and  C_8
REMARK    5  A    between atoms: C_9  and  S_10
REMARK    6  A    between atoms: S_10  and  N_13
REMARK    7  A    between atoms: N_13  and  C_14
REMARK    8  A    between atoms: N_13  and  C_28
REMARK    9  A    between atoms: C_14  and  C_15
REMARK   10  A    between atoms: C_18  and  C_19
REMARK   11  A    between atoms: C_24  and  C_25
REMARK   12  A    between atoms: C_31  and  O_32
REMARK   13  A    between atoms: O_32  and  C_33
REMARK                            x       y       z     vdW  Elec       q    Type
REMARK                         _______ _______ _______ _____ _____    ______ ____
ROOT
ATOM      1  N   UNL     1      -8.945   6.322 129.938  0.00  0.00    +0.000 N 
ENDROOT
BRANCH   1   2
ATOM      2  C   UNL     1     -10.147   7.126 129.773  0.00  0.00    +0.000 A 
ATOM      3  C   UNL     1     -11.279   6.979 130.575  0.00  0.00    +0.000 A 
ATOM      4  C   UNL     1     -12.415   7.729 130.321  0.00  0.00    +0.000 A 
ATOM      5  C   UNL     1     -12.382   8.664 129.301  0.00  0.00    +0.000 A 
ATOM      6  N   UNL     1     -11.291   8.860 128.528  0.00  0.00    +0.000 NA
ATOM      7  C   UNL     1     -10.213   8.079 128.771  0.00  0.00    +0.000 A 
BRANCH   5   8
ATOM      8  O   UNL     1     -13.428   9.486 128.987  0.00  0.00    +0.000 OA
ATOM      9  C   UNL     1     -13.455  10.732 129.672  0.00  0.00    +0.000 C 
ENDBRANCH   5   8
ENDBRANCH   1   2
BRANCH   1  10
ATOM     10  S   UNL     1      -9.040   4.919 128.934  0.00  0.00    +0.000 S 
ATOM     11  O   UNL     1      -9.123   5.472 127.593  0.00  0.00    +0.000 OA
ATOM     12  O   UNL     1     -10.091   4.104 129.502  0.00  0.00    +0.000 OA
BRANCH  10  17
ATOM     13  C   UNL     1      -7.450   1.810 128.033  0.00  0.00    +0.000 A 
ATOM     14  C   UNL     1      -6.180   2.132 127.566  0.00  0.00    +0.000 A 
ATOM     15  C   UNL     1      -5.461   3.145 128.069  0.00  0.00    +0.000 A 
ATOM     16  C   UNL     1      -6.277   4.169 128.437  0.00  0.00    +0.000 A 
ATOM     17  C   UNL     1      -7.610   3.913 128.784  0.00  0.00    +0.000 A 
ATOM     18  C   UNL     1      -8.007   2.647 128.882  0.00  0.00    +0.000 A 
BRANCH  13  20
ATOM     19  C   UNL     1      -9.709   0.454 125.923  0.00  0.00    +0.000 C 
ATOM     20  O   UNL     1      -8.611   1.174 127.368  0.00  0.00    +0.000 OA
ENDBRANCH  13  20
BRANCH  16  21
ATOM     21  O   UNL     1      -5.594   5.318 128.256  0.00  0.00    +0.000 OA
ATOM     22  C   UNL     1      -4.248   5.050 128.043  0.00  0.00    +0.000 C 
ENDBRANCH  16  21
ENDBRANCH  10  17
ENDBRANCH   1  10
BRANCH   1  23
ATOM     23  C   UNL     1      -8.108   6.732 131.147  0.00  0.00    +0.000 C 
BRANCH  23  24
ATOM     24  C   UNL     1      -6.584   6.494 131.335  0.00  0.00    +0.000 A 
ATOM     25  C   UNL     1      -6.045   5.840 132.946  0.00  0.00    +0.000 A 
ATOM     26  C   UNL     1      -4.404   6.260 133.586  0.00  0.00    +0.000 A 
ATOM     27  C   UNL     1      -3.289   7.342 132.603  0.00  0.00    +0.000 A 
ATOM     28  C   UNL     1      -3.881   7.919 130.924  0.00  0.00    +0.000 A 
ATOM     29  N   UNL     1      -5.517   7.497 130.340  0.00  0.00    +0.000 NA
BRANCH  27  30
ATOM     30  C   UNL     1      -2.143   7.965 133.316  0.00  0.00    +0.000 A 
ATOM     31  C   UNL     1      -2.001   9.202 134.051  0.00  0.00    +0.000 A 
ATOM     32  C   UNL     1      -0.832   9.921 133.939  0.00  0.00    +0.000 A 
ATOM     33  C   UNL     1       0.275   9.208 133.528  0.00  0.00    +0.000 A 
ATOM     34  C   UNL     1       0.176   7.877 133.075  0.00  0.00    +0.000 A 
ATOM     35  C   UNL     1      -1.035   7.252 132.949  0.00  0.00    +0.000 A 
ATOM     36  C   UNL     1      -1.300   5.914 132.324  0.00  0.00    +0.000 C 
ENDBRANCH  27  30
ENDBRANCH  23  24
ENDBRANCH   1  23
TORSDOF 9
ENDMDL
MODEL 7
REMARK VINA RESULT:      -9.1      2.863      6.086
REMARK  Name = CHEMBL456254
REMARK  13 active torsions:
REMARK  status: ('A' for Active; 'I' for Inactive)
REMARK    1  A    between atoms: C_1  and  O_2
REMARK    2  A    between atoms: O_2  and  C_3
REMARK    3  A    between atoms: C_6  and  O_7
REMARK    4  A    between atoms: O_7  and  C_8
REMARK    5  A    between atoms: C_9  and  S_10
REMARK    6  A    between atoms: S_10  and  N_13
REMARK    7  A    between atoms: N_13  and  C_14
REMARK    8  A    between atoms: N_13  and  C_28
REMARK    9  A    between atoms: C_14  and  C_15
REMARK   10  A    between atoms: C_18  and  C_19
REMARK   11  A    between atoms: C_24  and  C_25
REMARK   12  A    between atoms: C_31  and  O_32
REMARK   13  A    between atoms: O_32  and  C_33
REMARK                            x       y       z     vdW  Elec       q    Type
REMARK                         _______ _______ _______ _____ _____    ______ ____
ROOT
ATOM      1  N   UNL     1      -8.982   5.487 132.161  0.00  0.00    +0.000 N 
ENDROOT
BRANCH   1   2
ATOM      2  C   UNL     1     -10.145   5.858 131.369  0.00  0.00    +0.000 A 
ATOM      3  C   UNL     1     -11.191   6.636 131.866  0.00  0.00    +0.000 A 
ATOM      4  C   UNL     1     -12.302   6.895 131.080  0.00  0.00    +0.000 A 
ATOM      5  C   UNL     1     -12.323   6.421 129.779  0.00  0.00    +0.000 A 
ATOM      6  N   UNL     1     -11.312   5.697 129.253  0.00  0.00    +0.000 NA
ATOM      7  C   UNL     1     -10.263   5.420 130.060  0.00  0.00    +0.000 A 
BRANCH   5   8
ATOM      8  O   UNL     1     -13.346   6.649 128.903  0.00  0.00    +0.000 OA
ATOM      9  C   UNL     1     -12.962   7.166 127.634  0.00  0.00    +0.000 C 
ENDBRANCH   5   8
ENDBRANCH   1   2
BRANCH   1  10
ATOM     10  S   UNL     1      -7.543   6.023 131.371  0.00  0.00    +0.000 S 
ATOM     11  O   UNL     1      -6.590   6.149 132.461  0.00  0.00    +0.000 OA
ATOM     12  O   UNL     1      -7.942   7.149 130.556  0.00  0.00    +0.000 OA
BRANCH  10  17
ATOM     13  C   UNL     1      -4.515   4.406 130.264  0.00  0.00    +0.000 A 
ATOM     14  C   UNL     1      -4.868   3.115 129.886  0.00  0.00    +0.000 A 
ATOM     15  C   UNL     1      -6.044   2.825 129.313  0.00  0.00    +0.000 A 
ATOM     16  C   UNL     1      -7.023   3.628 129.809  0.00  0.00    +0.000 A 
ATOM     17  C   UNL     1      -6.700   4.887 130.331  0.00  0.00    +0.000 A 
ATOM     18  C   UNL     1      -5.453   5.327 130.197  0.00  0.00    +0.000 A 
BRANCH  13  20
ATOM     19  C   UNL     1      -1.991   5.604 132.157  0.00  0.00    +0.000 C 
ATOM     20  O   UNL     1      -3.616   4.910 131.329  0.00  0.00    +0.000 OA
ENDBRANCH  13  20
BRANCH  16  21
ATOM     21  O   UNL     1      -8.173   2.921 129.796  0.00  0.00    +0.000 OA
ATOM     22  C   UNL     1      -8.279   2.196 128.616  0.00  0.00    +0.000 C 
ENDBRANCH  16  21
ENDBRANCH  10  17
ENDBRANCH   1  10
BRANCH   1  23
ATOM     23  C   UNL     1      -9.301   4.475 133.260  0.00  0.00    +0.000 C 
BRANCH  23  24
ATOM     24  C   UNL     1      -8.908   2.972 133.268  0.00  0.00    +0.000 A 
ATOM     25  C   UNL     1      -7.140   2.583 133.458  0.00  0.00    +0.000 A 
ATOM     26  C   UNL     1      -6.461   1.079 132.711  0.00  0.00    +0.000 A 
ATOM     27  C   UNL     1      -7.564  -0.050 131.769  0.00  0.00    +0.000 A 
ATOM     28  C   UNL     1      -9.384   0.376 131.675  0.00  0.00    +0.000 A 
ATOM     29  N   UNL     1     -10.007   1.881 132.410  0.00  0.00    +0.000 NA
BRANCH  27  30
ATOM     30  C   UNL     1      -6.915  -1.037 130.867  0.00  0.00    +0.000 A 
ATOM     31  C   UNL     1      -6.381  -0.938 129.527  0.00  0.00    +0.000 A 
ATOM     32  C   UNL     1      -6.560  -1.986 128.652  0.00  0.00    +0.000 A 
ATOM     33  C   UNL     1      -6.810  -3.215 129.229  0.00  0.00    +0.000 A 
ATOM     34  C   UNL     1      -7.048  -3.353 130.610  0.00  0.00    +0.000 A 
ATOM     35  C   UNL     1      -7.121  -2.263 131.436  0.00  0.00    +0.000 A 
ATOM     36  C   UNL     1      -7.535  -2.250 132.879  0.00  0.00    +0.000 C 
ENDBRANCH  27  30
ENDBRANCH  23  24
ENDBRANCH   1  23
TORSDOF 9
ENDMDL
MODEL 8
REMARK VINA RESULT:      -9.1      3.062      6.145
REMARK  Name = CHEMBL456254
REMARK  13 active torsions:
REMARK  status: ('A' for Active; 'I' for Inactive)
REMARK    1  A    between atoms: C_1  and  O_2
REMARK    2  A    between atoms: O_2  and  C_3
REMARK    3  A    between atoms: C_6  and  O_7
REMARK    4  A    between atoms: O_7  and  C_8
REMARK    5  A    between atoms: C_9  and  S_10
REMARK    6  A    between atoms: S_10  and  N_13
REMARK    7  A    between atoms: N_13  and  C_14
REMARK    8  A    between atoms: N_13  and  C_28
REMARK    9  A    between atoms: C_14  and  C_15
REMARK   10  A    between atoms: C_18  and  C_19
REMARK   11  A    between atoms: C_24  and  C_25
REMARK   12  A    between atoms: C_31  and  O_32
REMARK   13  A    between atoms: O_32  and  C_33
REMARK                            x       y       z     vdW  Elec       q    Type
REMARK                         _______ _______ _______ _____ _____    ______ ____
ROOT
ATOM      1  N   UNL     1     -10.432   5.490 130.809  0.00  0.00    +0.000 N 
ENDROOT
BRANCH   1   2
ATOM      2  C   UNL     1     -11.142   6.654 130.300  0.00  0.00    +0.000 A 
ATOM      3  C   UNL     1     -10.816   7.281 129.097  0.00  0.00    +0.000 A 
ATOM      4  C   UNL     1     -11.488   8.426 128.704  0.00  0.00    +0.000 A 
ATOM      5  C   UNL     1     -12.523   8.896 129.493  0.00  0.00    +0.000 A 
ATOM      6  N   UNL     1     -12.891   8.293 130.645  0.00  0.00    +0.000 NA
ATOM      7  C   UNL     1     -12.186   7.204 131.026  0.00  0.00    +0.000 A 
BRANCH   5   8
ATOM      8  O   UNL     1     -13.280   9.991 129.184  0.00  0.00    +0.000 OA
ATOM      9  C   UNL     1     -13.426  10.948 130.226  0.00  0.00    +0.000 C 
ENDBRANCH   5   8
ENDBRANCH   1   2
BRANCH   1  10
ATOM     10  S   UNL     1      -8.855   5.956 131.339  0.00  0.00    +0.000 S 
ATOM     11  O   UNL     1      -9.113   6.644 132.593  0.00  0.00    +0.000 OA
ATOM     12  O   UNL     1      -8.242   6.613 130.207  0.00  0.00    +0.000 OA
BRANCH  10  17
ATOM     13  C   UNL     1      -5.595   4.414 131.383  0.00  0.00    +0.000 A 
ATOM     14  C   UNL     1      -5.435   3.854 132.645  0.00  0.00    +0.000 A 
ATOM     15  C   UNL     1      -6.453   3.316 133.331  0.00  0.00    +0.000 A 
ATOM     16  C   UNL     1      -7.604   3.996 133.083  0.00  0.00    +0.000 A 
ATOM     17  C   UNL     1      -7.760   4.695 131.878  0.00  0.00    +0.000 A 
ATOM     18  C   UNL     1      -6.827   4.557 130.941  0.00  0.00    +0.000 A 
BRANCH  13  20
ATOM     19  C   UNL     1      -4.231   7.289 130.257  0.00  0.00    +0.000 C 
ATOM     20  O   UNL     1      -4.854   5.489 130.681  0.00  0.00    +0.000 OA
ENDBRANCH  13  20
BRANCH  16  21
ATOM     21  O   UNL     1      -8.359   3.939 134.200  0.00  0.00    +0.000 OA
ATOM     22  C   UNL     1      -7.873   4.823 135.155  0.00  0.00    +0.000 C 
ENDBRANCH  16  21
ENDBRANCH  10  17
ENDBRANCH   1  10
BRANCH   1  23
ATOM     23  C   UNL     1     -11.106   4.168 130.447  0.00  0.00    +0.000 C 
BRANCH  23  24
ATOM     24  C   UNL     1     -10.405   2.790 130.294  0.00  0.00    +0.000 A 
ATOM     25  C   UNL     1     -10.218   1.789 131.802  0.00  0.00    +0.000 A 
ATOM     26  C   UNL     1      -8.815   0.655 131.965  0.00  0.00    +0.000 A 
ATOM     27  C   UNL     1      -7.589   0.518 130.601  0.00  0.00    +0.000 A 
ATOM     28  C   UNL     1      -7.884   1.524 129.051  0.00  0.00    +0.000 A 
ATOM     29  N   UNL     1      -9.271   2.646 128.942  0.00  0.00    +0.000 NA
BRANCH  27  30
ATOM     30  C   UNL     1      -6.281  -0.109 130.924  0.00  0.00    +0.000 A 
ATOM     31  C   UNL     1      -5.052   0.415 131.477  0.00  0.00    +0.000 A 
ATOM     32  C   UNL     1      -3.847  -0.042 130.993  0.00  0.00    +0.000 A 
ATOM     33  C   UNL     1      -3.878  -1.273 130.371  0.00  0.00    +0.000 A 
ATOM     34  C   UNL     1      -5.090  -1.933 130.086  0.00  0.00    +0.000 A 
ATOM     35  C   UNL     1      -6.300  -1.347 130.344  0.00  0.00    +0.000 A 
ATOM     36  C   UNL     1      -7.654  -1.855 129.938  0.00  0.00    +0.000 C 
ENDBRANCH  27  30
ENDBRANCH  23  24
ENDBRANCH   1  23
TORSDOF 9
ENDMDL
MODEL 9
REMARK VINA RESULT:      -9.0      2.942      4.369
REMARK  Name = CHEMBL456254
REMARK  13 active torsions:
REMARK  status: ('A' for Active; 'I' for Inactive)
REMARK    1  A    between atoms: C_1  and  O_2
REMARK    2  A    between atoms: O_2  and  C_3
REMARK    3  A    between atoms: C_6  and  O_7
REMARK    4  A    between atoms: O_7  and  C_8
REMARK    5  A    between atoms: C_9  and  S_10
REMARK    6  A    between atoms: S_10  and  N_13
REMARK    7  A    between atoms: N_13  and  C_14
REMARK    8  A    between atoms: N_13  and  C_28
REMARK    9  A    between atoms: C_14  and  C_15
REMARK   10  A    between atoms: C_18  and  C_19
REMARK   11  A    between atoms: C_24  and  C_25
REMARK   12  A    between atoms: C_31  and  O_32
REMARK   13  A    between atoms: O_32  and  C_33
REMARK                            x       y       z     vdW  Elec       q    Type
REMARK                         _______ _______ _______ _____ _____    ______ ____
ROOT
ATOM      1  N   UNL     1      -7.018   3.445 130.127  0.00  0.00    +0.000 N 
ENDROOT
BRANCH   1   2
ATOM      2  C   UNL     1      -5.928   3.166 129.203  0.00  0.00    +0.000 A 
ATOM      3  C   UNL     1      -4.751   2.522 129.584  0.00  0.00    +0.000 A 
ATOM      4  C   UNL     1      -3.724   2.349 128.671  0.00  0.00    +0.000 A 
ATOM      5  C   UNL     1      -3.914   2.771 127.366  0.00  0.00    +0.000 A 
ATOM      6  N   UNL     1      -5.055   3.365 126.953  0.00  0.00    +0.000 NA
ATOM      7  C   UNL     1      -6.020   3.562 127.879  0.00  0.00    +0.000 A 
BRANCH   5   8
ATOM      8  O   UNL     1      -2.988   2.616 126.374  0.00  0.00    +0.000 OA
ATOM      9  C   UNL     1      -1.711   3.189 126.632  0.00  0.00    +0.000 C 
ENDBRANCH   5   8
ENDBRANCH   1   2
BRANCH   1  10
ATOM     10  S   UNL     1      -6.778   4.989 130.862  0.00  0.00    +0.000 S 
ATOM     11  O   UNL     1      -6.517   5.862 129.730  0.00  0.00    +0.000 OA
ATOM     12  O   UNL     1      -5.810   4.773 131.914  0.00  0.00    +0.000 OA
BRANCH  10  17
ATOM     13  C   UNL     1      -9.787   6.955 130.561  0.00  0.00    +0.000 A 
ATOM     14  C   UNL     1     -10.652   6.515 131.556  0.00  0.00    +0.000 A 
ATOM     15  C   UNL     1     -10.223   6.106 132.758  0.00  0.00    +0.000 A 
ATOM     16  C   UNL     1      -9.021   5.480 132.644  0.00  0.00    +0.000 A 
ATOM     17  C   UNL     1      -8.168   5.788 131.576  0.00  0.00    +0.000 A 
ATOM     18  C   UNL     1      -8.497   6.797 130.774  0.00  0.00    +0.000 A 
BRANCH  13  20
ATOM     19  C   UNL     1     -10.500   7.442 127.298  0.00  0.00    +0.000 C 
ATOM     20  O   UNL     1      -9.894   6.936 129.083  0.00  0.00    +0.000 OA
ENDBRANCH  13  20
BRANCH  16  21
ATOM     21  O   UNL     1      -8.964   4.532 133.603  0.00  0.00    +0.000 OA
ATOM     22  C   UNL     1      -8.072   4.907 134.599  0.00  0.00    +0.000 C 
ENDBRANCH  16  21
ENDBRANCH  10  17
ENDBRANCH   1  10
BRANCH   1  23
ATOM     23  C   UNL     1      -7.867   2.216 130.442  0.00  0.00    +0.000 C 
BRANCH  23  24
ATOM     24  C   UNL     1      -8.328   1.131 129.431  0.00  0.00    +0.000 A 
ATOM     25  C   UNL     1      -7.469  -0.472 129.493  0.00  0.00    +0.000 A 
ATOM     26  C   UNL     1      -7.298  -1.464 127.987  0.00  0.00    +0.000 A 
ATOM     27  C   UNL     1      -7.998  -0.847 126.403  0.00  0.00    +0.000 A 
ATOM     28  C   UNL     1      -8.930   0.776 126.428  0.00  0.00    +0.000 A 
ATOM     29  N   UNL     1      -9.057   1.731 127.933  0.00  0.00    +0.000 NA
BRANCH  27  30
ATOM     30  C   UNL     1      -7.510  -1.482 125.151  0.00  0.00    +0.000 A 
ATOM     31  C   UNL     1      -6.412  -1.178 124.260  0.00  0.00    +0.000 A 
ATOM     32  C   UNL     1      -6.588  -1.324 122.903  0.00  0.00    +0.000 A 
ATOM     33  C   UNL     1      -7.602  -2.176 122.516  0.00  0.00    +0.000 A 
ATOM     34  C   UNL     1      -8.514  -2.716 123.444  0.00  0.00    +0.000 A 
ATOM     35  C   UNL     1      -8.486  -2.358 124.765  0.00  0.00    +0.000 A 
ATOM     36  C   UNL     1      -9.493  -2.717 125.819  0.00  0.00    +0.000 C 
ENDBRANCH  27  30
ENDBRANCH  23  24
ENDBRANCH   1  23
TORSDOF 9
ENDMDL
