MODEL 1
REMARK VINA RESULT:      -9.4      0.000      0.000
REMARK  Name = CHEMBL2369848
REMARK  19 active torsions:
REMARK  status: ('A' for Active; 'I' for Inactive)
REMARK    1  A    between atoms: C_2  and  C_4
REMARK    2  A    between atoms: C_4  and  N_5
REMARK    3  A    between atoms: C_6  and  C_8
REMARK    4  A    between atoms: C_8  and  C_9
REMARK    5  A    between atoms: C_8  and  N_16
REMARK    6  A    between atoms: C_9  and  C_10
REMARK    7  A    between atoms: C_10  and  C_11
REMARK    8  A    between atoms: C_11  and  N_12
REMARK    9  A    between atoms: C_17  and  C_19
REMARK   10  A    between atoms: C_24  and  C_26
REMARK   11  A    between atoms: C_35  and  C_36
REMARK   12  A    between atoms: C_36  and  C_37
REMARK   13  A    between atoms: C_40  and  O_41
REMARK   14  A    between atoms: C_47  and  C_48
REMARK   15  A    between atoms: C_48  and  C_49
REMARK   16  A    between atoms: C_58  and  C_59
REMARK   17  A    between atoms: C_59  and  C_60
REMARK   18  A    between atoms: C_68  and  C_69
REMARK   19  A    between atoms: C_69  and  C_70
REMARK                            x       y       z     vdW  Elec       q    Type
REMARK                         _______ _______ _______ _____ _____    ______ ____
ROOT
ATOM      1  C   UNL     1      -4.338   1.773 131.704  0.00  0.00    +0.000 C 
ATOM      2  C   UNL     1      -4.661  -0.627 131.853  0.00  0.00    +0.000 C 
ATOM      3  S   UNL     1      -5.455  -3.142 132.711  0.00  0.00    +0.000 S 
ATOM      4  S   UNL     1      -5.788  -5.644 133.956  0.00  0.00    +0.000 S 
ATOM      5  C   UNL     1      -6.134  -5.723 135.967  0.00  0.00    +0.000 C 
ATOM      6  C   UNL     1      -5.716  -6.334 137.309  0.00  0.00    +0.000 C 
ATOM      7  C   UNL     1      -5.687  -5.419 138.561  0.00  0.00    +0.000 C 
ATOM      8  O   UNL     1      -5.545  -5.890 139.687  0.00  0.00    +0.000 OA
ATOM      9  N   UNL     1      -5.780  -4.078 138.386  0.00  0.00    +0.000 N 
ATOM     10  C   UNL     1      -5.956  -3.569 137.083  0.00  0.00    +0.000 C 
ATOM     11  C   UNL     1      -4.552  -3.680 136.255  0.00  0.00    +0.000 C 
ATOM     12  O   UNL     1      -3.953  -4.746 136.038  0.00  0.00    +0.000 OA
ATOM     13  N   UNL     1      -4.038  -2.772 135.537  0.00  0.00    +0.000 N 
ATOM     14  C   UNL     1      -4.392  -1.549 135.667  0.00  0.00    +0.000 C 
ATOM     15  C   UNL     1      -6.082  -1.371 134.816  0.00  0.00    +0.000 C 
ATOM     16  O   UNL     1      -7.181  -1.748 135.283  0.00  0.00    +0.000 OA
ATOM     17  N   UNL     1      -6.296  -0.137 134.104  0.00  0.00    +0.000 N 
ATOM     18  C   UNL     1      -5.350   0.899 134.008  0.00  0.00    +0.000 C 
ATOM     19  C   UNL     1      -4.643   2.227 135.656  0.00  0.00    +0.000 C 
ATOM     20  O   UNL     1      -3.630   1.952 136.699  0.00  0.00    +0.000 OA
ATOM     21  N   UNL     1      -4.454   3.420 135.302  0.00  0.00    +0.000 N 
ATOM     22  C   UNL     1      -4.756   3.765 133.926  0.00  0.00    +0.000 C 
ATOM     23  C   UNL     1      -3.365   2.641 132.643  0.00  0.00    +0.000 C 
ATOM     24  O   UNL     1      -2.942   1.376 132.559  0.00  0.00    +0.000 OA
ATOM     25  N   UNL     1      -3.319   3.150 131.417  0.00  0.00    +0.000 N 
ATOM     26  H   UNL     1      -5.813  -3.423 139.190  0.00  0.00    +0.000 HD
ATOM     27  H   UNL     1      -3.196  -2.890 135.035  0.00  0.00    +0.000 HD
ATOM     28  H   UNL     1      -7.180   0.284 133.966  0.00  0.00    +0.000 HD
ATOM     29  H   UNL     1      -3.620   3.666 135.755  0.00  0.00    +0.000 HD
ATOM     30  H   UNL     1      -2.781   3.961 130.826  0.00  0.00    +0.000 HD
ENDROOT
BRANCH   1  36
ATOM     31  C   UNL     1      -4.821   7.082 130.400  0.00  0.00    +0.000 C 
ATOM     32  C   UNL     1      -3.853   7.666 129.251  0.00  0.00    +0.000 C 
ATOM     33  C   UNL     1      -3.487   9.002 129.706  0.00  0.00    +0.000 C 
ATOM     34  C   UNL     1      -3.556   8.310 131.544  0.00  0.00    +0.000 C 
ATOM     35  N   UNL     1      -4.230   6.319 131.995  0.00  0.00    +0.000 N 
ATOM     36  C   UNL     1      -4.020   4.233 132.281  0.00  0.00    +0.000 C 
ATOM     37  O   UNL     1      -3.842   5.336 133.248  0.00  0.00    +0.000 OA
BRANCH  31  39
ATOM     38  N   UNL     1      -6.236   5.147 130.056  0.00  0.00    +0.000 N 
ATOM     39  C   UNL     1      -5.222   5.837 130.114  0.00  0.00    +0.000 C 
ATOM     40  O   UNL     1      -4.407   5.116 129.727  0.00  0.00    +0.000 OA
ATOM     41  H   UNL     1      -6.984   5.491 130.527  0.00  0.00    +0.000 HD
BRANCH  38  42
ATOM     42  C   UNL     1      -6.225   3.880 129.549  0.00  0.00    +0.000 C 
BRANCH  42  44
ATOM     43  N   UNL     1      -4.298   3.751 127.271  0.00  0.00    +0.000 N 
ATOM     44  C   UNL     1      -5.749   3.650 128.205  0.00  0.00    +0.000 C 
ATOM     45  O   UNL     1      -6.318   2.828 127.583  0.00  0.00    +0.000 OA
ATOM     46  H   UNL     1      -3.734   3.923 128.056  0.00  0.00    +0.000 HD
BRANCH  43  47
ATOM     47  C   UNL     1      -3.496   2.984 126.383  0.00  0.00    +0.000 C 
BRANCH  47  49
ATOM     48  N   UNL     1      -2.280   4.304 127.471  0.00  0.00    +0.000 N 
ATOM     49  C   UNL     1      -2.161   3.279 126.732  0.00  0.00    +0.000 C 
ATOM     50  O   UNL     1      -1.120   2.674 126.794  0.00  0.00    +0.000 OA
ATOM     51  H   UNL     1      -1.515   4.453 128.277  0.00  0.00    +0.000 HD
ATOM     52  H   UNL     1      -3.484   4.346 128.059  0.00  0.00    +0.000 HD
ENDBRANCH  47  49
ENDBRANCH  43  47
ENDBRANCH  42  44
BRANCH  42  53
ATOM     53  C   UNL     1      -7.425   3.756 129.077  0.00  0.00    +0.000 C 
BRANCH  53  54
ATOM     54  C   UNL     1      -8.580   4.960 130.377  0.00  0.00    +0.000 C 
BRANCH  54  55
ATOM     55  C   UNL     1      -9.951   5.709 129.755  0.00  0.00    +0.000 C 
BRANCH  55  56
ATOM     56  N   UNL     1      -9.822   6.396 128.587  0.00  0.00    +0.000 NA
ATOM     57  C   UNL     1     -10.583   7.428 128.545  0.00  0.00    +0.000 C 
ATOM     58  N   UNL     1     -11.310   8.017 129.552  0.00  0.00    +0.000 N 
ATOM     59  N   UNL     1     -10.683   7.898 127.283  0.00  0.00    +0.000 N 
ATOM     60  H   UNL     1     -11.267   7.704 130.522  0.00  0.00    +0.000 HD
ATOM     61  H   UNL     1     -11.891   8.826 129.445  0.00  0.00    +0.000 HD
ATOM     62  H   UNL     1     -10.157   7.461 126.510  0.00  0.00    +0.000 HD
ATOM     63  H   UNL     1     -11.243   8.681 127.018  0.00  0.00    +0.000 HD
ENDBRANCH  55  56
ENDBRANCH  54  55
ENDBRANCH  53  54
ENDBRANCH  42  53
ENDBRANCH  38  42
ENDBRANCH  31  39
ENDBRANCH   1  36
BRANCH  10  64
ATOM     64  C   UNL     1      -6.254  -2.280 137.301  0.00  0.00    +0.000 C 
BRANCH  64  65
ATOM     65  C   UNL     1      -7.242  -1.816 138.742  0.00  0.00    +0.000 A 
ATOM     66  C   UNL     1      -6.615  -0.831 139.324  0.00  0.00    +0.000 A 
ATOM     67  C   UNL     1      -7.364  -0.223 140.222  0.00  0.00    +0.000 A 
ATOM     68  C   UNL     1      -8.743  -0.400 140.305  0.00  0.00    +0.000 A 
ATOM     69  C   UNL     1      -9.495  -1.175 139.497  0.00  0.00    +0.000 A 
ATOM     70  C   UNL     1      -8.817  -1.907 138.695  0.00  0.00    +0.000 A 
BRANCH  68  71
ATOM     71  O   UNL     1      -9.500   0.197 141.240  0.00  0.00    +0.000 OA
ATOM     72  H   UNL     1      -9.526   1.156 141.164  0.00  0.00    +0.000 HD
ENDBRANCH  68  71
ENDBRANCH  64  65
ENDBRANCH  10  64
BRANCH  14  73
ATOM     73  C   UNL     1      -3.214  -0.867 135.303  0.00  0.00    +0.000 C 
BRANCH  73  74
ATOM     74  C   UNL     1      -1.756  -1.142 135.729  0.00  0.00    +0.000 A 
ATOM     75  C   UNL     1      -0.594  -2.070 134.656  0.00  0.00    +0.000 A 
ATOM     76  C   UNL     1       0.401  -2.663 135.094  0.00  0.00    +0.000 A 
ATOM     77  C   UNL     1       0.277  -2.747 136.438  0.00  0.00    +0.000 A 
ATOM     78  C   UNL     1      -0.729  -2.186 137.364  0.00  0.00    +0.000 A 
ATOM     79  C   UNL     1      -1.745  -1.350 137.017  0.00  0.00    +0.000 A 
ENDBRANCH  73  74
ENDBRANCH  14  73
BRANCH  18  80
ATOM     80  C   UNL     1      -5.971   1.682 132.841  0.00  0.00    +0.000 C 
BRANCH  80  81
ATOM     81  C   UNL     1      -7.386   1.754 132.591  0.00  0.00    +0.000 A 
ATOM     82  C   UNL     1      -8.081   2.608 133.346  0.00  0.00    +0.000 A 
ATOM     83  C   UNL     1      -9.382   2.626 133.047  0.00  0.00    +0.000 A 
ATOM     84  C   UNL     1      -9.637   1.822 131.992  0.00  0.00    +0.000 A 
ATOM     85  S   UNL     1      -8.316   0.911 131.465  0.00  0.00    +0.000 S 
ENDBRANCH  80  81
ENDBRANCH  18  80
BRANCH  22  86
ATOM     86  C   UNL     1      -4.945   5.224 134.112  0.00  0.00    +0.000 C 
BRANCH  86  87
ATOM     87  C   UNL     1      -5.935   5.751 134.943  0.00  0.00    +0.000 C 
ATOM     88  N   UNL     1      -7.103   5.820 134.282  0.00  0.00    +0.000 N 
ATOM     89  O   UNL     1      -5.777   6.056 136.102  0.00  0.00    +0.000 OA
ATOM     90  H   UNL     1      -7.220   5.440 133.342  0.00  0.00    +0.000 HD
ATOM     91  H   UNL     1      -7.885   6.203 134.729  0.00  0.00    +0.000 HD
ENDBRANCH  86  87
ENDBRANCH  22  86
TORSDOF 19
ENDMDL
MODEL 2
REMARK VINA RESULT:      -9.3      1.546      1.854
REMARK  Name = CHEMBL2369848
REMARK  19 active torsions:
REMARK  status: ('A' for Active; 'I' for Inactive)
REMARK    1  A    between atoms: C_2  and  C_4
REMARK    2  A    between atoms: C_4  and  N_5
REMARK    3  A    between atoms: C_6  and  C_8
REMARK    4  A    between atoms: C_8  and  C_9
REMARK    5  A    between atoms: C_8  and  N_16
REMARK    6  A    between atoms: C_9  and  C_10
REMARK    7  A    between atoms: C_10  and  C_11
REMARK    8  A    between atoms: C_11  and  N_12
REMARK    9  A    between atoms: C_17  and  C_19
REMARK   10  A    between atoms: C_24  and  C_26
REMARK   11  A    between atoms: C_35  and  C_36
REMARK   12  A    between atoms: C_36  and  C_37
REMARK   13  A    between atoms: C_40  and  O_41
REMARK   14  A    between atoms: C_47  and  C_48
REMARK   15  A    between atoms: C_48  and  C_49
REMARK   16  A    between atoms: C_58  and  C_59
REMARK   17  A    between atoms: C_59  and  C_60
REMARK   18  A    between atoms: C_68  and  C_69
REMARK   19  A    between atoms: C_69  and  C_70
REMARK                            x       y       z     vdW  Elec       q    Type
REMARK                         _______ _______ _______ _____ _____    ______ ____
ROOT
ATOM      1  C   UNL     1      -3.580   2.766 132.464  0.00  0.00    +0.000 C 
ATOM      2  C   UNL     1      -4.077   0.462 131.891  0.00  0.00    +0.000 C 
ATOM      3  S   UNL     1      -5.128  -2.103 131.919  0.00  0.00    +0.000 S 
ATOM      4  S   UNL     1      -5.765  -4.809 132.362  0.00  0.00    +0.000 S 
ATOM      5  C   UNL     1      -6.336  -5.411 134.228  0.00  0.00    +0.000 C 
ATOM      6  C   UNL     1      -6.112  -6.408 135.369  0.00  0.00    +0.000 C 
ATOM      7  C   UNL     1      -6.161  -5.886 136.828  0.00  0.00    +0.000 C 
ATOM      8  O   UNL     1      -6.176  -6.662 137.780  0.00  0.00    +0.000 OA
ATOM      9  N   UNL     1      -6.144  -4.546 137.037  0.00  0.00    +0.000 N 
ATOM     10  C   UNL     1      -6.140  -3.680 135.925  0.00  0.00    +0.000 C 
ATOM     11  C   UNL     1      -4.663  -3.691 135.226  0.00  0.00    +0.000 C 
ATOM     12  O   UNL     1      -4.116  -4.706 134.766  0.00  0.00    +0.000 OA
ATOM     13  N   UNL     1      -4.012  -2.672 134.845  0.00  0.00    +0.000 N 
ATOM     14  C   UNL     1      -4.295  -1.506 135.289  0.00  0.00    +0.000 C 
ATOM     15  C   UNL     1      -5.864  -0.937 134.381  0.00  0.00    +0.000 C 
ATOM     16  O   UNL     1      -7.032  -1.322 134.622  0.00  0.00    +0.000 OA
ATOM     17  N   UNL     1      -5.916   0.462 134.036  0.00  0.00    +0.000 N 
ATOM     18  C   UNL     1      -4.897   1.388 134.324  0.00  0.00    +0.000 C 
ATOM     19  C   UNL     1      -4.289   2.130 136.339  0.00  0.00    +0.000 C 
ATOM     20  O   UNL     1      -3.420   1.480 137.344  0.00  0.00    +0.000 OA
ATOM     21  N   UNL     1      -3.983   3.351 136.359  0.00  0.00    +0.000 N 
ATOM     22  C   UNL     1      -4.107   4.092 135.118  0.00  0.00    +0.000 C 
ATOM     23  C   UNL     1      -2.661   3.242 133.694  0.00  0.00    +0.000 C 
ATOM     24  O   UNL     1      -2.317   2.016 133.289  0.00  0.00    +0.000 OA
ATOM     25  N   UNL     1      -2.444   4.065 132.674  0.00  0.00    +0.000 N 
ATOM     26  H   UNL     1      -6.222  -4.141 137.989  0.00  0.00    +0.000 HD
ATOM     27  H   UNL     1      -3.129  -2.726 134.406  0.00  0.00    +0.000 HD
ATOM     28  H   UNL     1      -6.748   0.987 133.948  0.00  0.00    +0.000 HD
ATOM     29  H   UNL     1      -3.190   3.380 136.934  0.00  0.00    +0.000 HD
ATOM     30  H   UNL     1      -1.791   4.953 132.390  0.00  0.00    +0.000 HD
ENDROOT
BRANCH   1  36
ATOM     31  C   UNL     1      -3.490   8.250 132.677  0.00  0.00    +0.000 C 
ATOM     32  C   UNL     1      -2.335   9.016 131.855  0.00  0.00    +0.000 C 
ATOM     33  C   UNL     1      -1.938  10.130 132.707  0.00  0.00    +0.000 C 
ATOM     34  C   UNL     1      -2.305   8.975 134.254  0.00  0.00    +0.000 C 
ATOM     35  N   UNL     1      -3.178   7.022 134.044  0.00  0.00    +0.000 N 
ATOM     36  C   UNL     1      -3.163   4.927 133.748  0.00  0.00    +0.000 C 
ATOM     37  O   UNL     1      -3.037   5.699 135.001  0.00  0.00    +0.000 OA
BRANCH  31  39
ATOM     38  N   UNL     1      -4.984   6.627 131.678  0.00  0.00    +0.000 N 
ATOM     39  C   UNL     1      -3.940   7.181 132.008  0.00  0.00    +0.000 C 
ATOM     40  O   UNL     1      -3.138   6.538 131.480  0.00  0.00    +0.000 OA
ATOM     41  H   UNL     1      -5.750   6.880 132.178  0.00  0.00    +0.000 HD
BRANCH  38  42
ATOM     42  C   UNL     1      -5.005   5.567 130.819  0.00  0.00    +0.000 C 
BRANCH  42  44
ATOM     43  N   UNL     1      -2.842   4.900 128.872  0.00  0.00    +0.000 N 
ATOM     44  C   UNL     1      -4.236   5.618 129.598  0.00  0.00    +0.000 C 
ATOM     45  O   UNL     1      -4.823   5.921 128.623  0.00  0.00    +0.000 OA
ATOM     46  H   UNL     1      -2.745   4.227 129.580  0.00  0.00    +0.000 HD
BRANCH  43  47
ATOM     47  C   UNL     1      -2.421   4.259 127.674  0.00  0.00    +0.000 C 
BRANCH  47  49
ATOM     48  N   UNL     1      -2.556   2.422 126.665  0.00  0.00    +0.000 N 
ATOM     49  C   UNL     1      -3.064   3.002 127.675  0.00  0.00    +0.000 C 
ATOM     50  O   UNL     1      -3.620   2.305 128.486  0.00  0.00    +0.000 OA
ATOM     51  H   UNL     1      -2.467   1.305 126.699  0.00  0.00    +0.000 HD
ATOM     52  H   UNL     1      -1.338   2.906 126.385  0.00  0.00    +0.000 HD
ENDBRANCH  47  49
ENDBRANCH  43  47
ENDBRANCH  42  44
BRANCH  42  53
ATOM     53  C   UNL     1      -6.051   5.812 130.095  0.00  0.00    +0.000 C 
BRANCH  53  54
ATOM     54  C   UNL     1      -7.497   6.398 131.523  0.00  0.00    +0.000 C 
BRANCH  54  55
ATOM     55  C   UNL     1      -9.047   6.759 130.980  0.00  0.00    +0.000 C 
BRANCH  55  56
ATOM     56  N   UNL     1      -9.163   7.544 129.874  0.00  0.00    +0.000 NA
ATOM     57  C   UNL     1     -10.386   7.726 129.533  0.00  0.00    +0.000 C 
ATOM     58  N   UNL     1     -11.537   7.428 130.224  0.00  0.00    +0.000 N 
ATOM     59  N   UNL     1     -10.466   8.220 128.279  0.00  0.00    +0.000 N 
ATOM     60  H   UNL     1     -11.532   7.057 131.175  0.00  0.00    +0.000 HD
ATOM     61  H   UNL     1     -12.467   7.595 129.892  0.00  0.00    +0.000 HD
ATOM     62  H   UNL     1      -9.615   8.437 127.739  0.00  0.00    +0.000 HD
ATOM     63  H   UNL     1     -11.324   8.414 127.805  0.00  0.00    +0.000 HD
ENDBRANCH  55  56
ENDBRANCH  54  55
ENDBRANCH  53  54
ENDBRANCH  42  53
ENDBRANCH  38  42
ENDBRANCH  31  39
ENDBRANCH   1  36
BRANCH  10  64
ATOM     64  C   UNL     1      -6.372  -2.480 136.476  0.00  0.00    +0.000 C 
BRANCH  64  65
ATOM     65  C   UNL     1      -7.488  -2.342 137.892  0.00  0.00    +0.000 A 
ATOM     66  C   UNL     1      -6.993  -1.417 138.669  0.00  0.00    +0.000 A 
ATOM     67  C   UNL     1      -7.850  -1.029 139.591  0.00  0.00    +0.000 A 
ATOM     68  C   UNL     1      -9.209  -1.329 139.539  0.00  0.00    +0.000 A 
ATOM     69  C   UNL     1      -9.833  -2.020 138.563  0.00  0.00    +0.000 A 
ATOM     70  C   UNL     1      -9.041  -2.553 137.710  0.00  0.00    +0.000 A 
BRANCH  68  71
ATOM     71  O   UNL     1     -10.076  -0.958 140.495  0.00  0.00    +0.000 OA
ATOM     72  H   UNL     1     -10.155  -1.593 141.214  0.00  0.00    +0.000 HD
ENDBRANCH  68  71
ENDBRANCH  64  65
ENDBRANCH  10  64
BRANCH  14  73
ATOM     73  C   UNL     1      -3.041  -0.865 135.240  0.00  0.00    +0.000 C 
BRANCH  73  74
ATOM     74  C   UNL     1      -1.679  -1.343 135.788  0.00  0.00    +0.000 A 
ATOM     75  C   UNL     1      -0.438  -2.159 134.712  0.00  0.00    +0.000 A 
ATOM     76  C   UNL     1       0.444  -2.909 135.150  0.00  0.00    +0.000 A 
ATOM     77  C   UNL     1       0.124  -3.228 136.424  0.00  0.00    +0.000 A 
ATOM     78  C   UNL     1      -0.965  -2.759 137.305  0.00  0.00    +0.000 A 
ATOM     79  C   UNL     1      -1.865  -1.786 137.001  0.00  0.00    +0.000 A 
ENDBRANCH  73  74
ENDBRANCH  14  73
BRANCH  18  80
ATOM     80  C   UNL     1      -5.331   2.520 133.380  0.00  0.00    +0.000 C 
BRANCH  80  81
ATOM     81  C   UNL     1      -6.704   2.850 133.108  0.00  0.00    +0.000 A 
ATOM     82  C   UNL     1      -7.162   2.538 131.894  0.00  0.00    +0.000 A 
ATOM     83  C   UNL     1      -8.446   2.865 131.723  0.00  0.00    +0.000 A 
ATOM     84  C   UNL     1      -8.966   3.358 132.868  0.00  0.00    +0.000 A 
ATOM     85  S   UNL     1      -7.846   3.581 134.112  0.00  0.00    +0.000 S 
ENDBRANCH  80  81
ENDBRANCH  18  80
BRANCH  22  86
ATOM     86  C   UNL     1      -4.217   5.453 135.697  0.00  0.00    +0.000 C 
BRANCH  86  87
ATOM     87  C   UNL     1      -5.104   5.757 136.732  0.00  0.00    +0.000 C 
ATOM     88  N   UNL     1      -4.567   6.687 137.540  0.00  0.00    +0.000 N 
ATOM     89  O   UNL     1      -6.210   5.288 136.857  0.00  0.00    +0.000 OA
ATOM     90  H   UNL     1      -3.679   7.144 137.331  0.00  0.00    +0.000 HD
ATOM     91  H   UNL     1      -5.061   6.975 138.334  0.00  0.00    +0.000 HD
ENDBRANCH  86  87
ENDBRANCH  22  86
TORSDOF 19
ENDMDL
MODEL 3
REMARK VINA RESULT:      -9.0      3.806      8.137
REMARK  Name = CHEMBL2369848
REMARK  19 active torsions:
REMARK  status: ('A' for Active; 'I' for Inactive)
REMARK    1  A    between atoms: C_2  and  C_4
REMARK    2  A    between atoms: C_4  and  N_5
REMARK    3  A    between atoms: C_6  and  C_8
REMARK    4  A    between atoms: C_8  and  C_9
REMARK    5  A    between atoms: C_8  and  N_16
REMARK    6  A    between atoms: C_9  and  C_10
REMARK    7  A    between atoms: C_10  and  C_11
REMARK    8  A    between atoms: C_11  and  N_12
REMARK    9  A    between atoms: C_17  and  C_19
REMARK   10  A    between atoms: C_24  and  C_26
REMARK   11  A    between atoms: C_35  and  C_36
REMARK   12  A    between atoms: C_36  and  C_37
REMARK   13  A    between atoms: C_40  and  O_41
REMARK   14  A    between atoms: C_47  and  C_48
REMARK   15  A    between atoms: C_48  and  C_49
REMARK   16  A    between atoms: C_58  and  C_59
REMARK   17  A    between atoms: C_59  and  C_60
REMARK   18  A    between atoms: C_68  and  C_69
REMARK   19  A    between atoms: C_69  and  C_70
REMARK                            x       y       z     vdW  Elec       q    Type
REMARK                         _______ _______ _______ _____ _____    ______ ____
ROOT
ATOM      1  C   UNL     1      -4.833   1.996 132.024  0.00  0.00    +0.000 C 
ATOM      2  C   UNL     1      -4.027   1.784 134.302  0.00  0.00    +0.000 C 
ATOM      3  S   UNL     1      -3.640   2.178 137.019  0.00  0.00    +0.000 S 
ATOM      4  S   UNL     1      -2.883   3.025 139.594  0.00  0.00    +0.000 S 
ATOM      5  C   UNL     1      -3.311   4.932 140.188  0.00  0.00    +0.000 C 
ATOM      6  C   UNL     1      -2.765   6.232 140.788  0.00  0.00    +0.000 C 
ATOM      7  C   UNL     1      -3.259   7.580 140.203  0.00  0.00    +0.000 C 
ATOM      8  O   UNL     1      -3.006   8.645 140.762  0.00  0.00    +0.000 OA
ATOM      9  N   UNL     1      -3.945   7.567 139.034  0.00  0.00    +0.000 N 
ATOM     10  C   UNL     1      -4.232   6.329 138.423  0.00  0.00    +0.000 C 
ATOM     11  C   UNL     1      -2.874   5.720 137.749  0.00  0.00    +0.000 C 
ATOM     12  O   UNL     1      -1.836   5.463 138.381  0.00  0.00    +0.000 OA
ATOM     13  N   UNL     1      -2.780   5.213 136.592  0.00  0.00    +0.000 N 
ATOM     14  C   UNL     1      -3.665   5.443 135.698  0.00  0.00    +0.000 C 
ATOM     15  C   UNL     1      -5.175   4.372 136.128  0.00  0.00    +0.000 C 
ATOM     16  O   UNL     1      -6.011   4.611 137.030  0.00  0.00    +0.000 OA
ATOM     17  N   UNL     1      -5.876   3.800 135.007  0.00  0.00    +0.000 N 
ATOM     18  C   UNL     1      -5.508   3.985 133.662  0.00  0.00    +0.000 C 
ATOM     19  C   UNL     1      -5.623   5.880 132.488  0.00  0.00    +0.000 C 
ATOM     20  O   UNL     1      -4.683   7.022 132.477  0.00  0.00    +0.000 OA
ATOM     21  N   UNL     1      -5.977   5.716 131.292  0.00  0.00    +0.000 N 
ATOM     22  C   UNL     1      -6.294   4.365 130.868  0.00  0.00    +0.000 C 
ATOM     23  C   UNL     1      -4.446   3.178 131.005  0.00  0.00    +0.000 C 
ATOM     24  O   UNL     1      -3.484   2.999 131.915  0.00  0.00    +0.000 OA
ATOM     25  N   UNL     1      -4.542   2.049 130.311  0.00  0.00    +0.000 N 
ATOM     26  H   UNL     1      -4.338   8.434 138.621  0.00  0.00    +0.000 HD
ATOM     27  H   UNL     1      -1.941   4.835 136.233  0.00  0.00    +0.000 HD
ATOM     28  H   UNL     1      -6.840   3.582 135.000  0.00  0.00    +0.000 HD
ATOM     29  H   UNL     1      -5.388   6.319 130.792  0.00  0.00    +0.000 HD
ATOM     30  H   UNL     1      -4.393   1.658 129.253  0.00  0.00    +0.000 HD
ENDROOT
BRANCH   1  36
ATOM     31  C   UNL     1      -6.970   1.220 127.028  0.00  0.00    +0.000 C 
ATOM     32  C   UNL     1      -6.010   0.611 125.886  0.00  0.00    +0.000 C 
ATOM     33  C   UNL     1      -6.375   1.320 124.665  0.00  0.00    +0.000 C 
ATOM     34  C   UNL     1      -6.735   2.896 125.782  0.00  0.00    +0.000 C 
ATOM     35  N   UNL     1      -6.657   2.821 127.930  0.00  0.00    +0.000 N 
ATOM     36  C   UNL     1      -5.729   2.927 129.829  0.00  0.00    +0.000 C 
ATOM     37  O   UNL     1      -6.323   4.006 129.011  0.00  0.00    +0.000 OA
BRANCH  31  39
ATOM     38  N   UNL     1      -7.298   0.299 129.244  0.00  0.00    +0.000 N 
ATOM     39  C   UNL     1      -6.726   0.662 128.220  0.00  0.00    +0.000 C 
ATOM     40  O   UNL     1      -5.638   0.322 128.409  0.00  0.00    +0.000 OA
ATOM     41  H   UNL     1      -8.162   0.671 129.375  0.00  0.00    +0.000 HD
BRANCH  38  42
ATOM     42  C   UNL     1      -6.659  -0.399 130.226  0.00  0.00    +0.000 C 
BRANCH  42  44
ATOM     43  N   UNL     1      -4.349  -2.282 130.040  0.00  0.00    +0.000 N 
ATOM     44  C   UNL     1      -5.931  -1.601 129.894  0.00  0.00    +0.000 C 
ATOM     45  O   UNL     1      -6.561  -2.594 129.835  0.00  0.00    +0.000 OA
ATOM     46  H   UNL     1      -4.028  -1.563 130.627  0.00  0.00    +0.000 HD
BRANCH  43  47
ATOM     47  C   UNL     1      -3.686  -3.460 130.481  0.00  0.00    +0.000 C 
BRANCH  47  49
ATOM     48  N   UNL     1      -4.836  -4.138 132.101  0.00  0.00    +0.000 N 
ATOM     49  C   UNL     1      -3.792  -3.448 131.888  0.00  0.00    +0.000 C 
ATOM     50  O   UNL     1      -3.045  -3.280 132.819  0.00  0.00    +0.000 OA
ATOM     51  H   UNL     1      -4.888  -4.718 133.059  0.00  0.00    +0.000 HD
ATOM     52  H   UNL     1      -5.062  -5.004 131.104  0.00  0.00    +0.000 HD
ENDBRANCH  47  49
ENDBRANCH  43  47
ENDBRANCH  42  44
BRANCH  42  53
ATOM     53  C   UNL     1      -7.597  -1.169 130.679  0.00  0.00    +0.000 C 
BRANCH  53  54
ATOM     54  C   UNL     1      -7.197  -1.245 132.755  0.00  0.00    +0.000 C 
BRANCH  54  55
ATOM     55  C   UNL     1      -7.908  -2.475 133.655  0.00  0.00    +0.000 C 
BRANCH  55  56
ATOM     56  N   UNL     1      -7.190  -3.615 133.846  0.00  0.00    +0.000 NA
ATOM     57  C   UNL     1      -7.738  -4.397 134.703  0.00  0.00    +0.000 C 
ATOM     58  N   UNL     1      -8.993  -4.335 135.261  0.00  0.00    +0.000 N 
ATOM     59  N   UNL     1      -6.868  -5.343 135.113  0.00  0.00    +0.000 N 
ATOM     60  H   UNL     1      -9.689  -3.642 134.983  0.00  0.00    +0.000 HD
ATOM     61  H   UNL     1      -9.357  -4.983 135.933  0.00  0.00    +0.000 HD
ATOM     62  H   UNL     1      -5.916  -5.398 134.718  0.00  0.00    +0.000 HD
ATOM     63  H   UNL     1      -7.078  -6.042 135.796  0.00  0.00    +0.000 HD
ENDBRANCH  55  56
ENDBRANCH  54  55
ENDBRANCH  53  54
ENDBRANCH  42  53
ENDBRANCH  38  42
ENDBRANCH  31  39
ENDBRANCH   1  36
BRANCH  10  64
ATOM     64  C   UNL     1      -5.106   6.663 137.461  0.00  0.00    +0.000 C 
BRANCH  64  65
ATOM     65  C   UNL     1      -6.601   7.585 137.886  0.00  0.00    +0.000 A 
ATOM     66  C   UNL     1      -6.412   8.811 137.478  0.00  0.00    +0.000 A 
ATOM     67  C   UNL     1      -7.527   9.514 137.479  0.00  0.00    +0.000 A 
ATOM     68  C   UNL     1      -8.789   8.936 137.588  0.00  0.00    +0.000 A 
ATOM     69  C   UNL     1      -9.053   7.617 137.685  0.00  0.00    +0.000 A 
ATOM     70  C   UNL     1      -8.014   6.884 137.837  0.00  0.00    +0.000 A 
BRANCH  68  71
ATOM     71  O   UNL     1      -9.921   9.657 137.618  0.00  0.00    +0.000 OA
ATOM     72  H   UNL     1      -9.825  10.511 138.050  0.00  0.00    +0.000 HD
ENDBRANCH  68  71
ENDBRANCH  64  65
ENDBRANCH  10  64
BRANCH  14  73
ATOM     73  C   UNL     1      -2.909   5.355 134.512  0.00  0.00    +0.000 C 
BRANCH  73  74
ATOM     74  C   UNL     1      -1.578   6.051 134.150  0.00  0.00    +0.000 A 
ATOM     75  C   UNL     1      -1.174   7.735 134.753  0.00  0.00    +0.000 A 
ATOM     76  C   UNL     1      -0.364   8.478 134.184  0.00  0.00    +0.000 A 
ATOM     77  C   UNL     1      -0.113   7.960 132.960  0.00  0.00    +0.000 A 
ATOM     78  C   UNL     1      -0.547   6.699 132.325  0.00  0.00    +0.000 A 
ATOM     79  C   UNL     1      -1.266   5.715 132.929  0.00  0.00    +0.000 A 
ENDBRANCH  73  74
ENDBRANCH  14  73
BRANCH  18  80
ATOM     80  C   UNL     1      -6.325   2.847 133.032  0.00  0.00    +0.000 C 
BRANCH  80  81
ATOM     81  C   UNL     1      -7.763   2.835 132.971  0.00  0.00    +0.000 A 
ATOM     82  C   UNL     1      -8.324   1.793 132.354  0.00  0.00    +0.000 A 
ATOM     83  C   UNL     1      -9.659   1.850 132.349  0.00  0.00    +0.000 A 
ATOM     84  C   UNL     1     -10.091   2.921 133.049  0.00  0.00    +0.000 A 
ATOM     85  S   UNL     1      -8.867   3.957 133.577  0.00  0.00    +0.000 S 
ENDBRANCH  80  81
ENDBRANCH  18  80
BRANCH  22  86
ATOM     86  C   UNL     1      -7.147   4.706 129.703  0.00  0.00    +0.000 C 
BRANCH  86  87
ATOM     87  C   UNL     1      -8.375   5.357 129.839  0.00  0.00    +0.000 C 
ATOM     88  N   UNL     1      -9.375   4.460 129.828  0.00  0.00    +0.000 N 
ATOM     89  O   UNL     1      -8.514   6.547 129.992  0.00  0.00    +0.000 OA
ATOM     90  H   UNL     1      -9.205   3.454 129.818  0.00  0.00    +0.000 HD
ATOM     91  H   UNL     1     -10.301   4.774 129.880  0.00  0.00    +0.000 HD
ENDBRANCH  86  87
ENDBRANCH  22  86
TORSDOF 19
ENDMDL
MODEL 4
REMARK VINA RESULT:      -8.8      1.769      2.372
REMARK  Name = CHEMBL2369848
REMARK  19 active torsions:
REMARK  status: ('A' for Active; 'I' for Inactive)
REMARK    1  A    between atoms: C_2  and  C_4
REMARK    2  A    between atoms: C_4  and  N_5
REMARK    3  A    between atoms: C_6  and  C_8
REMARK    4  A    between atoms: C_8  and  C_9
REMARK    5  A    between atoms: C_8  and  N_16
REMARK    6  A    between atoms: C_9  and  C_10
REMARK    7  A    between atoms: C_10  and  C_11
REMARK    8  A    between atoms: C_11  and  N_12
REMARK    9  A    between atoms: C_17  and  C_19
REMARK   10  A    between atoms: C_24  and  C_26
REMARK   11  A    between atoms: C_35  and  C_36
REMARK   12  A    between atoms: C_36  and  C_37
REMARK   13  A    between atoms: C_40  and  O_41
REMARK   14  A    between atoms: C_47  and  C_48
REMARK   15  A    between atoms: C_48  and  C_49
REMARK   16  A    between atoms: C_58  and  C_59
REMARK   17  A    between atoms: C_59  and  C_60
REMARK   18  A    between atoms: C_68  and  C_69
REMARK   19  A    between atoms: C_69  and  C_70
REMARK                            x       y       z     vdW  Elec       q    Type
REMARK                         _______ _______ _______ _____ _____    ______ ____
ROOT
ATOM      1  C   UNL     1      -3.983   2.205 132.426  0.00  0.00    +0.000 C 
ATOM      2  C   UNL     1      -4.467  -0.156 132.154  0.00  0.00    +0.000 C 
ATOM      3  S   UNL     1      -5.423  -2.726 132.568  0.00  0.00    +0.000 S 
ATOM      4  S   UNL     1      -5.916  -5.382 133.356  0.00  0.00    +0.000 S 
ATOM      5  C   UNL     1      -6.251  -5.796 135.328  0.00  0.00    +0.000 C 
ATOM      6  C   UNL     1      -5.865  -6.662 136.531  0.00  0.00    +0.000 C 
ATOM      7  C   UNL     1      -5.764  -5.989 137.925  0.00  0.00    +0.000 C 
ATOM      8  O   UNL     1      -5.645  -6.661 138.947  0.00  0.00    +0.000 OA
ATOM      9  N   UNL     1      -5.767  -4.635 137.992  0.00  0.00    +0.000 N 
ATOM     10  C   UNL     1      -5.918  -3.891 136.804  0.00  0.00    +0.000 C 
ATOM     11  C   UNL     1      -4.531  -3.945 135.942  0.00  0.00    +0.000 C 
ATOM     12  O   UNL     1      -4.008  -4.992 135.527  0.00  0.00    +0.000 OA
ATOM     13  N   UNL     1      -3.962  -2.959 135.386  0.00  0.00    +0.000 N 
ATOM     14  C   UNL     1      -4.231  -1.759 135.738  0.00  0.00    +0.000 C 
ATOM     15  C   UNL     1      -5.911  -1.321 134.965  0.00  0.00    +0.000 C 
ATOM     16  O   UNL     1      -7.030  -1.703 135.380  0.00  0.00    +0.000 OA
ATOM     17  N   UNL     1      -6.047   0.032 134.488  0.00  0.00    +0.000 N 
ATOM     18  C   UNL     1      -5.034   1.004 134.558  0.00  0.00    +0.000 C 
ATOM     19  C   UNL     1      -4.225   1.967 136.402  0.00  0.00    +0.000 C 
ATOM     20  O   UNL     1      -3.225   1.445 137.359  0.00  0.00    +0.000 OA
ATOM     21  N   UNL     1      -3.958   3.189 136.261  0.00  0.00    +0.000 N 
ATOM     22  C   UNL     1      -4.247   3.793 134.974  0.00  0.00    +0.000 C 
ATOM     23  C   UNL     1      -2.946   2.827 133.485  0.00  0.00    +0.000 C 
ATOM     24  O   UNL     1      -2.610   1.573 133.170  0.00  0.00    +0.000 OA
ATOM     25  N   UNL     1      -2.874   3.543 132.367  0.00  0.00    +0.000 N 
ATOM     26  H   UNL     1      -5.749  -4.133 138.900  0.00  0.00    +0.000 HD
ATOM     27  H   UNL     1      -3.134  -3.041 134.854  0.00  0.00    +0.000 HD
ATOM     28  H   UNL     1      -6.901   0.528 134.444  0.00  0.00    +0.000 HD
ATOM     29  H   UNL     1      -3.106   3.295 136.733  0.00  0.00    +0.000 HD
ATOM     30  H   UNL     1      -2.287   4.409 131.920  0.00  0.00    +0.000 HD
ENDROOT
BRANCH   1  36
ATOM     31  C   UNL     1      -3.986   7.680 132.036  0.00  0.00    +0.000 C 
ATOM     32  C   UNL     1      -2.928   8.364 131.031  0.00  0.00    +0.000 C 
ATOM     33  C   UNL     1      -2.476   9.568 131.717  0.00  0.00    +0.000 C 
ATOM     34  C   UNL     1      -2.675   8.586 133.407  0.00  0.00    +0.000 C 
ATOM     35  N   UNL     1      -3.524   6.612 133.493  0.00  0.00    +0.000 N 
ATOM     36  C   UNL     1      -3.493   4.497 133.424  0.00  0.00    +0.000 C 
ATOM     37  O   UNL     1      -3.268   5.403 134.569  0.00  0.00    +0.000 OA
BRANCH  31  39
ATOM     38  N   UNL     1      -5.526   5.921 131.403  0.00  0.00    +0.000 N 
ATOM     39  C   UNL     1      -4.474   6.540 131.531  0.00  0.00    +0.000 C 
ATOM     40  O   UNL     1      -3.724   5.880 130.950  0.00  0.00    +0.000 OA
ATOM     41  H   UNL     1      -6.225   6.192 131.986  0.00  0.00    +0.000 HD
BRANCH  38  42
ATOM     42  C   UNL     1      -5.616   4.788 130.649  0.00  0.00    +0.000 C 
BRANCH  42  44
ATOM     43  N   UNL     1      -3.768   3.679 128.583  0.00  0.00    +0.000 N 
ATOM     44  C   UNL     1      -4.899   4.700 129.399  0.00  0.00    +0.000 C 
ATOM     45  O   UNL     1      -5.415   5.197 128.464  0.00  0.00    +0.000 OA
ATOM     46  H   UNL     1      -3.832   2.968 129.257  0.00  0.00    +0.000 HD
BRANCH  43  47
ATOM     47  C   UNL     1      -3.570   3.014 127.342  0.00  0.00    +0.000 C 
BRANCH  47  49
ATOM     48  N   UNL     1      -2.048   4.458 127.411  0.00  0.00    +0.000 N 
ATOM     49  C   UNL     1      -2.230   3.276 126.984  0.00  0.00    +0.000 C 
ATOM     50  O   UNL     1      -1.247   2.623 126.740  0.00  0.00    +0.000 OA
ATOM     51  H   UNL     1      -1.011   4.739 127.733  0.00  0.00    +0.000 HD
ATOM     52  H   UNL     1      -2.869   4.742 128.431  0.00  0.00    +0.000 HD
ENDBRANCH  47  49
ENDBRANCH  43  47
ENDBRANCH  42  44
BRANCH  42  53
ATOM     53  C   UNL     1      -6.685   5.002 129.948  0.00  0.00    +0.000 C 
BRANCH  53  54
ATOM     54  C   UNL     1      -7.618   3.104 129.902  0.00  0.00    +0.000 C 
BRANCH  54  55
ATOM     55  C   UNL     1      -7.320   2.107 128.581  0.00  0.00    +0.000 C 
BRANCH  55  56
ATOM     56  N   UNL     1      -7.781   0.827 128.637  0.00  0.00    +0.000 NA
ATOM     57  C   UNL     1      -6.833  -0.034 128.569  0.00  0.00    +0.000 C 
ATOM     58  N   UNL     1      -5.474   0.156 128.660  0.00  0.00    +0.000 N 
ATOM     59  N   UNL     1      -7.321  -1.264 128.301  0.00  0.00    +0.000 N 
ATOM     60  H   UNL     1      -5.055   1.064 128.865  0.00  0.00    +0.000 HD
ATOM     61  H   UNL     1      -4.786  -0.568 128.593  0.00  0.00    +0.000 HD
ATOM     62  H   UNL     1      -8.336  -1.425 128.215  0.00  0.00    +0.000 HD
ATOM     63  H   UNL     1      -6.756  -2.079 128.182  0.00  0.00    +0.000 HD
ENDBRANCH  55  56
ENDBRANCH  54  55
ENDBRANCH  53  54
ENDBRANCH  42  53
ENDBRANCH  38  42
ENDBRANCH  31  39
ENDBRANCH   1  36
BRANCH  10  64
ATOM     64  C   UNL     1      -6.126  -2.645 137.253  0.00  0.00    +0.000 C 
BRANCH  64  65
ATOM     65  C   UNL     1      -7.314  -2.355 138.584  0.00  0.00    +0.000 A 
ATOM     66  C   UNL     1      -6.792  -1.443 139.359  0.00  0.00    +0.000 A 
ATOM     67  C   UNL     1      -7.670  -0.946 140.206  0.00  0.00    +0.000 A 
ATOM     68  C   UNL     1      -9.044  -1.134 140.073  0.00  0.00    +0.000 A 
ATOM     69  C   UNL     1      -9.661  -1.811 139.083  0.00  0.00    +0.000 A 
ATOM     70  C   UNL     1      -8.865  -2.443 138.305  0.00  0.00    +0.000 A 
BRANCH  68  71
ATOM     71  O   UNL     1      -9.935  -0.652 140.955  0.00  0.00    +0.000 OA
ATOM     72  H   UNL     1      -9.924  -1.105 141.804  0.00  0.00    +0.000 HD
ENDBRANCH  68  71
ENDBRANCH  64  65
ENDBRANCH  10  64
BRANCH  14  73
ATOM     73  C   UNL     1      -3.012  -1.101 135.477  0.00  0.00    +0.000 C 
BRANCH  73  74
ATOM     74  C   UNL     1      -1.584  -1.479 135.926  0.00  0.00    +0.000 A 
ATOM     75  C   UNL     1      -0.429  -2.374 134.818  0.00  0.00    +0.000 A 
ATOM     76  C   UNL     1       0.521  -3.048 135.237  0.00  0.00    +0.000 A 
ATOM     77  C   UNL     1       0.346  -3.233 136.565  0.00  0.00    +0.000 A 
ATOM     78  C   UNL     1      -0.665  -2.699 137.501  0.00  0.00    +0.000 A 
ATOM     79  C   UNL     1      -1.628  -1.790 137.192  0.00  0.00    +0.000 A 
ENDBRANCH  73  74
ENDBRANCH  14  73
BRANCH  18  80
ATOM     80  C   UNL     1      -5.609   2.021 133.561  0.00  0.00    +0.000 C 
BRANCH  80  81
ATOM     81  C   UNL     1      -7.014   2.302 133.428  0.00  0.00    +0.000 A 
ATOM     82  C   UNL     1      -7.456   3.416 134.017  0.00  0.00    +0.000 A 
ATOM     83  C   UNL     1      -8.765   3.612 133.839  0.00  0.00    +0.000 A 
ATOM     84  C   UNL     1      -9.282   2.660 133.033  0.00  0.00    +0.000 A 
ATOM     85  S   UNL     1      -8.207   1.425 132.623  0.00  0.00    +0.000 S 
ENDBRANCH  80  81
ENDBRANCH  18  80
BRANCH  22  86
ATOM     86  C   UNL     1      -4.335   5.205 135.419  0.00  0.00    +0.000 C 
BRANCH  86  87
ATOM     87  C   UNL     1      -5.254   5.631 136.380  0.00  0.00    +0.000 C 
ATOM     88  N   UNL     1      -4.995   6.901 136.734  0.00  0.00    +0.000 N 
ATOM     89  O   UNL     1      -6.176   4.971 136.798  0.00  0.00    +0.000 OA
ATOM     90  H   UNL     1      -4.280   7.461 136.269  0.00  0.00    +0.000 HD
ATOM     91  H   UNL     1      -5.538   7.325 137.428  0.00  0.00    +0.000 HD
ENDBRANCH  86  87
ENDBRANCH  22  86
TORSDOF 19
ENDMDL
MODEL 5
REMARK VINA RESULT:      -8.8      3.095     11.346
REMARK  Name = CHEMBL2369848
REMARK  19 active torsions:
REMARK  status: ('A' for Active; 'I' for Inactive)
REMARK    1  A    between atoms: C_2  and  C_4
REMARK    2  A    between atoms: C_4  and  N_5
REMARK    3  A    between atoms: C_6  and  C_8
REMARK    4  A    between atoms: C_8  and  C_9
REMARK    5  A    between atoms: C_8  and  N_16
REMARK    6  A    between atoms: C_9  and  C_10
REMARK    7  A    between atoms: C_10  and  C_11
REMARK    8  A    between atoms: C_11  and  N_12
REMARK    9  A    between atoms: C_17  and  C_19
REMARK   10  A    between atoms: C_24  and  C_26
REMARK   11  A    between atoms: C_35  and  C_36
REMARK   12  A    between atoms: C_36  and  C_37
REMARK   13  A    between atoms: C_40  and  O_41
REMARK   14  A    between atoms: C_47  and  C_48
REMARK   15  A    between atoms: C_48  and  C_49
REMARK   16  A    between atoms: C_58  and  C_59
REMARK   17  A    between atoms: C_59  and  C_60
REMARK   18  A    between atoms: C_68  and  C_69
REMARK   19  A    between atoms: C_69  and  C_70
REMARK                            x       y       z     vdW  Elec       q    Type
REMARK                         _______ _______ _______ _____ _____    ______ ____
ROOT
ATOM      1  C   UNL     1      -6.893  -0.790 132.387  0.00  0.00    +0.000 C 
ATOM      2  C   UNL     1      -8.023  -0.559 130.253  0.00  0.00    +0.000 C 
ATOM      3  S   UNL     1      -8.528  -0.150 127.557  0.00  0.00    +0.000 S 
ATOM      4  S   UNL     1      -9.012   0.850 124.971  0.00  0.00    +0.000 S 
ATOM      5  C   UNL     1      -7.599   2.015 124.067  0.00  0.00    +0.000 C 
ATOM      6  C   UNL     1      -7.308   3.331 123.339  0.00  0.00    +0.000 C 
ATOM      7  C   UNL     1      -5.994   4.085 123.670  0.00  0.00    +0.000 C 
ATOM      8  O   UNL     1      -5.620   5.037 122.988  0.00  0.00    +0.000 OA
ATOM      9  N   UNL     1      -5.282   3.699 124.757  0.00  0.00    +0.000 N 
ATOM     10  C   UNL     1      -5.730   2.595 125.511  0.00  0.00    +0.000 C 
ATOM     11  C   UNL     1      -7.035   3.026 126.395  0.00  0.00    +0.000 C 
ATOM     12  O   UNL     1      -8.095   3.455 125.910  0.00  0.00    +0.000 OA
ATOM     13  N   UNL     1      -7.229   2.755 127.617  0.00  0.00    +0.000 N 
ATOM     14  C   UNL     1      -6.259   2.415 128.378  0.00  0.00    +0.000 C 
ATOM     15  C   UNL     1      -5.841   0.608 127.966  0.00  0.00    +0.000 C 
ATOM     16  O   UNL     1      -5.204   0.214 126.962  0.00  0.00    +0.000 OA
ATOM     17  N   UNL     1      -5.472  -0.220 129.086  0.00  0.00    +0.000 N 
ATOM     18  C   UNL     1      -5.414   0.226 130.418  0.00  0.00    +0.000 C 
ATOM     19  C   UNL     1      -3.952   1.672 131.286  0.00  0.00    +0.000 C 
ATOM     20  O   UNL     1      -3.959   3.150 131.221  0.00  0.00    +0.000 OA
ATOM     21  N   UNL     1      -3.584   1.383 132.454  0.00  0.00    +0.000 N 
ATOM     22  C   UNL     1      -4.109   0.163 133.038  0.00  0.00    +0.000 C 
ATOM     23  C   UNL     1      -6.284   0.419 133.254  0.00  0.00    +0.000 C 
ATOM     24  O   UNL     1      -7.284   0.846 132.478  0.00  0.00    +0.000 OA
ATOM     25  N   UNL     1      -6.796  -0.475 134.093  0.00  0.00    +0.000 N 
ATOM     26  H   UNL     1      -4.373   4.137 124.998  0.00  0.00    +0.000 HD
ATOM     27  H   UNL     1      -8.045   3.017 128.107  0.00  0.00    +0.000 HD
ATOM     28  H   UNL     1      -4.869  -1.001 129.031  0.00  0.00    +0.000 HD
ATOM     29  H   UNL     1      -3.575   2.247 132.914  0.00  0.00    +0.000 HD
ATOM     30  H   UNL     1      -6.977  -0.626 135.207  0.00  0.00    +0.000 HD
ENDROOT
BRANCH   1  36
ATOM     31  C   UNL     1      -4.664  -2.675 137.035  0.00  0.00    +0.000 C 
ATOM     32  C   UNL     1      -5.578  -2.675 138.362  0.00  0.00    +0.000 C 
ATOM     33  C   UNL     1      -4.677  -2.297 139.444  0.00  0.00    +0.000 C 
ATOM     34  C   UNL     1      -3.729  -1.159 138.152  0.00  0.00    +0.000 C 
ATOM     35  N   UNL     1      -4.217  -1.151 136.058  0.00  0.00    +0.000 N 
ATOM     36  C   UNL     1      -5.262  -0.529 134.326  0.00  0.00    +0.000 C 
ATOM     37  O   UNL     1      -4.045   0.038 134.943  0.00  0.00    +0.000 OA
BRANCH  31  39
ATOM     38  N   UNL     1      -5.317  -3.666 134.924  0.00  0.00    +0.000 N 
ATOM     39  C   UNL     1      -5.379  -2.993 135.949  0.00  0.00    +0.000 C 
ATOM     40  O   UNL     1      -6.457  -2.579 135.911  0.00  0.00    +0.000 OA
ATOM     41  H   UNL     1      -4.441  -3.923 134.664  0.00  0.00    +0.000 HD
BRANCH  38  42
ATOM     42  C   UNL     1      -6.392  -3.838 134.101  0.00  0.00    +0.000 C 
BRANCH  42  44
ATOM     43  N   UNL     1      -8.207  -5.190 136.049  0.00  0.00    +0.000 N 
ATOM     44  C   UNL     1      -7.598  -4.441 134.615  0.00  0.00    +0.000 C 
ATOM     45  O   UNL     1      -8.613  -4.049 134.161  0.00  0.00    +0.000 OA
ATOM     46  H   UNL     1      -7.415  -4.955 136.580  0.00  0.00    +0.000 HD
BRANCH  43  47
ATOM     47  C   UNL     1      -9.304  -5.131 136.951  0.00  0.00    +0.000 C 
BRANCH  47  49
ATOM     48  N   UNL     1      -9.484  -3.042 137.060  0.00  0.00    +0.000 N 
ATOM     49  C   UNL     1      -9.059  -4.007 137.768  0.00  0.00    +0.000 C 
ATOM     50  O   UNL     1      -8.908  -3.798 138.946  0.00  0.00    +0.000 OA
ATOM     51  H   UNL     1      -9.891  -2.145 137.596  0.00  0.00    +0.000 HD
ATOM     52  H   UNL     1     -10.427  -3.447 136.197  0.00  0.00    +0.000 HD
ENDBRANCH  47  49
ENDBRANCH  43  47
ENDBRANCH  42  44
BRANCH  42  53
ATOM     53  C   UNL     1      -6.136  -4.978 133.541  0.00  0.00    +0.000 C 
BRANCH  53  54
ATOM     54  C   UNL     1      -4.077  -4.836 133.077  0.00  0.00    +0.000 C 
BRANCH  54  55
ATOM     55  C   UNL     1      -3.001  -5.788 133.949  0.00  0.00    +0.000 C 
BRANCH  55  56
ATOM     56  N   UNL     1      -2.765  -5.451 135.246  0.00  0.00    +0.000 NA
ATOM     57  C   UNL     1      -1.655  -4.823 135.391  0.00  0.00    +0.000 C 
ATOM     58  N   UNL     1      -0.825  -4.289 134.434  0.00  0.00    +0.000 N 
ATOM     59  N   UNL     1      -1.290  -4.789 136.689  0.00  0.00    +0.000 N 
ATOM     60  H   UNL     1      -1.057  -4.285 133.439  0.00  0.00    +0.000 HD
ATOM     61  H   UNL     1       0.036  -3.811 134.619  0.00  0.00    +0.000 HD
ATOM     62  H   UNL     1      -1.891  -5.197 137.422  0.00  0.00    +0.000 HD
ATOM     63  H   UNL     1      -0.447  -4.371 137.025  0.00  0.00    +0.000 HD
ENDBRANCH  55  56
ENDBRANCH  54  55
ENDBRANCH  53  54
ENDBRANCH  42  53
ENDBRANCH  38  42
ENDBRANCH  31  39
ENDBRANCH   1  36
BRANCH  10  64
ATOM     64  C   UNL     1      -4.693   2.346 126.325  0.00  0.00    +0.000 C 
BRANCH  64  65
ATOM     65  C   UNL     1      -4.032   3.665 127.369  0.00  0.00    +0.000 A 
ATOM     66  C   UNL     1      -2.790   3.354 127.623  0.00  0.00    +0.000 A 
ATOM     67  C   UNL     1      -2.119   4.362 128.142  0.00  0.00    +0.000 A 
ATOM     68  C   UNL     1      -2.583   5.675 128.118  0.00  0.00    +0.000 A 
ATOM     69  C   UNL     1      -3.737   6.100 127.564  0.00  0.00    +0.000 A 
ATOM     70  C   UNL     1      -4.508   5.157 127.170  0.00  0.00    +0.000 A 
BRANCH  68  71
ATOM     71  O   UNL     1      -1.912   6.696 128.674  0.00  0.00    +0.000 OA
ATOM     72  H   UNL     1      -1.807   7.455 128.091  0.00  0.00    +0.000 HD
ENDBRANCH  68  71
ENDBRANCH  64  65
ENDBRANCH  10  64
BRANCH  14  73
ATOM     73  C   UNL     1      -6.694   2.891 129.632  0.00  0.00    +0.000 C 
BRANCH  73  74
ATOM     74  C   UNL     1      -7.267   4.276 130.004  0.00  0.00    +0.000 A 
ATOM     75  C   UNL     1      -6.177   5.690 130.422  0.00  0.00    +0.000 A 
ATOM     76  C   UNL     1      -6.554   6.651 131.107  0.00  0.00    +0.000 A 
ATOM     77  C   UNL     1      -7.722   6.310 131.697  0.00  0.00    +0.000 A 
ATOM     78  C   UNL     1      -8.573   5.110 131.557  0.00  0.00    +0.000 A 
ATOM     79  C   UNL     1      -8.365   4.089 130.683  0.00  0.00    +0.000 A 
ENDBRANCH  73  74
ENDBRANCH  14  73
BRANCH  18  80
ATOM     80  C   UNL     1      -5.391  -1.137 131.126  0.00  0.00    +0.000 C 
BRANCH  80  81
ATOM     81  C   UNL     1      -4.906  -2.346 130.514  0.00  0.00    +0.000 A 
ATOM     82  C   UNL     1      -3.597  -2.401 130.260  0.00  0.00    +0.000 A 
ATOM     83  C   UNL     1      -3.224  -3.557 129.704  0.00  0.00    +0.000 A 
ATOM     84  C   UNL     1      -4.274  -4.403 129.620  0.00  0.00    +0.000 A 
ATOM     85  S   UNL     1      -5.757  -3.732 130.066  0.00  0.00    +0.000 S 
ENDBRANCH  80  81
ENDBRANCH  18  80
BRANCH  22  86
ATOM     86  C   UNL     1      -3.050  -0.057 134.053  0.00  0.00    +0.000 C 
BRANCH  86  87
ATOM     87  C   UNL     1      -1.975  -0.922 133.837  0.00  0.00    +0.000 C 
ATOM     88  N   UNL     1      -1.037  -0.735 134.780  0.00  0.00    +0.000 N 
ATOM     89  O   UNL     1      -1.918  -1.751 132.960  0.00  0.00    +0.000 OA
ATOM     90  H   UNL     1      -1.178  -0.107 135.573  0.00  0.00    +0.000 HD
ATOM     91  H   UNL     1      -0.205  -1.248 134.738  0.00  0.00    +0.000 HD
ENDBRANCH  86  87
ENDBRANCH  22  86
TORSDOF 19
ENDMDL
MODEL 6
REMARK VINA RESULT:      -8.5      4.686      8.723
REMARK  Name = CHEMBL2369848
REMARK  19 active torsions:
REMARK  status: ('A' for Active; 'I' for Inactive)
REMARK    1  A    between atoms: C_2  and  C_4
REMARK    2  A    between atoms: C_4  and  N_5
REMARK    3  A    between atoms: C_6  and  C_8
REMARK    4  A    between atoms: C_8  and  C_9
REMARK    5  A    between atoms: C_8  and  N_16
REMARK    6  A    between atoms: C_9  and  C_10
REMARK    7  A    between atoms: C_10  and  C_11
REMARK    8  A    between atoms: C_11  and  N_12
REMARK    9  A    between atoms: C_17  and  C_19
REMARK   10  A    between atoms: C_24  and  C_26
REMARK   11  A    between atoms: C_35  and  C_36
REMARK   12  A    between atoms: C_36  and  C_37
REMARK   13  A    between atoms: C_40  and  O_41
REMARK   14  A    between atoms: C_47  and  C_48
REMARK   15  A    between atoms: C_48  and  C_49
REMARK   16  A    between atoms: C_58  and  C_59
REMARK   17  A    between atoms: C_59  and  C_60
REMARK   18  A    between atoms: C_68  and  C_69
REMARK   19  A    between atoms: C_69  and  C_70
REMARK                            x       y       z     vdW  Elec       q    Type
REMARK                         _______ _______ _______ _____ _____    ______ ____
ROOT
ATOM      1  C   UNL     1      -6.015   5.100 134.339  0.00  0.00    +0.000 C 
ATOM      2  C   UNL     1      -5.396   6.855 135.895  0.00  0.00    +0.000 C 
ATOM      3  S   UNL     1      -4.002   8.383 137.742  0.00  0.00    +0.000 S 
ATOM      4  S   UNL     1      -2.806   9.534 140.016  0.00  0.00    +0.000 S 
ATOM      5  C   UNL     1      -1.481   8.435 141.115  0.00  0.00    +0.000 C 
ATOM      6  C   UNL     1      -1.089   7.933 142.508  0.00  0.00    +0.000 C 
ATOM      7  C   UNL     1      -0.580   6.476 142.654  0.00  0.00    +0.000 C 
ATOM      8  O   UNL     1      -0.078   6.081 143.703  0.00  0.00    +0.000 OA
ATOM      9  N   UNL     1      -0.739   5.627 141.608  0.00  0.00    +0.000 N 
ATOM     10  C   UNL     1      -1.306   6.112 140.413  0.00  0.00    +0.000 C 
ATOM     11  C   UNL     1      -2.914   6.324 140.614  0.00  0.00    +0.000 C 
ATOM     12  O   UNL     1      -3.418   7.076 141.464  0.00  0.00    +0.000 OA
ATOM     13  N   UNL     1      -3.819   5.964 139.804  0.00  0.00    +0.000 N 
ATOM     14  C   UNL     1      -3.587   5.084 138.905  0.00  0.00    +0.000 C 
ATOM     15  C   UNL     1      -2.595   5.946 137.532  0.00  0.00    +0.000 C 
ATOM     16  O   UNL     1      -1.377   6.233 137.578  0.00  0.00    +0.000 OA
ATOM     17  N   UNL     1      -2.911   5.543 136.185  0.00  0.00    +0.000 N 
ATOM     18  C   UNL     1      -3.883   4.584 135.851  0.00  0.00    +0.000 C 
ATOM     19  C   UNL     1      -3.799   2.390 136.255  0.00  0.00    +0.000 C 
ATOM     20  O   UNL     1      -4.103   1.665 137.508  0.00  0.00    +0.000 OA
ATOM     21  N   UNL     1      -4.273   1.684 135.327  0.00  0.00    +0.000 N 
ATOM     22  C   UNL     1      -4.751   2.371 134.142  0.00  0.00    +0.000 C 
ATOM     23  C   UNL     1      -6.466   3.612 134.745  0.00  0.00    +0.000 C 
ATOM     24  O   UNL     1      -6.729   4.475 135.731  0.00  0.00    +0.000 OA
ATOM     25  N   UNL     1      -7.185   3.989 133.694  0.00  0.00    +0.000 N 
ATOM     26  H   UNL     1      -0.375   4.655 141.634  0.00  0.00    +0.000 HD
ATOM     27  H   UNL     1      -4.780   6.133 139.956  0.00  0.00    +0.000 HD
ATOM     28  H   UNL     1      -2.273   5.562 135.430  0.00  0.00    +0.000 HD
ATOM     29  H   UNL     1      -4.783   0.994 135.800  0.00  0.00    +0.000 HD
ATOM     30  H   UNL     1      -8.035   3.614 133.036  0.00  0.00    +0.000 HD
ENDROOT
BRANCH   1  36
ATOM     31  C   UNL     1      -6.521   2.132 129.749  0.00  0.00    +0.000 C 
ATOM     32  C   UNL     1      -7.912   2.227 128.942  0.00  0.00    +0.000 C 
ATOM     33  C   UNL     1      -8.168   0.872 128.468  0.00  0.00    +0.000 C 
ATOM     34  C   UNL     1      -7.311   0.219 130.111  0.00  0.00    +0.000 C 
ATOM     35  N   UNL     1      -6.357   1.543 131.511  0.00  0.00    +0.000 N 
ATOM     36  C   UNL     1      -6.268   2.849 133.173  0.00  0.00    +0.000 C 
ATOM     37  O   UNL     1      -6.128   1.379 133.125  0.00  0.00    +0.000 OA
BRANCH  31  39
ATOM     38  N   UNL     1      -5.258   4.140 130.239  0.00  0.00    +0.000 N 
ATOM     39  C   UNL     1      -6.171   3.320 130.260  0.00  0.00    +0.000 C 
ATOM     40  O   UNL     1      -6.967   3.849 130.909  0.00  0.00    +0.000 OA
ATOM     41  H   UNL     1      -4.425   3.808 129.928  0.00  0.00    +0.000 HD
BRANCH  38  42
ATOM     42  C   UNL     1      -5.369   5.366 130.828  0.00  0.00    +0.000 C 
BRANCH  42  44
ATOM     43  N   UNL     1      -8.241   6.081 130.434  0.00  0.00    +0.000 N 
ATOM     44  C   UNL     1      -6.520   6.192 130.552  0.00  0.00    +0.000 C 
ATOM     45  O   UNL     1      -6.423   7.333 130.827  0.00  0.00    +0.000 OA
ATOM     46  H   UNL     1      -8.266   5.165 130.787  0.00  0.00    +0.000 HD
BRANCH  43  47
ATOM     47  C   UNL     1      -9.428   6.706 130.907  0.00  0.00    +0.000 C 
BRANCH  47  49
ATOM     48  N   UNL     1     -10.058   4.916 131.805  0.00  0.00    +0.000 N 
ATOM     49  C   UNL     1      -9.710   6.089 132.145  0.00  0.00    +0.000 C 
ATOM     50  O   UNL     1      -9.399   6.257 133.297  0.00  0.00    +0.000 OA
ATOM     51  H   UNL     1      -9.848   4.083 132.526  0.00  0.00    +0.000 HD
ATOM     52  H   UNL     1      -9.515   4.565 130.630  0.00  0.00    +0.000 HD
ENDBRANCH  47  49
ENDBRANCH  43  47
ENDBRANCH  42  44
BRANCH  42  53
ATOM     53  C   UNL     1      -4.707   6.128 130.016  0.00  0.00    +0.000 C 
BRANCH  53  54
ATOM     54  C   UNL     1      -3.025   4.949 129.511  0.00  0.00    +0.000 C 
BRANCH  54  55
ATOM     55  C   UNL     1      -2.656   4.751 127.883  0.00  0.00    +0.000 C 
BRANCH  55  56
ATOM     56  N   UNL     1      -2.693   3.489 127.374  0.00  0.00    +0.000 NA
ATOM     57  C   UNL     1      -3.853   3.184 126.916  0.00  0.00    +0.000 C 
ATOM     58  N   UNL     1      -4.941   3.993 126.690  0.00  0.00    +0.000 N 
ATOM     59  N   UNL     1      -3.956   1.852 126.723  0.00  0.00    +0.000 N 
ATOM     60  H   UNL     1      -4.914   5.006 126.817  0.00  0.00    +0.000 HD
ATOM     61  H   UNL     1      -5.824   3.684 126.332  0.00  0.00    +0.000 HD
ATOM     62  H   UNL     1      -3.156   1.226 126.901  0.00  0.00    +0.000 HD
ATOM     63  H   UNL     1      -4.781   1.395 126.394  0.00  0.00    +0.000 HD
ENDBRANCH  55  56
ENDBRANCH  54  55
ENDBRANCH  53  54
ENDBRANCH  42  53
ENDBRANCH  38  42
ENDBRANCH  31  39
ENDBRANCH   1  36
BRANCH  10  64
ATOM     64  C   UNL     1      -1.085   5.113 139.546  0.00  0.00    +0.000 C 
BRANCH  64  65
ATOM     65  C   UNL     1       0.592   4.481 139.313  0.00  0.00    +0.000 A 
ATOM     66  C   UNL     1       0.500   3.179 139.281  0.00  0.00    +0.000 A 
ATOM     67  C   UNL     1       1.605   2.610 138.842  0.00  0.00    +0.000 A 
ATOM     68  C   UNL     1       2.616   3.316 138.195  0.00  0.00    +0.000 A 
ATOM     69  C   UNL     1       2.608   4.635 137.910  0.00  0.00    +0.000 A 
ATOM     70  C   UNL     1       1.632   5.278 138.433  0.00  0.00    +0.000 A 
BRANCH  68  71
ATOM     71  O   UNL     1       3.754   2.741 137.776  0.00  0.00    +0.000 OA
ATOM     72  H   UNL     1       4.482   3.360 137.660  0.00  0.00    +0.000 HD
ENDBRANCH  68  71
ENDBRANCH  64  65
ENDBRANCH  10  64
BRANCH  14  73
ATOM     73  C   UNL     1      -4.854   4.487 138.750  0.00  0.00    +0.000 C 
BRANCH  73  74
ATOM     74  C   UNL     1      -5.794   3.900 139.826  0.00  0.00    +0.000 A 
ATOM     75  C   UNL     1      -7.025   4.939 140.703  0.00  0.00    +0.000 A 
ATOM     76  C   UNL     1      -7.485   4.645 141.814  0.00  0.00    +0.000 A 
ATOM     77  C   UNL     1      -6.717   3.662 142.336  0.00  0.00    +0.000 A 
ATOM     78  C   UNL     1      -5.588   2.898 141.767  0.00  0.00    +0.000 A 
ATOM     79  C   UNL     1      -5.132   2.993 140.489  0.00  0.00    +0.000 A 
ENDBRANCH  73  74
ENDBRANCH  14  73
BRANCH  18  80
ATOM     80  C   UNL     1      -4.033   4.906 134.356  0.00  0.00    +0.000 C 
BRANCH  80  81
ATOM     81  C   UNL     1      -2.990   5.496 133.559  0.00  0.00    +0.000 A 
ATOM     82  C   UNL     1      -2.054   4.666 133.094  0.00  0.00    +0.000 A 
ATOM     83  C   UNL     1      -1.130   5.286 132.355  0.00  0.00    +0.000 A 
ATOM     84  C   UNL     1      -1.440   6.593 132.208  0.00  0.00    +0.000 A 
ATOM     85  S   UNL     1      -2.771   7.107 133.110  0.00  0.00    +0.000 S 
ENDBRANCH  80  81
ENDBRANCH  18  80
BRANCH  22  86
ATOM     86  C   UNL     1      -4.658   1.237 133.190  0.00  0.00    +0.000 C 
BRANCH  86  87
ATOM     87  C   UNL     1      -3.515   0.443 133.081  0.00  0.00    +0.000 C 
ATOM     88  N   UNL     1      -3.834  -0.756 132.567  0.00  0.00    +0.000 N 
ATOM     89  O   UNL     1      -2.395   0.799 133.364  0.00  0.00    +0.000 OA
ATOM     90  H   UNL     1      -4.773  -0.972 132.230  0.00  0.00    +0.000 HD
ATOM     91  H   UNL     1      -3.137  -1.435 132.464  0.00  0.00    +0.000 HD
ENDBRANCH  86  87
ENDBRANCH  22  86
TORSDOF 19
ENDMDL
MODEL 7
REMARK VINA RESULT:      -8.5      2.811     10.609
REMARK  Name = CHEMBL2369848
REMARK  19 active torsions:
REMARK  status: ('A' for Active; 'I' for Inactive)
REMARK    1  A    between atoms: C_2  and  C_4
REMARK    2  A    between atoms: C_4  and  N_5
REMARK    3  A    between atoms: C_6  and  C_8
REMARK    4  A    between atoms: C_8  and  C_9
REMARK    5  A    between atoms: C_8  and  N_16
REMARK    6  A    between atoms: C_9  and  C_10
REMARK    7  A    between atoms: C_10  and  C_11
REMARK    8  A    between atoms: C_11  and  N_12
REMARK    9  A    between atoms: C_17  and  C_19
REMARK   10  A    between atoms: C_24  and  C_26
REMARK   11  A    between atoms: C_35  and  C_36
REMARK   12  A    between atoms: C_36  and  C_37
REMARK   13  A    between atoms: C_40  and  O_41
REMARK   14  A    between atoms: C_47  and  C_48
REMARK   15  A    between atoms: C_48  and  C_49
REMARK   16  A    between atoms: C_58  and  C_59
REMARK   17  A    between atoms: C_59  and  C_60
REMARK   18  A    between atoms: C_68  and  C_69
REMARK   19  A    between atoms: C_69  and  C_70
REMARK                            x       y       z     vdW  Elec       q    Type
REMARK                         _______ _______ _______ _____ _____    ______ ____
ROOT
ATOM      1  C   UNL     1      -4.613   0.750 134.934  0.00  0.00    +0.000 C 
ATOM      2  C   UNL     1      -6.146   2.602 134.608  0.00  0.00    +0.000 C 
ATOM      3  S   UNL     1      -8.113   4.256 133.566  0.00  0.00    +0.000 S 
ATOM      4  S   UNL     1      -9.668   6.118 132.139  0.00  0.00    +0.000 S 
ATOM      5  C   UNL     1      -9.925   5.875 130.128  0.00  0.00    +0.000 C 
ATOM      6  C   UNL     1      -9.840   6.528 128.744  0.00  0.00    +0.000 C 
ATOM      7  C   UNL     1      -9.286   5.690 127.563  0.00  0.00    +0.000 C 
ATOM      8  O   UNL     1      -9.370   6.092 126.405  0.00  0.00    +0.000 OA
ATOM      9  N   UNL     1      -8.665   4.517 127.837  0.00  0.00    +0.000 N 
ATOM     10  C   UNL     1      -8.595   4.075 129.174  0.00  0.00    +0.000 C 
ATOM     11  C   UNL     1      -7.494   4.964 129.991  0.00  0.00    +0.000 C 
ATOM     12  O   UNL     1      -7.556   6.197 130.128  0.00  0.00    +0.000 OA
ATOM     13  N   UNL     1      -6.606   4.513 130.774  0.00  0.00    +0.000 N 
ATOM     14  C   UNL     1      -6.257   3.283 130.736  0.00  0.00    +0.000 C 
ATOM     15  C   UNL     1      -7.630   2.292 131.599  0.00  0.00    +0.000 C 
ATOM     16  O   UNL     1      -8.744   2.001 131.105  0.00  0.00    +0.000 OA
ATOM     17  N   UNL     1      -7.189   1.179 132.400  0.00  0.00    +0.000 N 
ATOM     18  C   UNL     1      -5.843   0.809 132.572  0.00  0.00    +0.000 C 
ATOM     19  C   UNL     1      -4.479  -0.046 131.026  0.00  0.00    +0.000 C 
ATOM     20  O   UNL     1      -3.724   0.656 129.965  0.00  0.00    +0.000 OA
ATOM     21  N   UNL     1      -3.703  -0.933 131.468  0.00  0.00    +0.000 N 
ATOM     22  C   UNL     1      -3.831  -1.297 132.866  0.00  0.00    +0.000 C 
ATOM     23  C   UNL     1      -3.293   0.471 134.061  0.00  0.00    +0.000 C 
ATOM     24  O   UNL     1      -3.604   1.770 134.050  0.00  0.00    +0.000 OA
ATOM     25  N   UNL     1      -3.032   0.142 135.322  0.00  0.00    +0.000 N 
ATOM     26  H   UNL     1      -8.316   3.894 127.084  0.00  0.00    +0.000 HD
ATOM     27  H   UNL     1      -5.974   5.090 131.266  0.00  0.00    +0.000 HD
ATOM     28  H   UNL     1      -7.722   0.364 132.570  0.00  0.00    +0.000 HD
ATOM     29  H   UNL     1      -2.848  -0.729 131.034  0.00  0.00    +0.000 HD
ATOM     30  H   UNL     1      -2.170  -0.223 135.970  0.00  0.00    +0.000 HD
ENDROOT
BRANCH   1  36
ATOM     31  C   UNL     1      -1.671  -3.469 136.847  0.00  0.00    +0.000 C 
ATOM     32  C   UNL     1      -0.364  -3.137 137.730  0.00  0.00    +0.000 C 
ATOM     33  C   UNL     1       0.628  -4.127 137.328  0.00  0.00    +0.000 C 
ATOM     34  C   UNL     1      -0.147  -4.054 135.524  0.00  0.00    +0.000 C 
ATOM     35  N   UNL     1      -1.922  -2.924 135.082  0.00  0.00    +0.000 N 
ATOM     36  C   UNL     1      -3.023  -1.200 134.541  0.00  0.00    +0.000 C 
ATOM     37  O   UNL     1      -2.404  -2.229 133.679  0.00  0.00    +0.000 OA
BRANCH  31  39
ATOM     38  N   UNL     1      -3.872  -2.589 137.343  0.00  0.00    +0.000 N 
ATOM     39  C   UNL     1      -2.667  -2.614 137.108  0.00  0.00    +0.000 C 
ATOM     40  O   UNL     1      -2.367  -1.504 137.225  0.00  0.00    +0.000 OA
ATOM     41  H   UNL     1      -4.346  -3.373 137.095  0.00  0.00    +0.000 HD
BRANCH  38  42
ATOM     42  C   UNL     1      -4.516  -1.446 137.718  0.00  0.00    +0.000 C 
BRANCH  42  44
ATOM     43  N   UNL     1      -2.929   0.975 138.450  0.00  0.00    +0.000 N 
ATOM     44  C   UNL     1      -3.843  -0.488 138.562  0.00  0.00    +0.000 C 
ATOM     45  O   UNL     1      -4.270  -0.361 139.652  0.00  0.00    +0.000 OA
ATOM     46  H   UNL     1      -3.114   1.088 137.492  0.00  0.00    +0.000 HD
BRANCH  43  47
ATOM     47  C   UNL     1      -2.872   2.290 138.986  0.00  0.00    +0.000 C 
BRANCH  47  49
ATOM     48  N   UNL     1      -3.154   3.130 137.082  0.00  0.00    +0.000 N 
ATOM     49  C   UNL     1      -3.757   3.057 138.198  0.00  0.00    +0.000 C 
ATOM     50  O   UNL     1      -4.935   3.312 138.203  0.00  0.00    +0.000 OA
ATOM     51  H   UNL     1      -3.783   3.210 136.158  0.00  0.00    +0.000 HD
ATOM     52  H   UNL     1      -2.325   2.092 136.906  0.00  0.00    +0.000 HD
ENDBRANCH  47  49
ENDBRANCH  43  47
ENDBRANCH  42  44
BRANCH  42  53
ATOM     53  C   UNL     1      -5.166  -1.823 138.773  0.00  0.00    +0.000 C 
BRANCH  53  54
ATOM     54  C   UNL     1      -7.179  -1.412 138.270  0.00  0.00    +0.000 C 
BRANCH  54  55
ATOM     55  C   UNL     1      -8.262  -2.698 138.220  0.00  0.00    +0.000 C 
BRANCH  55  56
ATOM     56  N   UNL     1      -9.435  -2.512 137.555  0.00  0.00    +0.000 NA
ATOM     57  C   UNL     1     -10.424  -2.335 138.353  0.00  0.00    +0.000 C 
ATOM     58  N   UNL     1     -10.419  -2.106 139.709  0.00  0.00    +0.000 N 
ATOM     59  N   UNL     1     -11.597  -2.479 137.702  0.00  0.00    +0.000 N 
ATOM     60  H   UNL     1      -9.560  -1.986 140.247  0.00  0.00    +0.000 HD
ATOM     61  H   UNL     1     -11.236  -1.980 140.274  0.00  0.00    +0.000 HD
ATOM     62  H   UNL     1     -11.622  -2.666 136.687  0.00  0.00    +0.000 HD
ATOM     63  H   UNL     1     -12.494  -2.407 138.136  0.00  0.00    +0.000 HD
ENDBRANCH  55  56
ENDBRANCH  54  55
ENDBRANCH  53  54
ENDBRANCH  42  53
ENDBRANCH  38  42
ENDBRANCH  31  39
ENDBRANCH   1  36
BRANCH  10  64
ATOM     64  C   UNL     1      -8.160   2.813 129.053  0.00  0.00    +0.000 C 
BRANCH  64  65
ATOM     65  C   UNL     1      -7.821   2.132 127.413  0.00  0.00    +0.000 A 
ATOM     66  C   UNL     1      -6.537   1.901 127.363  0.00  0.00    +0.000 A 
ATOM     67  C   UNL     1      -6.205   1.153 126.330  0.00  0.00    +0.000 A 
ATOM     68  C   UNL     1      -7.136   0.438 125.580  0.00  0.00    +0.000 A 
ATOM     69  C   UNL     1      -8.466   0.388 125.802  0.00  0.00    +0.000 A 
ATOM     70  C   UNL     1      -8.878   1.203 126.699  0.00  0.00    +0.000 A 
BRANCH  68  71
ATOM     71  O   UNL     1      -6.799  -0.299 124.510  0.00  0.00    +0.000 OA
ATOM     72  H   UNL     1      -6.955  -1.242 124.623  0.00  0.00    +0.000 HD
ENDBRANCH  68  71
ENDBRANCH  64  65
ENDBRANCH  10  64
BRANCH  14  73
ATOM     73  C   UNL     1      -4.911   3.351 131.149  0.00  0.00    +0.000 C 
BRANCH  73  74
ATOM     74  C   UNL     1      -3.701   3.986 130.430  0.00  0.00    +0.000 A 
ATOM     75  C   UNL     1      -2.958   5.563 131.000  0.00  0.00    +0.000 A 
ATOM     76  C   UNL     1      -2.300   6.305 130.258  0.00  0.00    +0.000 A 
ATOM     77  C   UNL     1      -2.505   5.905 128.982  0.00  0.00    +0.000 A 
ATOM     78  C   UNL     1      -3.244   4.754 128.425  0.00  0.00    +0.000 A 
ATOM     79  C   UNL     1      -3.829   3.763 129.150  0.00  0.00    +0.000 A 
ENDBRANCH  73  74
ENDBRANCH  14  73
BRANCH  18  80
ATOM     80  C   UNL     1      -6.002  -0.108 133.795  0.00  0.00    +0.000 C 
BRANCH  80  81
ATOM     81  C   UNL     1      -6.680  -1.377 133.758  0.00  0.00    +0.000 A 
ATOM     82  C   UNL     1      -6.642  -2.105 134.876  0.00  0.00    +0.000 A 
ATOM     83  C   UNL     1      -7.302  -3.261 134.766  0.00  0.00    +0.000 A 
ATOM     84  C   UNL     1      -7.908  -3.348 133.562  0.00  0.00    +0.000 A 
ATOM     85  S   UNL     1      -7.537  -2.094 132.494  0.00  0.00    +0.000 S 
ENDBRANCH  80  81
ENDBRANCH  18  80
BRANCH  22  86
ATOM     86  C   UNL     1      -3.215  -2.644 132.789  0.00  0.00    +0.000 C 
BRANCH  86  87
ATOM     87  C   UNL     1      -3.690  -3.637 131.930  0.00  0.00    +0.000 C 
ATOM     88  N   UNL     1      -4.545  -4.441 132.584  0.00  0.00    +0.000 N 
ATOM     89  O   UNL     1      -3.410  -3.731 130.759  0.00  0.00    +0.000 OA
ATOM     90  H   UNL     1      -4.845  -4.254 133.541  0.00  0.00    +0.000 HD
ATOM     91  H   UNL     1      -4.934  -5.208 132.117  0.00  0.00    +0.000 HD
ENDBRANCH  86  87
ENDBRANCH  22  86
TORSDOF 19
ENDMDL
MODEL 8
REMARK VINA RESULT:      -7.3      6.953     11.135
REMARK  Name = CHEMBL2369848
REMARK  19 active torsions:
REMARK  status: ('A' for Active; 'I' for Inactive)
REMARK    1  A    between atoms: C_2  and  C_4
REMARK    2  A    between atoms: C_4  and  N_5
REMARK    3  A    between atoms: C_6  and  C_8
REMARK    4  A    between atoms: C_8  and  C_9
REMARK    5  A    between atoms: C_8  and  N_16
REMARK    6  A    between atoms: C_9  and  C_10
REMARK    7  A    between atoms: C_10  and  C_11
REMARK    8  A    between atoms: C_11  and  N_12
REMARK    9  A    between atoms: C_17  and  C_19
REMARK   10  A    between atoms: C_24  and  C_26
REMARK   11  A    between atoms: C_35  and  C_36
REMARK   12  A    between atoms: C_36  and  C_37
REMARK   13  A    between atoms: C_40  and  O_41
REMARK   14  A    between atoms: C_47  and  C_48
REMARK   15  A    between atoms: C_48  and  C_49
REMARK   16  A    between atoms: C_58  and  C_59
REMARK   17  A    between atoms: C_59  and  C_60
REMARK   18  A    between atoms: C_68  and  C_69
REMARK   19  A    between atoms: C_69  and  C_70
REMARK                            x       y       z     vdW  Elec       q    Type
REMARK                         _______ _______ _______ _____ _____    ______ ____
ROOT
ATOM      1  C   UNL     1      -2.352   9.946 137.344  0.00  0.00    +0.000 C 
ATOM      2  C   UNL     1      -2.886   9.223 139.597  0.00  0.00    +0.000 C 
ATOM      3  S   UNL     1      -3.456   7.642 141.803  0.00  0.00    +0.000 S 
ATOM      4  S   UNL     1      -4.593   6.030 143.810  0.00  0.00    +0.000 S 
ATOM      5  C   UNL     1      -5.408   4.226 143.304  0.00  0.00    +0.000 C 
ATOM      6  C   UNL     1      -6.633   3.310 143.399  0.00  0.00    +0.000 C 
ATOM      7  C   UNL     1      -7.048   2.499 142.144  0.00  0.00    +0.000 C 
ATOM      8  O   UNL     1      -7.897   1.614 142.214  0.00  0.00    +0.000 OA
ATOM      9  N   UNL     1      -6.483   2.814 140.953  0.00  0.00    +0.000 N 
ATOM     10  C   UNL     1      -5.502   3.825 140.907  0.00  0.00    +0.000 C 
ATOM     11  C   UNL     1      -6.211   5.288 141.071  0.00  0.00    +0.000 C 
ATOM     12  O   UNL     1      -6.888   5.628 142.055  0.00  0.00    +0.000 OA
ATOM     13  N   UNL     1      -5.970   6.315 140.370  0.00  0.00    +0.000 N 
ATOM     14  C   UNL     1      -5.395   6.215 139.231  0.00  0.00    +0.000 C 
ATOM     15  C   UNL     1      -3.549   5.919 139.570  0.00  0.00    +0.000 C 
ATOM     16  O   UNL     1      -3.035   4.836 139.934  0.00  0.00    +0.000 OA
ATOM     17  N   UNL     1      -2.634   6.567 138.664  0.00  0.00    +0.000 N 
ATOM     18  C   UNL     1      -3.028   7.382 137.587  0.00  0.00    +0.000 C 
ATOM     19  C   UNL     1      -4.070   6.730 135.724  0.00  0.00    +0.000 C 
ATOM     20  O   UNL     1      -5.508   6.458 135.512  0.00  0.00    +0.000 OA
ATOM     21  N   UNL     1      -3.679   7.327 134.688  0.00  0.00    +0.000 N 
ATOM     22  C   UNL     1      -2.606   8.294 134.837  0.00  0.00    +0.000 C 
ATOM     23  C   UNL     1      -3.365   9.931 136.096  0.00  0.00    +0.000 C 
ATOM     24  O   UNL     1      -4.032  10.028 137.250  0.00  0.00    +0.000 OA
ATOM     25  N   UNL     1      -2.601  11.014 135.995  0.00  0.00    +0.000 N 
ATOM     26  H   UNL     1      -6.689   2.274 140.091  0.00  0.00    +0.000 HD
ATOM     27  H   UNL     1      -6.408   7.188 140.519  0.00  0.00    +0.000 HD
ATOM     28  H   UNL     1      -1.734   6.228 138.437  0.00  0.00    +0.000 HD
ATOM     29  H   UNL     1      -4.507   7.506 134.197  0.00  0.00    +0.000 HD
ATOM     30  H   UNL     1      -2.475  11.937 135.342  0.00  0.00    +0.000 HD
ENDROOT
BRANCH   1  36
ATOM     31  C   UNL     1       0.227  11.723 132.837  0.00  0.00    +0.000 C 
ATOM     32  C   UNL     1       0.163  13.299 132.505  0.00  0.00    +0.000 C 
ATOM     33  C   UNL     1       0.029  13.377 131.055  0.00  0.00    +0.000 C 
ATOM     34  C   UNL     1      -1.016  11.715 131.142  0.00  0.00    +0.000 C 
ATOM     35  N   UNL     1      -1.262  10.609 132.969  0.00  0.00    +0.000 N 
ATOM     36  C   UNL     1      -2.181  10.106 134.808  0.00  0.00    +0.000 C 
ATOM     37  O   UNL     1      -2.479   9.620 133.444  0.00  0.00    +0.000 OA
BRANCH  31  39
ATOM     38  N   UNL     1       0.952  10.820 134.963  0.00  0.00    +0.000 N 
ATOM     39  C   UNL     1       0.335  11.505 134.153  0.00  0.00    +0.000 C 
ATOM     40  O   UNL     1      -0.291  12.196 134.836  0.00  0.00    +0.000 OA
ATOM     41  H   UNL     1       1.369  10.047 134.602  0.00  0.00    +0.000 HD
BRANCH  38  42
ATOM     42  C   UNL     1       0.858  11.023 136.309  0.00  0.00    +0.000 C 
BRANCH  42  44
ATOM     43  N   UNL     1       1.791  13.858 136.394  0.00  0.00    +0.000 N 
ATOM     44  C   UNL     1       1.124  12.332 136.856  0.00  0.00    +0.000 C 
ATOM     45  O   UNL     1       0.410  12.692 137.722  0.00  0.00    +0.000 OA
ATOM     46  H   UNL     1       1.849  13.613 135.445  0.00  0.00    +0.000 HD
BRANCH  43  47
ATOM     47  C   UNL     1       1.495  15.249 136.412  0.00  0.00    +0.000 C 
BRANCH  47  49
ATOM     48  N   UNL     1       0.948  15.826 138.355  0.00  0.00    +0.000 N 
ATOM     49  C   UNL     1       1.995  15.724 137.644  0.00  0.00    +0.000 C 
ATOM     50  O   UNL     1       3.052  15.709 138.222  0.00  0.00    +0.000 OA
ATOM     51  H   UNL     1       1.056  15.679 139.461  0.00  0.00    +0.000 HD
ATOM     52  H   UNL     1      -0.011  14.987 137.938  0.00  0.00    +0.000 HD
ENDBRANCH  47  49
ENDBRANCH  43  47
ENDBRANCH  42  44
BRANCH  42  53
ATOM     53  C   UNL     1       2.034  10.679 136.728  0.00  0.00    +0.000 C 
BRANCH  53  54
ATOM     54  C   UNL     1       1.650   9.908 138.660  0.00  0.00    +0.000 C 
BRANCH  54  55
ATOM     55  C   UNL     1       2.489  10.570 139.958  0.00  0.00    +0.000 C 
BRANCH  55  56
ATOM     56  N   UNL     1       3.631  11.259 139.689  0.00  0.00    +0.000 NA
ATOM     57  C   UNL     1       3.449  12.529 139.709  0.00  0.00    +0.000 C 
ATOM     58  N   UNL     1       2.363  13.246 140.154  0.00  0.00    +0.000 N 
ATOM     59  N   UNL     1       4.485  13.171 139.130  0.00  0.00    +0.000 N 
ATOM     60  H   UNL     1       1.557  12.810 140.602  0.00  0.00    +0.000 HD
ATOM     61  H   UNL     1       2.287  14.245 140.136  0.00  0.00    +0.000 HD
ATOM     62  H   UNL     1       5.303  12.651 138.777  0.00  0.00    +0.000 HD
ATOM     63  H   UNL     1       4.539  14.162 139.017  0.00  0.00    +0.000 HD
ENDBRANCH  55  56
ENDBRANCH  54  55
ENDBRANCH  53  54
ENDBRANCH  42  53
ENDBRANCH  38  42
ENDBRANCH  31  39
ENDBRANCH   1  36
BRANCH  10  64
ATOM     64  C   UNL     1      -4.998   3.701 139.670  0.00  0.00    +0.000 C 
BRANCH  64  65
ATOM     65  C   UNL     1      -4.429   2.087 139.089  0.00  0.00    +0.000 A 
ATOM     66  C   UNL     1      -4.564   2.088 137.791  0.00  0.00    +0.000 A 
ATOM     67  C   UNL     1      -3.931   1.081 137.222  0.00  0.00    +0.000 A 
ATOM     68  C   UNL     1      -2.981   0.310 137.886  0.00  0.00    +0.000 A 
ATOM     69  C   UNL     1      -2.565   0.483 139.157  0.00  0.00    +0.000 A 
ATOM     70  C   UNL     1      -3.239   1.349 139.816  0.00  0.00    +0.000 A 
BRANCH  68  71
ATOM     71  O   UNL     1      -2.361  -0.735 137.315  0.00  0.00    +0.000 OA
ATOM     72  H   UNL     1      -2.942  -1.480 137.135  0.00  0.00    +0.000 HD
ENDBRANCH  68  71
ENDBRANCH  64  65
ENDBRANCH  10  64
BRANCH  14  73
ATOM     73  C   UNL     1      -5.935   7.316 138.537  0.00  0.00    +0.000 C 
BRANCH  73  74
ATOM     74  C   UNL     1      -7.302   8.010 138.721  0.00  0.00    +0.000 A 
ATOM     75  C   UNL     1      -8.755   7.569 137.692  0.00  0.00    +0.000 A 
ATOM     76  C   UNL     1      -9.707   8.339 137.505  0.00  0.00    +0.000 A 
ATOM     77  C   UNL     1      -9.330   9.572 137.911  0.00  0.00    +0.000 A 
ATOM     78  C   UNL     1      -8.102  10.049 138.581  0.00  0.00    +0.000 A 
ATOM     79  C   UNL     1      -7.083   9.262 139.019  0.00  0.00    +0.000 A 
ENDBRANCH  73  74
ENDBRANCH  14  73
BRANCH  18  80
ATOM     80  C   UNL     1      -1.684   8.070 137.305  0.00  0.00    +0.000 C 
BRANCH  80  81
ATOM     81  C   UNL     1      -0.416   7.391 137.341  0.00  0.00    +0.000 A 
ATOM     82  C   UNL     1       0.321   7.447 136.229  0.00  0.00    +0.000 A 
ATOM     83  C   UNL     1       1.485   6.804 136.345  0.00  0.00    +0.000 A 
ATOM     84  C   UNL     1       1.643   6.332 137.601  0.00  0.00    +0.000 A 
ATOM     85  S   UNL     1       0.296   6.525 138.600  0.00  0.00    +0.000 S 
ENDBRANCH  80  81
ENDBRANCH  18  80
BRANCH  22  86
ATOM     86  C   UNL     1      -2.122   8.288 133.435  0.00  0.00    +0.000 C 
BRANCH  86  87
ATOM     87  C   UNL     1      -1.606   7.143 132.826  0.00  0.00    +0.000 C 
ATOM     88  N   UNL     1      -0.273   7.251 132.696  0.00  0.00    +0.000 N 
ATOM     89  O   UNL     1      -2.256   6.176 132.505  0.00  0.00    +0.000 OA
ATOM     90  H   UNL     1       0.251   8.034 133.089  0.00  0.00    +0.000 HD
ATOM     91  H   UNL     1       0.225   6.536 132.252  0.00  0.00    +0.000 HD
ENDBRANCH  86  87
ENDBRANCH  22  86
TORSDOF 19
ENDMDL
MODEL 9
REMARK VINA RESULT:      -7.1      6.384     10.659
REMARK  Name = CHEMBL2369848
REMARK  19 active torsions:
REMARK  status: ('A' for Active; 'I' for Inactive)
REMARK    1  A    between atoms: C_2  and  C_4
REMARK    2  A    between atoms: C_4  and  N_5
REMARK    3  A    between atoms: C_6  and  C_8
REMARK    4  A    between atoms: C_8  and  C_9
REMARK    5  A    between atoms: C_8  and  N_16
REMARK    6  A    between atoms: C_9  and  C_10
REMARK    7  A    between atoms: C_10  and  C_11
REMARK    8  A    between atoms: C_11  and  N_12
REMARK    9  A    between atoms: C_17  and  C_19
REMARK   10  A    between atoms: C_24  and  C_26
REMARK   11  A    between atoms: C_35  and  C_36
REMARK   12  A    between atoms: C_36  and  C_37
REMARK   13  A    between atoms: C_40  and  O_41
REMARK   14  A    between atoms: C_47  and  C_48
REMARK   15  A    between atoms: C_48  and  C_49
REMARK   16  A    between atoms: C_58  and  C_59
REMARK   17  A    between atoms: C_59  and  C_60
REMARK   18  A    between atoms: C_68  and  C_69
REMARK   19  A    between atoms: C_69  and  C_70
REMARK                            x       y       z     vdW  Elec       q    Type
REMARK                         _______ _______ _______ _____ _____    ______ ____
ROOT
ATOM      1  C   UNL     1      -2.980   9.564 137.633  0.00  0.00    +0.000 C 
ATOM      2  C   UNL     1      -3.634   8.747 139.822  0.00  0.00    +0.000 C 
ATOM      3  S   UNL     1      -4.240   7.075 141.950  0.00  0.00    +0.000 S 
ATOM      4  S   UNL     1      -5.389   5.325 143.831  0.00  0.00    +0.000 S 
ATOM      5  C   UNL     1      -5.989   3.466 143.233  0.00  0.00    +0.000 C 
ATOM      6  C   UNL     1      -7.128   2.441 143.209  0.00  0.00    +0.000 C 
ATOM      7  C   UNL     1      -7.359   1.622 141.913  0.00  0.00    +0.000 C 
ATOM      8  O   UNL     1      -8.126   0.663 141.898  0.00  0.00    +0.000 OA
ATOM      9  N   UNL     1      -6.727   2.012 140.779  0.00  0.00    +0.000 N 
ATOM     10  C   UNL     1      -5.843   3.109 140.831  0.00  0.00    +0.000 C 
ATOM     11  C   UNL     1      -6.695   4.498 140.953  0.00  0.00    +0.000 C 
ATOM     12  O   UNL     1      -7.481   4.754 141.879  0.00  0.00    +0.000 OA
ATOM     13  N   UNL     1      -6.491   5.557 140.289  0.00  0.00    +0.000 N 
ATOM     14  C   UNL     1      -5.815   5.534 139.203  0.00  0.00    +0.000 C 
ATOM     15  C   UNL     1      -3.985   5.399 139.695  0.00  0.00    +0.000 C 
ATOM     16  O   UNL     1      -3.406   4.359 140.088  0.00  0.00    +0.000 OA
ATOM     17  N   UNL     1      -3.061   6.146 138.879  0.00  0.00    +0.000 N 
ATOM     18  C   UNL     1      -3.435   6.944 137.784  0.00  0.00    +0.000 C 
ATOM     19  C   UNL     1      -4.252   6.240 135.829  0.00  0.00    +0.000 C 
ATOM     20  O   UNL     1      -5.636   5.844 135.491  0.00  0.00    +0.000 OA
ATOM     21  N   UNL     1      -3.831   6.892 134.838  0.00  0.00    +0.000 N 
ATOM     22  C   UNL     1      -2.869   7.948 135.093  0.00  0.00    +0.000 C 
ATOM     23  C   UNL     1      -3.878   9.484 136.303  0.00  0.00    +0.000 C 
ATOM     24  O   UNL     1      -4.646   9.495 137.397  0.00  0.00    +0.000 OA
ATOM     25  N   UNL     1      -3.211  10.632 136.283  0.00  0.00    +0.000 N 
ATOM     26  H   UNL     1      -6.809   1.475 139.896  0.00  0.00    +0.000 HD
ATOM     27  H   UNL     1      -7.018   6.383 140.411  0.00  0.00    +0.000 HD
ATOM     28  H   UNL     1      -2.118   5.894 138.726  0.00  0.00    +0.000 HD
ATOM     29  H   UNL     1      -4.628   7.005 134.280  0.00  0.00    +0.000 HD
ATOM     30  H   UNL     1      -3.116  11.577 135.655  0.00  0.00    +0.000 HD
ENDROOT
BRANCH   1  36
ATOM     31  C   UNL     1      -0.304  11.780 133.385  0.00  0.00    +0.000 C 
ATOM     32  C   UNL     1      -0.571  13.335 133.055  0.00  0.00    +0.000 C 
ATOM     33  C   UNL     1      -0.586  13.417 131.600  0.00  0.00    +0.000 C 
ATOM     34  C   UNL     1      -1.377  11.619 131.585  0.00  0.00    +0.000 C 
ATOM     35  N   UNL     1      -1.617  10.456 133.378  0.00  0.00    +0.000 N 
ATOM     36  C   UNL     1      -2.611   9.791 135.124  0.00  0.00    +0.000 C 
ATOM     37  O   UNL     1      -2.712   9.292 133.737  0.00  0.00    +0.000 OA
BRANCH  31  39
ATOM     38  N   UNL     1       0.358  10.958 135.564  0.00  0.00    +0.000 N 
ATOM     39  C   UNL     1      -0.282  11.556 134.704  0.00  0.00    +0.000 C 
ATOM     40  O   UNL     1      -1.065  12.131 135.330  0.00  0.00    +0.000 OA
ATOM     41  H   UNL     1       0.919  10.265 135.239  0.00  0.00    +0.000 HD
BRANCH  38  42
ATOM     42  C   UNL     1       0.114  11.121 136.897  0.00  0.00    +0.000 C 
BRANCH  42  44
ATOM     43  N   UNL     1      -1.591  13.415 137.760  0.00  0.00    +0.000 N 
ATOM     44  C   UNL     1      -0.214  12.429 137.411  0.00  0.00    +0.000 C 
ATOM     45  O   UNL     1       0.554  12.901 138.169  0.00  0.00    +0.000 OA
ATOM     46  H   UNL     1      -2.228  12.684 137.607  0.00  0.00    +0.000 HD
BRANCH  43  47
ATOM     47  C   UNL     1      -2.155  14.203 138.801  0.00  0.00    +0.000 C 
BRANCH  47  49
ATOM     48  N   UNL     1      -4.177  14.649 139.147  0.00  0.00    +0.000 N 
ATOM     49  C   UNL     1      -3.419  13.633 139.061  0.00  0.00    +0.000 C 
ATOM     50  O   UNL     1      -3.951  12.566 138.884  0.00  0.00    +0.000 OA
ATOM     51  H   UNL     1      -5.248  14.525 138.842  0.00  0.00    +0.000 HD
ATOM     52  H   UNL     1      -3.687  15.685 138.452  0.00  0.00    +0.000 HD
ENDBRANCH  47  49
ENDBRANCH  43  47
ENDBRANCH  42  44
BRANCH  42  53
ATOM     53  C   UNL     1       1.303  11.299 137.380  0.00  0.00    +0.000 C 
BRANCH  53  54
ATOM     54  C   UNL     1       1.462   9.778 138.842  0.00  0.00    +0.000 C 
BRANCH  54  55
ATOM     55  C   UNL     1       0.853  10.089 140.378  0.00  0.00    +0.000 C 
BRANCH  55  56
ATOM     56  N   UNL     1      -0.487  10.292 140.498  0.00  0.00    +0.000 NA
ATOM     57  C   UNL     1      -0.762  11.452 140.973  0.00  0.00    +0.000 C 
ATOM     58  N   UNL     1       0.064  12.535 141.162  0.00  0.00    +0.000 N 
ATOM     59  N   UNL     1      -2.047  11.509 141.384  0.00  0.00    +0.000 N 
ATOM     60  H   UNL     1       1.041  12.544 140.866  0.00  0.00    +0.000 HD
ATOM     61  H   UNL     1      -0.220  13.416 141.544  0.00  0.00    +0.000 HD
ATOM     62  H   UNL     1      -2.679  10.704 141.264  0.00  0.00    +0.000 HD
ATOM     63  H   UNL     1      -2.466  12.311 141.807  0.00  0.00    +0.000 HD
ENDBRANCH  55  56
ENDBRANCH  54  55
ENDBRANCH  53  54
ENDBRANCH  42  53
ENDBRANCH  38  42
ENDBRANCH  31  39
ENDBRANCH   1  36
BRANCH  10  64
ATOM     64  C   UNL     1      -5.227   3.057 139.641  0.00  0.00    +0.000 C 
BRANCH  64  65
ATOM     65  C   UNL     1      -4.413   1.531 139.116  0.00  0.00    +0.000 A 
ATOM     66  C   UNL     1      -4.547   1.463 137.819  0.00  0.00    +0.000 A 
ATOM     67  C   UNL     1      -3.766   0.547 137.284  0.00  0.00    +0.000 A 
ATOM     68  C   UNL     1      -2.705  -0.040 137.969  0.00  0.00    +0.000 A 
ATOM     69  C   UNL     1      -2.319   0.244 139.230  0.00  0.00    +0.000 A 
ATOM     70  C   UNL     1      -3.120   1.017 139.861  0.00  0.00    +0.000 A 
BRANCH  68  71
ATOM     71  O   UNL     1      -1.929  -0.995 137.432  0.00  0.00    +0.000 OA
ATOM     72  H   UNL     1      -2.373  -1.526 136.763  0.00  0.00    +0.000 HD
ENDBRANCH  68  71
ENDBRANCH  64  65
ENDBRANCH  10  64
BRANCH  14  73
ATOM     73  C   UNL     1      -6.394   6.596 138.479  0.00  0.00    +0.000 C 
BRANCH  73  74
ATOM     74  C   UNL     1      -7.633   7.450 138.824  0.00  0.00    +0.000 A 
ATOM     75  C   UNL     1      -9.008   7.681 137.632  0.00  0.00    +0.000 A 
ATOM     76  C   UNL     1      -9.784   8.645 137.678  0.00  0.00    +0.000 A 
ATOM     77  C   UNL     1      -9.252   9.569 138.510  0.00  0.00    +0.000 A 
ATOM     78  C   UNL     1      -8.049   9.535 139.366  0.00  0.00    +0.000 A 
ATOM     79  C   UNL     1      -7.239   8.458 139.552  0.00  0.00    +0.000 A 
ENDBRANCH  73  74
ENDBRANCH  14  73
BRANCH  18  80
ATOM     80  C   UNL     1      -2.141   7.757 137.627  0.00  0.00    +0.000 C 
BRANCH  80  81
ATOM     81  C   UNL     1      -0.825   7.180 137.677  0.00  0.00    +0.000 A 
ATOM     82  C   UNL     1      -0.070   7.323 136.585  0.00  0.00    +0.000 A 
ATOM     83  C   UNL     1       1.139   6.771 136.713  0.00  0.00    +0.000 A 
ATOM     84  C   UNL     1       1.306   6.279 137.959  0.00  0.00    +0.000 A 
ATOM     85  S   UNL     1      -0.074   6.338 138.930  0.00  0.00    +0.000 S 
ENDBRANCH  80  81
ENDBRANCH  18  80
BRANCH  22  86
ATOM     86  C   UNL     1      -2.269   8.016 133.738  0.00  0.00    +0.000 C 
BRANCH  86  87
ATOM     87  C   UNL     1      -1.786   6.886 133.075  0.00  0.00    +0.000 C 
ATOM     88  N   UNL     1      -1.902   7.047 131.746  0.00  0.00    +0.000 N 
ATOM     89  O   UNL     1      -1.294   5.924 133.615  0.00  0.00    +0.000 OA
ATOM     90  H   UNL     1      -2.213   7.925 131.328  0.00  0.00    +0.000 HD
ATOM     91  H   UNL     1      -1.635   6.319 131.150  0.00  0.00    +0.000 HD
ENDBRANCH  86  87
ENDBRANCH  22  86
TORSDOF 19
ENDMDL
