MODEL 1
REMARK VINA RESULT:     -10.8      0.000      0.000
REMARK  Name = CHEMBL1765669
REMARK  24 active torsions:
REMARK  status: ('A' for Active; 'I' for Inactive)
REMARK    1  A    between atoms: CD1_1  and  CG_2
REMARK    2  A    between atoms: CG_2  and  CD2_3
REMARK    3  A    between atoms: CG_2  and  CB_4
REMARK    4  A    between atoms: CB_4  and  CA_5
REMARK    5  A    between atoms: CA_9  and  CB_10
REMARK    6  A    between atoms: CB_10  and  CG_11
REMARK    7  A    between atoms: CA_20  and  CB_21
REMARK    8  A    between atoms: CB_21  and  CG_22
REMARK    9  A    between atoms: CZ_25  and  OH_26
REMARK   10  A    between atoms: C_32  and  O_33
REMARK   11  A    between atoms: C_38  and  C_39
REMARK   12  A    between atoms: CA_45  and  C_46
REMARK   13  A    between atoms: N_48  and  CA_49
REMARK   14  A    between atoms: CA_49  and  CB_50
REMARK   15  A    between atoms: CA_49  and  C_55
REMARK   16  A    between atoms: CB_50  and  CG_51
REMARK   17  A    between atoms: CG_51  and  CD_52
REMARK   18  A    between atoms: CD_52  and  CE_53
REMARK   19  A    between atoms: CE_53  and  NZ_54
REMARK   20  A    between atoms: N_57  and  CA_58
REMARK   21  A    between atoms: CA_58  and  C_59
REMARK   22  A    between atoms: C_59  and  OXT_61
REMARK   23  A    between atoms: CA_65  and  CB_66
REMARK   24  A    between atoms: CB_66  and  CG_67
REMARK                            x       y       z     vdW  Elec       q    Type
REMARK                         _______ _______ _______ _____ _____    ______ ____
ROOT
ATOM      1  CA  TYR A   1      -6.609  -1.067 129.181  0.00  0.00    +0.000 C 
ATOM      2  N   TYR A   1      -7.120  -0.525 126.906  0.00  0.00    +0.000 N 
ATOM      3  C   TYR A   1      -7.667   0.424 124.850  0.00  0.00    +0.000 C 
ATOM      4  O   TYR A   1      -6.790   0.786 123.400  0.00  0.00    +0.000 OA
ATOM      5  CA  TYR A   1      -8.599   1.302 122.891  0.00  0.00    +0.000 C 
ATOM      6  N   TYR A   1      -9.828   1.460 123.417  0.00  0.00    +0.000 N 
ATOM      7  C   TYR A   1      -9.298   1.697 124.609  0.00  0.00    +0.000 C 
ATOM      8  O   TYR A   1      -9.980   1.322 125.524  0.00  0.00    +0.000 OA
ATOM      9  CA  TYR A   1      -7.679   2.308 124.735  0.00  0.00    +0.000 C 
ATOM     10  N   TYR A   1      -7.693   3.404 125.465  0.00  0.00    +0.000 N 
ATOM     11  C   UNK A   0      -8.070   3.409 126.775  0.00  0.00    +0.000 C 
ATOM     12  O   UNK A   0      -8.030   4.472 127.385  0.00  0.00    +0.000 OA
ATOM     13  C   UNK A   0      -8.542   2.142 127.518  0.00  0.00    +0.000 C 
ATOM     14  C   UNK A   0      -7.659   1.834 128.672  0.00  0.00    +0.000 C 
ATOM     15  S   UNK A   3      -7.849   3.271 129.799  0.00  0.00    +0.000 S 
ATOM     16  S   UNK A   3      -6.659   3.216 131.284  0.00  0.00    +0.000 S 
ATOM     17  C   UNK A   3      -6.610   4.133 132.707  0.00  0.00    +0.000 C 
ATOM     18  C   UNK A   3      -5.681   3.799 133.843  0.00  0.00    +0.000 C 
ATOM     19  N   UNK A   3      -6.108   2.520 134.462  0.00  0.00    +0.000 N 
ATOM     20  C   ASN A   2      -6.152   1.285 133.812  0.00  0.00    +0.000 C 
ATOM     21  O   ASN A   2      -6.566   0.264 134.350  0.00  0.00    +0.000 OA
ATOM     22  CA  ASN A   2      -5.678   1.167 132.366  0.00  0.00    +0.000 C 
ATOM     23  N   ASN A   2      -4.691   0.327 131.984  0.00  0.00    +0.000 N 
ATOM     24  C   TYR A   1      -5.071  -0.493 130.858  0.00  0.00    +0.000 C 
ATOM     25  O   TYR A   1      -4.324  -1.475 131.834  0.00  0.00    +0.000 OA
ATOM     26  H   TYR A   1      -7.309  -1.087 125.551  0.00  0.00    +0.000 HD
ATOM     27  H   TYR A   1     -10.727   0.994 123.292  0.00  0.00    +0.000 HD
ATOM     28  H   TYR A   1      -7.338   4.186 124.966  0.00  0.00    +0.000 HD
ATOM     29  H   UNK A   3      -6.409   2.574 135.444  0.00  0.00    +0.000 HD
ATOM     30  H   ASN A   2      -3.733   0.663 131.821  0.00  0.00    +0.000 HD
ENDROOT
BRANCH  18  31
ATOM     31  C   UNK A   3      -5.719   4.997 134.860  0.00  0.00    +0.000 C 
ATOM     32  O   UNK A   3      -6.738   5.134 135.542  0.00  0.00    +0.000 OA
ATOM     33  N   PRO A   4      -4.567   5.819 134.966  0.00  0.00    +0.000 N 
ATOM     34  CD  PRO A   4      -3.832   6.388 133.856  0.00  0.00    +0.000 C 
ATOM     35  CG  PRO A   4      -2.424   6.459 134.352  0.00  0.00    +0.000 C 
ATOM     36  CB  PRO A   4      -2.620   7.016 135.754  0.00  0.00    +0.000 C 
ATOM     37  CA  PRO A   4      -3.974   6.443 136.223  0.00  0.00    +0.000 C 
BRANCH  37  38
ATOM     38  C   PRO A   4      -4.818   7.586 136.752  0.00  0.00    +0.000 C 
ATOM     39  O   PRO A   4      -4.297   8.701 136.658  0.00  0.00    +0.000 OA
ATOM     40  N   LYS A   5      -6.057   7.337 137.365  0.00  0.00    +0.000 N 
ATOM     41  H   LYS A   5      -6.402   6.394 137.543  0.00  0.00    +0.000 HD
BRANCH  40  42
ATOM     42  CA  LYS A   5      -6.950   8.445 137.826  0.00  0.00    +0.000 C 
BRANCH  42  43
ATOM     43  C   LYS A   5      -6.555   8.942 139.251  0.00  0.00    +0.000 C 
ATOM     44  O   LYS A   5      -7.119   8.449 140.234  0.00  0.00    +0.000 OA
ATOM     45  N   GLY A   6      -5.575   9.929 139.384  0.00  0.00    +0.000 N 
ATOM     46  H   GLY A   6      -5.097  10.348 138.581  0.00  0.00    +0.000 HD
BRANCH  45  47
ATOM     47  CA  GLY A   6      -5.164  10.447 140.718  0.00  0.00    +0.000 C 
BRANCH  47  48
ATOM     48  C   GLY A   6      -5.938  11.718 141.094  0.00  0.00    +0.000 C 
ATOM     49  O   GLY A   6      -7.006  11.632 141.696  0.00  0.00    +0.000 OA
BRANCH  48  50
ATOM     50  OXT GLY A   6      -5.419  12.929 140.748  0.00  0.00    +0.000 OA
ATOM     51  HXT GLY A   6      -4.856  13.447 141.357  0.00  0.00    +0.000 HD
ENDBRANCH  48  50
ENDBRANCH  47  48
ENDBRANCH  45  47
ENDBRANCH  42  43
BRANCH  42  52
ATOM     52  CB  LYS A   5      -8.387   7.962 137.841  0.00  0.00    +0.000 C 
BRANCH  52  53
ATOM     53  CG  LYS A   5      -9.349   9.048 137.453  0.00  0.00    +0.000 C 
BRANCH  53  54
ATOM     54  CD  LYS A   5     -10.245   9.478 138.551  0.00  0.00    +0.000 C 
BRANCH  54  55
ATOM     55  CE  LYS A   5      -9.696  10.695 139.261  0.00  0.00    +0.000 C 
BRANCH  55  56
ATOM     56  NZ  LYS A   5      -9.542  10.399 140.679  0.00  0.00    +0.000 NA
ATOM     57  HZ1 LYS A   5      -9.321   9.409 140.793  0.00  0.00    +0.000 HD
ATOM     58  HZ2 LYS A   5     -10.421  10.585 141.161  0.00  0.00    +0.000 HD
ENDBRANCH  55  56
ENDBRANCH  54  55
ENDBRANCH  53  54
ENDBRANCH  52  53
ENDBRANCH  42  52
ENDBRANCH  40  42
ENDBRANCH  37  38
ENDBRANCH  18  31
BRANCH  13  59
ATOM     59  O   UNK A   0      -8.650   0.945 126.915  0.00  0.00    +0.000 OA
ATOM     60  H   UNK A   0      -9.467   0.797 126.542  0.00  0.00    +0.000 HD
ENDBRANCH  13  59
BRANCH  22  61
ATOM     61  CB  ASN A   2      -6.858   0.769 131.509  0.00  0.00    +0.000 C 
BRANCH  61  62
ATOM     62  CG  ASN A   2      -8.251   0.693 131.823  0.00  0.00    +0.000 C 
ATOM     63  ND2 ASN A   2      -9.433   2.115 132.830  0.00  0.00    +0.000 N 
ATOM     64  OD1 ASN A   2      -9.074  -0.161 131.173  0.00  0.00    +0.000 OA
ATOM     65 HD21 ASN A   2      -9.093   3.103 132.721  0.00  0.00    +0.000 HD
ATOM     66 HD22 ASN A   2     -10.195   2.487 132.273  0.00  0.00    +0.000 HD
ENDBRANCH  61  62
ENDBRANCH  22  61
BRANCH   9  67
ATOM     67  CB  TYR A   1      -6.399   1.376 125.502  0.00  0.00    +0.000 C 
BRANCH  67  68
ATOM     68  CG  TYR A   1      -4.808   2.599 125.930  0.00  0.00    +0.000 A 
ATOM     69  CD1 TYR A   1      -4.432   2.527 127.809  0.00  0.00    +0.000 A 
ATOM     70  CE1 TYR A   1      -3.353   2.907 128.299  0.00  0.00    +0.000 A 
ATOM     71  CZ  TYR A   1      -3.041   3.984 127.617  0.00  0.00    +0.000 A 
ATOM     72  CE2 TYR A   1      -3.812   4.435 126.513  0.00  0.00    +0.000 A 
ATOM     73  CD2 TYR A   1      -4.573   3.755 125.559  0.00  0.00    +0.000 A 
BRANCH  71  74
ATOM     74  OH  TYR A   1      -2.005   4.743 128.049  0.00  0.00    +0.000 OA
ATOM     75  HH  TYR A   1      -1.198   4.254 128.293  0.00  0.00    +0.000 HD
ENDBRANCH  71  74
ENDBRANCH  67  68
ENDBRANCH   9  67
BRANCH   5  76
ATOM     76  CB  TYR A   1      -8.650   3.061 122.083  0.00  0.00    +0.000 C 
BRANCH  76  77
ATOM     77  CG  TYR A   1      -7.564   3.596 121.193  0.00  0.00    +0.000 A 
ATOM     78  CD1 TYR A   1      -6.265   3.704 121.615  0.00  0.00    +0.000 A 
ATOM     79  CE1 TYR A   1      -5.385   4.474 120.885  0.00  0.00    +0.000 A 
ATOM     80  CZ  TYR A   1      -5.659   4.871 119.608  0.00  0.00    +0.000 A 
ATOM     81  CE2 TYR A   1      -6.932   4.707 119.155  0.00  0.00    +0.000 A 
ATOM     82  CD2 TYR A   1      -7.870   4.052 119.924  0.00  0.00    +0.000 A 
ENDBRANCH  76  77
ENDBRANCH   5  76
BRANCH   1  83
ATOM     83  CB  TYR A   1      -6.735  -1.892 131.639  0.00  0.00    +0.000 C 
BRANCH  83  85
ATOM     84  CD1 TYR A   1      -8.106  -2.969 133.802  0.00  0.00    +0.000 C 
ATOM     85  CG  TYR A   1      -6.714  -3.110 133.523  0.00  0.00    +0.000 C 
ATOM     86  CD2 TYR A   1      -6.974  -4.805 134.751  0.00  0.00    +0.000 C 
ENDBRANCH  83  85
ENDBRANCH   1  83
TORSDOF 22
ENDMDL
MODEL 2
REMARK VINA RESULT:     -10.3      1.623      2.199
REMARK  Name = CHEMBL1765669
REMARK  24 active torsions:
REMARK  status: ('A' for Active; 'I' for Inactive)
REMARK    1  A    between atoms: CD1_1  and  CG_2
REMARK    2  A    between atoms: CG_2  and  CD2_3
REMARK    3  A    between atoms: CG_2  and  CB_4
REMARK    4  A    between atoms: CB_4  and  CA_5
REMARK    5  A    between atoms: CA_9  and  CB_10
REMARK    6  A    between atoms: CB_10  and  CG_11
REMARK    7  A    between atoms: CA_20  and  CB_21
REMARK    8  A    between atoms: CB_21  and  CG_22
REMARK    9  A    between atoms: CZ_25  and  OH_26
REMARK   10  A    between atoms: C_32  and  O_33
REMARK   11  A    between atoms: C_38  and  C_39
REMARK   12  A    between atoms: CA_45  and  C_46
REMARK   13  A    between atoms: N_48  and  CA_49
REMARK   14  A    between atoms: CA_49  and  CB_50
REMARK   15  A    between atoms: CA_49  and  C_55
REMARK   16  A    between atoms: CB_50  and  CG_51
REMARK   17  A    between atoms: CG_51  and  CD_52
REMARK   18  A    between atoms: CD_52  and  CE_53
REMARK   19  A    between atoms: CE_53  and  NZ_54
REMARK   20  A    between atoms: N_57  and  CA_58
REMARK   21  A    between atoms: CA_58  and  C_59
REMARK   22  A    between atoms: C_59  and  OXT_61
REMARK   23  A    between atoms: CA_65  and  CB_66
REMARK   24  A    between atoms: CB_66  and  CG_67
REMARK                            x       y       z     vdW  Elec       q    Type
REMARK                         _______ _______ _______ _____ _____    ______ ____
ROOT
ATOM      1  CA  TYR A   1      -6.472  -1.175 129.413  0.00  0.00    +0.000 C 
ATOM      2  N   TYR A   1      -6.977  -0.613 127.141  0.00  0.00    +0.000 N 
ATOM      3  C   TYR A   1      -7.519   0.355 125.093  0.00  0.00    +0.000 C 
ATOM      4  O   TYR A   1      -6.638   0.727 123.648  0.00  0.00    +0.000 OA
ATOM      5  CA  TYR A   1      -8.445   1.251 123.139  0.00  0.00    +0.000 C 
ATOM      6  N   TYR A   1      -9.676   1.407 123.664  0.00  0.00    +0.000 N 
ATOM      7  C   TYR A   1      -9.147   1.633 124.859  0.00  0.00    +0.000 C 
ATOM      8  O   TYR A   1      -9.832   1.252 125.770  0.00  0.00    +0.000 OA
ATOM      9  CA  TYR A   1      -7.527   2.240 124.994  0.00  0.00    +0.000 C 
ATOM     10  N   TYR A   1      -7.541   3.329 125.733  0.00  0.00    +0.000 N 
ATOM     11  C   UNK A   0      -7.920   3.324 127.042  0.00  0.00    +0.000 C 
ATOM     12  O   UNK A   0      -7.880   4.382 127.661  0.00  0.00    +0.000 OA
ATOM     13  C   UNK A   0      -8.396   2.052 127.773  0.00  0.00    +0.000 C 
ATOM     14  C   UNK A   0      -7.516   1.732 128.926  0.00  0.00    +0.000 C 
ATOM     15  S   UNK A   3      -7.705   3.160 130.065  0.00  0.00    +0.000 S 
ATOM     16  S   UNK A   3      -6.518   3.090 131.552  0.00  0.00    +0.000 S 
ATOM     17  C   UNK A   3      -6.470   3.995 132.982  0.00  0.00    +0.000 C 
ATOM     18  C   UNK A   3      -5.544   3.650 134.117  0.00  0.00    +0.000 C 
ATOM     19  N   UNK A   3      -5.974   2.366 134.725  0.00  0.00    +0.000 N 
ATOM     20  C   ASN A   2      -6.019   1.136 134.064  0.00  0.00    +0.000 C 
ATOM     21  O   ASN A   2      -6.436   0.112 134.593  0.00  0.00    +0.000 OA
ATOM     22  CA  ASN A   2      -5.542   1.030 132.618  0.00  0.00    +0.000 C 
ATOM     23  N   ASN A   2      -4.557   0.192 132.231  0.00  0.00    +0.000 N 
ATOM     24  C   TYR A   1      -4.936  -0.618 131.097  0.00  0.00    +0.000 C 
ATOM     25  O   TYR A   1      -4.193  -1.610 132.067  0.00  0.00    +0.000 OA
ATOM     26  H   TYR A   1      -7.165  -1.162 125.781  0.00  0.00    +0.000 HD
ATOM     27  H   TYR A   1     -10.575   0.944 123.533  0.00  0.00    +0.000 HD
ATOM     28  H   TYR A   1      -7.184   4.115 125.241  0.00  0.00    +0.000 HD
ATOM     29  H   UNK A   3      -6.277   2.412 135.707  0.00  0.00    +0.000 HD
ATOM     30  H   ASN A   2      -3.597   0.527 132.073  0.00  0.00    +0.000 HD
ENDROOT
BRANCH  18  31
ATOM     31  C   UNK A   3      -5.581   4.839 135.144  0.00  0.00    +0.000 C 
ATOM     32  O   UNK A   3      -5.982   5.933 134.736  0.00  0.00    +0.000 OA
ATOM     33  N   PRO A   4      -5.198   4.576 136.485  0.00  0.00    +0.000 N 
ATOM     34  CD  PRO A   4      -4.009   3.859 136.897  0.00  0.00    +0.000 C 
ATOM     35  CG  PRO A   4      -4.411   3.194 138.173  0.00  0.00    +0.000 C 
ATOM     36  CB  PRO A   4      -5.144   4.320 138.889  0.00  0.00    +0.000 C 
ATOM     37  CA  PRO A   4      -5.810   5.138 137.761  0.00  0.00    +0.000 C 
BRANCH  37  38
ATOM     38  C   PRO A   4      -5.468   6.600 137.969  0.00  0.00    +0.000 C 
ATOM     39  O   PRO A   4      -4.513   6.807 138.723  0.00  0.00    +0.000 OA
ATOM     40  N   LYS A   5      -6.256   7.609 137.389  0.00  0.00    +0.000 N 
ATOM     41  H   LYS A   5      -7.114   7.408 136.876  0.00  0.00    +0.000 HD
BRANCH  40  42
ATOM     42  CA  LYS A   5      -5.902   9.057 137.508  0.00  0.00    +0.000 C 
BRANCH  42  43
ATOM     43  C   LYS A   5      -4.378   9.295 137.273  0.00  0.00    +0.000 C 
ATOM     44  O   LYS A   5      -3.908   9.086 136.149  0.00  0.00    +0.000 OA
ATOM     45  N   GLY A   6      -3.583   9.736 138.332  0.00  0.00    +0.000 N 
ATOM     46  H   GLY A   6      -3.956   9.914 139.270  0.00  0.00    +0.000 HD
BRANCH  45  47
ATOM     47  CA  GLY A   6      -2.122   9.971 138.169  0.00  0.00    +0.000 C 
BRANCH  47  48
ATOM     48  C   GLY A   6      -1.311   8.694 138.427  0.00  0.00    +0.000 C 
ATOM     49  O   GLY A   6      -0.320   8.731 139.154  0.00  0.00    +0.000 OA
BRANCH  48  50
ATOM     50  OXT GLY A   6      -1.710   7.532 137.838  0.00  0.00    +0.000 OA
ATOM     51  HXT GLY A   6      -1.363   7.243 136.970  0.00  0.00    +0.000 HD
ENDBRANCH  48  50
ENDBRANCH  47  48
ENDBRANCH  45  47
ENDBRANCH  42  43
BRANCH  42  52
ATOM     52  CB  LYS A   5      -6.285   9.559 138.885  0.00  0.00    +0.000 C 
BRANCH  52  53
ATOM     53  CG  LYS A   5      -7.741   9.339 139.180  0.00  0.00    +0.000 C 
BRANCH  53  54
ATOM     54  CD  LYS A   5      -8.647   9.766 138.088  0.00  0.00    +0.000 C 
BRANCH  54  55
ATOM     55  CE  LYS A   5      -9.738   8.746 137.854  0.00  0.00    +0.000 C 
BRANCH  55  56
ATOM     56  NZ  LYS A   5     -10.065   8.704 136.435  0.00  0.00    +0.000 NA
ATOM     57  HZ1 LYS A   5      -9.457   8.029 135.971  0.00  0.00    +0.000 HD
ATOM     58  HZ2 LYS A   5      -9.894   9.620 136.021  0.00  0.00    +0.000 HD
ENDBRANCH  55  56
ENDBRANCH  54  55
ENDBRANCH  53  54
ENDBRANCH  52  53
ENDBRANCH  42  52
ENDBRANCH  40  42
ENDBRANCH  37  38
ENDBRANCH  18  31
BRANCH  13  59
ATOM     59  O   UNK A   0      -8.505   0.860 127.160  0.00  0.00    +0.000 OA
ATOM     60  H   UNK A   0      -8.507   0.917 126.251  0.00  0.00    +0.000 HD
ENDBRANCH  13  59
BRANCH  22  61
ATOM     61  CB  ASN A   2      -6.722   0.642 131.756  0.00  0.00    +0.000 C 
BRANCH  61  62
ATOM     62  CG  ASN A   2      -8.119   0.604 132.054  0.00  0.00    +0.000 C 
ATOM     63  ND2 ASN A   2      -9.290   2.092 132.978  0.00  0.00    +0.000 N 
ATOM     64  OD1 ASN A   2      -8.949  -0.266 131.435  0.00  0.00    +0.000 OA
ATOM     65 HD21 ASN A   2      -8.931   3.068 132.826  0.00  0.00    +0.000 HD
ATOM     66 HD22 ASN A   2     -10.037   2.450 132.394  0.00  0.00    +0.000 HD
ENDBRANCH  61  62
ENDBRANCH  22  61
BRANCH   9  67
ATOM     67  CB  TYR A   1      -6.250   1.298 125.755  0.00  0.00    +0.000 C 
BRANCH  67  68
ATOM     68  CG  TYR A   1      -4.632   2.501 126.136  0.00  0.00    +0.000 A 
ATOM     69  CD1 TYR A   1      -4.404   2.688 128.030  0.00  0.00    +0.000 A 
ATOM     70  CE1 TYR A   1      -3.347   3.088 128.550  0.00  0.00    +0.000 A 
ATOM     71  CZ  TYR A   1      -2.925   4.040 127.750  0.00  0.00    +0.000 A 
ATOM     72  CE2 TYR A   1      -3.584   4.358 126.533  0.00  0.00    +0.000 A 
ATOM     73  CD2 TYR A   1      -4.307   3.580 125.626  0.00  0.00    +0.000 A 
BRANCH  71  74
ATOM     74  OH  TYR A   1      -1.886   4.809 128.155  0.00  0.00    +0.000 OA
ATOM     75  HH  TYR A   1      -1.120   4.324 128.515  0.00  0.00    +0.000 HD
ENDBRANCH  71  74
ENDBRANCH  67  68
ENDBRANCH   9  67
BRANCH   5  76
ATOM     76  CB  TYR A   1      -8.492   3.017 122.346  0.00  0.00    +0.000 C 
BRANCH  76  77
ATOM     77  CG  TYR A   1      -7.404   3.557 121.462  0.00  0.00    +0.000 A 
ATOM     78  CD1 TYR A   1      -6.118   3.717 121.905  0.00  0.00    +0.000 A 
ATOM     79  CE1 TYR A   1      -5.246   4.491 121.170  0.00  0.00    +0.000 A 
ATOM     80  CZ  TYR A   1      -5.505   4.840 119.875  0.00  0.00    +0.000 A 
ATOM     81  CE2 TYR A   1      -6.763   4.623 119.403  0.00  0.00    +0.000 A 
ATOM     82  CD2 TYR A   1      -7.697   3.965 120.173  0.00  0.00    +0.000 A 
ENDBRANCH  76  77
ENDBRANCH   5  76
BRANCH   1  83
ATOM     83  CB  TYR A   1      -6.604  -2.020 131.863  0.00  0.00    +0.000 C 
BRANCH  83  85
ATOM     84  CD1 TYR A   1      -8.170  -3.043 133.918  0.00  0.00    +0.000 C 
ATOM     85  CG  TYR A   1      -6.774  -3.262 133.724  0.00  0.00    +0.000 C 
ATOM     86  CD2 TYR A   1      -7.209  -4.954 134.905  0.00  0.00    +0.000 C 
ENDBRANCH  83  85
ENDBRANCH   1  83
TORSDOF 22
ENDMDL
MODEL 3
REMARK VINA RESULT:     -10.1      1.629      2.735
REMARK  Name = CHEMBL1765669
REMARK  24 active torsions:
REMARK  status: ('A' for Active; 'I' for Inactive)
REMARK    1  A    between atoms: CD1_1  and  CG_2
REMARK    2  A    between atoms: CG_2  and  CD2_3
REMARK    3  A    between atoms: CG_2  and  CB_4
REMARK    4  A    between atoms: CB_4  and  CA_5
REMARK    5  A    between atoms: CA_9  and  CB_10
REMARK    6  A    between atoms: CB_10  and  CG_11
REMARK    7  A    between atoms: CA_20  and  CB_21
REMARK    8  A    between atoms: CB_21  and  CG_22
REMARK    9  A    between atoms: CZ_25  and  OH_26
REMARK   10  A    between atoms: C_32  and  O_33
REMARK   11  A    between atoms: C_38  and  C_39
REMARK   12  A    between atoms: CA_45  and  C_46
REMARK   13  A    between atoms: N_48  and  CA_49
REMARK   14  A    between atoms: CA_49  and  CB_50
REMARK   15  A    between atoms: CA_49  and  C_55
REMARK   16  A    between atoms: CB_50  and  CG_51
REMARK   17  A    between atoms: CG_51  and  CD_52
REMARK   18  A    between atoms: CD_52  and  CE_53
REMARK   19  A    between atoms: CE_53  and  NZ_54
REMARK   20  A    between atoms: N_57  and  CA_58
REMARK   21  A    between atoms: CA_58  and  C_59
REMARK   22  A    between atoms: C_59  and  OXT_61
REMARK   23  A    between atoms: CA_65  and  CB_66
REMARK   24  A    between atoms: CB_66  and  CG_67
REMARK                            x       y       z     vdW  Elec       q    Type
REMARK                         _______ _______ _______ _____ _____    ______ ____
ROOT
ATOM      1  CA  TYR A   1      -6.477  -1.296 129.522  0.00  0.00    +0.000 C 
ATOM      2  N   TYR A   1      -6.974  -0.677 127.264  0.00  0.00    +0.000 N 
ATOM      3  C   TYR A   1      -7.497   0.345 125.236  0.00  0.00    +0.000 C 
ATOM      4  O   TYR A   1      -6.610   0.725 123.797  0.00  0.00    +0.000 OA
ATOM      5  CA  TYR A   1      -8.406   1.302 123.303  0.00  0.00    +0.000 C 
ATOM      6  N   TYR A   1      -9.631   1.476 123.835  0.00  0.00    +0.000 N 
ATOM      7  C   TYR A   1      -9.095   1.666 125.033  0.00  0.00    +0.000 C 
ATOM      8  O   TYR A   1      -9.786   1.282 125.937  0.00  0.00    +0.000 OA
ATOM      9  CA  TYR A   1      -7.461   2.231 125.175  0.00  0.00    +0.000 C 
ATOM     10  N   TYR A   1      -7.447   3.305 125.936  0.00  0.00    +0.000 N 
ATOM     11  C   UNK A   0      -7.824   3.283 127.246  0.00  0.00    +0.000 C 
ATOM     12  O   UNK A   0      -7.757   4.327 127.885  0.00  0.00    +0.000 OA
ATOM     13  C   UNK A   0      -8.328   2.008 127.953  0.00  0.00    +0.000 C 
ATOM     14  C   UNK A   0      -7.453   1.644 129.097  0.00  0.00    +0.000 C 
ATOM     15  S   UNK A   3      -7.606   3.053 130.265  0.00  0.00    +0.000 S 
ATOM     16  S   UNK A   3      -6.418   2.925 131.746  0.00  0.00    +0.000 S 
ATOM     17  C   UNK A   3      -6.346   3.799 133.195  0.00  0.00    +0.000 C 
ATOM     18  C   UNK A   3      -5.426   3.410 134.320  0.00  0.00    +0.000 C 
ATOM     19  N   UNK A   3      -5.885   2.125 134.903  0.00  0.00    +0.000 N 
ATOM     20  C   ASN A   2      -5.961   0.910 134.218  0.00  0.00    +0.000 C 
ATOM     21  O   ASN A   2      -6.401  -0.115 134.727  0.00  0.00    +0.000 OA
ATOM     22  CA  ASN A   2      -5.490   0.821 132.769  0.00  0.00    +0.000 C 
ATOM     23  N   ASN A   2      -4.525  -0.032 132.362  0.00  0.00    +0.000 N 
ATOM     24  C   TYR A   1      -4.926  -0.810 131.213  0.00  0.00    +0.000 C 
ATOM     25  O   TYR A   1      -4.204  -1.838 132.161  0.00  0.00    +0.000 OA
ATOM     26  H   TYR A   1      -7.178  -1.194 125.893  0.00  0.00    +0.000 HD
ATOM     27  H   TYR A   1     -10.541   1.037 123.697  0.00  0.00    +0.000 HD
ATOM     28  H   TYR A   1      -7.072   4.092 125.459  0.00  0.00    +0.000 HD
ATOM     29  H   UNK A   3      -6.184   2.158 135.887  0.00  0.00    +0.000 HD
ATOM     30  H   ASN A   2      -3.558   0.283 132.208  0.00  0.00    +0.000 HD
ENDROOT
BRANCH  18  31
ATOM     31  C   UNK A   3      -5.433   4.578 135.371  0.00  0.00    +0.000 C 
ATOM     32  O   UNK A   3      -5.987   5.633 135.048  0.00  0.00    +0.000 OA
ATOM     33  N   PRO A   4      -4.846   4.338 136.640  0.00  0.00    +0.000 N 
ATOM     34  CD  PRO A   4      -3.550   3.734 136.869  0.00  0.00    +0.000 C 
ATOM     35  CG  PRO A   4      -3.708   3.020 138.172  0.00  0.00    +0.000 C 
ATOM     36  CB  PRO A   4      -4.438   4.063 139.008  0.00  0.00    +0.000 C 
ATOM     37  CA  PRO A   4      -5.326   4.825 138.001  0.00  0.00    +0.000 C 
BRANCH  37  38
ATOM     38  C   PRO A   4      -5.098   6.311 138.196  0.00  0.00    +0.000 C 
ATOM     39  O   PRO A   4      -3.972   6.614 138.601  0.00  0.00    +0.000 OA
ATOM     40  N   LYS A   5      -6.142   7.229 137.992  0.00  0.00    +0.000 N 
ATOM     41  H   LYS A   5      -7.096   6.937 137.781  0.00  0.00    +0.000 HD
BRANCH  40  42
ATOM     42  CA  LYS A   5      -5.931   8.706 138.097  0.00  0.00    +0.000 C 
BRANCH  42  43
ATOM     43  C   LYS A   5      -7.275   9.459 138.342  0.00  0.00    +0.000 C 
ATOM     44  O   LYS A   5      -7.248  10.678 138.547  0.00  0.00    +0.000 OA
ATOM     45  N   GLY A   6      -8.474   8.743 138.324  0.00  0.00    +0.000 N 
ATOM     46  H   GLY A   6      -8.515   7.733 138.156  0.00  0.00    +0.000 HD
BRANCH  45  47
ATOM     47  CA  GLY A   6      -9.785   9.408 138.560  0.00  0.00    +0.000 C 
BRANCH  47  48
ATOM     48  C   GLY A   6     -10.832   8.978 137.524  0.00  0.00    +0.000 C 
ATOM     49  O   GLY A   6     -12.010   8.855 137.854  0.00  0.00    +0.000 OA
BRANCH  48  50
ATOM     50  OXT GLY A   6     -10.430   8.738 136.245  0.00  0.00    +0.000 OA
ATOM     51  HXT GLY A   6     -10.948   8.177 135.633  0.00  0.00    +0.000 HD
ENDBRANCH  48  50
ENDBRANCH  47  48
ENDBRANCH  45  47
ENDBRANCH  42  43
BRANCH  42  52
ATOM     52  CB  LYS A   5      -5.292   9.217 136.821  0.00  0.00    +0.000 C 
BRANCH  52  53
ATOM     53  CG  LYS A   5      -4.029   9.983 137.093  0.00  0.00    +0.000 C 
BRANCH  53  54
ATOM     54  CD  LYS A   5      -2.818   9.382 136.488  0.00  0.00    +0.000 C 
BRANCH  54  55
ATOM     55  CE  LYS A   5      -1.672   9.352 137.474  0.00  0.00    +0.000 C 
BRANCH  55  56
ATOM     56  NZ  LYS A   5      -2.176   8.978 138.789  0.00  0.00    +0.000 NA
ATOM     57  HZ1 LYS A   5      -1.406   8.613 139.351  0.00  0.00    +0.000 HD
ATOM     58  HZ2 LYS A   5      -2.872   8.241 138.688  0.00  0.00    +0.000 HD
ENDBRANCH  55  56
ENDBRANCH  54  55
ENDBRANCH  53  54
ENDBRANCH  52  53
ENDBRANCH  42  52
ENDBRANCH  40  42
ENDBRANCH  37  38
ENDBRANCH  18  31
BRANCH  13  59
ATOM     59  O   UNK A   0      -8.466   0.831 127.316  0.00  0.00    +0.000 OA
ATOM     60  H   UNK A   0      -9.192   0.353 127.587  0.00  0.00    +0.000 HD
ENDBRANCH  13  59
BRANCH  22  61
ATOM     61  CB  ASN A   2      -6.680   0.479 131.902  0.00  0.00    +0.000 C 
BRANCH  61  62
ATOM     62  CG  ASN A   2      -8.078   0.480 132.199  0.00  0.00    +0.000 C 
ATOM     63  ND2 ASN A   2      -9.231   2.049 133.002  0.00  0.00    +0.000 N 
ATOM     64  OD1 ASN A   2      -8.917  -0.425 131.647  0.00  0.00    +0.000 OA
ATOM     65 HD21 ASN A   2      -8.860   3.006 132.776  0.00  0.00    +0.000 HD
ATOM     66 HD22 ASN A   2      -9.974   2.370 132.390  0.00  0.00    +0.000 HD
ENDBRANCH  61  62
ENDBRANCH  22  61
BRANCH   9  67
ATOM     67  CB  TYR A   1      -6.205   1.245 125.914  0.00  0.00    +0.000 C 
BRANCH  67  68
ATOM     68  CG  TYR A   1      -4.548   2.395 126.291  0.00  0.00    +0.000 A 
ATOM     69  CD1 TYR A   1      -4.462   2.802 128.162  0.00  0.00    +0.000 A 
ATOM     70  CE1 TYR A   1      -3.427   3.205 128.722  0.00  0.00    +0.000 A 
ATOM     71  CZ  TYR A   1      -2.881   4.026 127.855  0.00  0.00    +0.000 A 
ATOM     72  CE2 TYR A   1      -3.417   4.227 126.555  0.00  0.00    +0.000 A 
ATOM     73  CD2 TYR A   1      -4.113   3.383 125.686  0.00  0.00    +0.000 A 
BRANCH  71  74
ATOM     74  OH  TYR A   1      -1.829   4.781 128.255  0.00  0.00    +0.000 OA
ATOM     75  HH  TYR A   1      -0.975   4.568 127.835  0.00  0.00    +0.000 HD
ENDBRANCH  71  74
ENDBRANCH  67  68
ENDBRANCH   9  67
BRANCH   5  76
ATOM     76  CB  TYR A   1      -8.412   3.084 122.546  0.00  0.00    +0.000 C 
BRANCH  76  77
ATOM     77  CG  TYR A   1      -7.360   3.585 121.597  0.00  0.00    +0.000 A 
ATOM     78  CD1 TYR A   1      -6.056   3.755 121.981  0.00  0.00    +0.000 A 
ATOM     79  CE1 TYR A   1      -5.213   4.496 121.181  0.00  0.00    +0.000 A 
ATOM     80  CZ  TYR A   1      -5.524   4.797 119.886  0.00  0.00    +0.000 A 
ATOM     81  CE2 TYR A   1      -6.802   4.569 119.474  0.00  0.00    +0.000 A 
ATOM     82  CD2 TYR A   1      -7.705   3.945 120.307  0.00  0.00    +0.000 A 
ENDBRANCH  76  77
ENDBRANCH   5  76
BRANCH   1  83
ATOM     83  CB  TYR A   1      -6.625  -2.187 131.955  0.00  0.00    +0.000 C 
BRANCH  83  85
ATOM     84  CD1 TYR A   1      -8.228  -3.259 133.955  0.00  0.00    +0.000 C 
ATOM     85  CG  TYR A   1      -6.826  -3.461 133.792  0.00  0.00    +0.000 C 
ATOM     86  CD2 TYR A   1      -7.271  -5.177 134.934  0.00  0.00    +0.000 C 
ENDBRANCH  83  85
ENDBRANCH   1  83
TORSDOF 22
ENDMDL
MODEL 4
REMARK VINA RESULT:      -9.5      2.028      2.729
REMARK  Name = CHEMBL1765669
REMARK  24 active torsions:
REMARK  status: ('A' for Active; 'I' for Inactive)
REMARK    1  A    between atoms: CD1_1  and  CG_2
REMARK    2  A    between atoms: CG_2  and  CD2_3
REMARK    3  A    between atoms: CG_2  and  CB_4
REMARK    4  A    between atoms: CB_4  and  CA_5
REMARK    5  A    between atoms: CA_9  and  CB_10
REMARK    6  A    between atoms: CB_10  and  CG_11
REMARK    7  A    between atoms: CA_20  and  CB_21
REMARK    8  A    between atoms: CB_21  and  CG_22
REMARK    9  A    between atoms: CZ_25  and  OH_26
REMARK   10  A    between atoms: C_32  and  O_33
REMARK   11  A    between atoms: C_38  and  C_39
REMARK   12  A    between atoms: CA_45  and  C_46
REMARK   13  A    between atoms: N_48  and  CA_49
REMARK   14  A    between atoms: CA_49  and  CB_50
REMARK   15  A    between atoms: CA_49  and  C_55
REMARK   16  A    between atoms: CB_50  and  CG_51
REMARK   17  A    between atoms: CG_51  and  CD_52
REMARK   18  A    between atoms: CD_52  and  CE_53
REMARK   19  A    between atoms: CE_53  and  NZ_54
REMARK   20  A    between atoms: N_57  and  CA_58
REMARK   21  A    between atoms: CA_58  and  C_59
REMARK   22  A    between atoms: C_59  and  OXT_61
REMARK   23  A    between atoms: CA_65  and  CB_66
REMARK   24  A    between atoms: CB_66  and  CG_67
REMARK                            x       y       z     vdW  Elec       q    Type
REMARK                         _______ _______ _______ _____ _____    ______ ____
ROOT
ATOM      1  CA  TYR A   1      -5.398  -1.946 128.773  0.00  0.00    +0.000 C 
ATOM      2  N   TYR A   1      -6.291  -1.272 126.657  0.00  0.00    +0.000 N 
ATOM      3  C   TYR A   1      -7.282  -0.238 124.819  0.00  0.00    +0.000 C 
ATOM      4  O   TYR A   1      -6.690   0.487 123.361  0.00  0.00    +0.000 OA
ATOM      5  CA  TYR A   1      -8.617   0.625 123.101  0.00  0.00    +0.000 C 
ATOM      6  N   TYR A   1      -9.777   0.428 123.757  0.00  0.00    +0.000 N 
ATOM      7  C   TYR A   1      -9.169   0.639 124.917  0.00  0.00    +0.000 C 
ATOM      8  O   TYR A   1      -9.634   0.010 125.828  0.00  0.00    +0.000 OA
ATOM      9  CA  TYR A   1      -7.719   1.591 124.978  0.00  0.00    +0.000 C 
ATOM     10  N   TYR A   1      -7.882   2.559 125.856  0.00  0.00    +0.000 N 
ATOM     11  C   UNK A   0      -8.086   2.320 127.182  0.00  0.00    +0.000 C 
ATOM     12  O   UNK A   0      -8.204   3.283 127.932  0.00  0.00    +0.000 OA
ATOM     13  C   UNK A   0      -8.175   0.899 127.776  0.00  0.00    +0.000 C 
ATOM     14  C   UNK A   0      -7.110   0.670 128.786  0.00  0.00    +0.000 C 
ATOM     15  S   UNK A   3      -7.469   1.879 130.121  0.00  0.00    +0.000 S 
ATOM     16  S   UNK A   3      -6.121   1.926 131.465  0.00  0.00    +0.000 S 
ATOM     17  C   UNK A   3      -6.099   2.654 132.994  0.00  0.00    +0.000 C 
ATOM     18  C   UNK A   3      -4.986   2.413 133.979  0.00  0.00    +0.000 C 
ATOM     19  N   UNK A   3      -5.044   1.006 134.445  0.00  0.00    +0.000 N 
ATOM     20  C   ASN A   2      -4.897  -0.120 133.631  0.00  0.00    +0.000 C 
ATOM     21  O   ASN A   2      -5.009  -1.266 134.053  0.00  0.00    +0.000 OA
ATOM     22  CA  ASN A   2      -4.591   0.049 132.145  0.00  0.00    +0.000 C 
ATOM     23  N   ASN A   2      -3.500  -0.487 131.556  0.00  0.00    +0.000 N 
ATOM     24  C   TYR A   1      -3.828  -1.234 130.364  0.00  0.00    +0.000 C 
ATOM     25  O   TYR A   1      -2.770  -2.124 131.116  0.00  0.00    +0.000 OA
ATOM     26  H   TYR A   1      -6.519  -1.697 125.259  0.00  0.00    +0.000 HD
ATOM     27  H   TYR A   1     -10.561  -0.215 123.651  0.00  0.00    +0.000 HD
ATOM     28  H   TYR A   1      -7.770   3.456 125.443  0.00  0.00    +0.000 HD
ATOM     29  H   UNK A   3      -5.225   0.871 135.448  0.00  0.00    +0.000 HD
ATOM     30  H   ASN A   2      -2.665   0.079 131.355  0.00  0.00    +0.000 HD
ENDROOT
BRANCH  18  31
ATOM     31  C   UNK A   3      -5.159   3.440 135.156  0.00  0.00    +0.000 C 
ATOM     32  O   UNK A   3      -5.906   3.122 136.085  0.00  0.00    +0.000 OA
ATOM     33  N   PRO A   4      -4.413   4.646 135.105  0.00  0.00    +0.000 N 
ATOM     34  CD  PRO A   4      -4.302   5.520 133.956  0.00  0.00    +0.000 C 
ATOM     35  CG  PRO A   4      -2.940   6.120 134.087  0.00  0.00    +0.000 C 
ATOM     36  CB  PRO A   4      -2.903   6.477 135.566  0.00  0.00    +0.000 C 
ATOM     37  CA  PRO A   4      -3.748   5.386 136.258  0.00  0.00    +0.000 C 
BRANCH  37  38
ATOM     38  C   PRO A   4      -4.755   6.067 137.163  0.00  0.00    +0.000 C 
ATOM     39  O   PRO A   4      -4.751   7.300 137.108  0.00  0.00    +0.000 OA
ATOM     40  N   LYS A   5      -5.556   5.314 138.038  0.00  0.00    +0.000 N 
ATOM     41  H   LYS A   5      -5.446   4.307 138.153  0.00  0.00    +0.000 HD
BRANCH  40  42
ATOM     42  CA  LYS A   5      -6.614   5.945 138.886  0.00  0.00    +0.000 C 
BRANCH  42  43
ATOM     43  C   LYS A   5      -7.564   6.847 138.039  0.00  0.00    +0.000 C 
ATOM     44  O   LYS A   5      -8.195   6.338 137.106  0.00  0.00    +0.000 OA
ATOM     45  N   GLY A   6      -7.679   8.203 138.352  0.00  0.00    +0.000 N 
ATOM     46  H   GLY A   6      -7.164   8.641 139.122  0.00  0.00    +0.000 HD
BRANCH  45  47
ATOM     47  CA  GLY A   6      -8.563   9.113 137.573  0.00  0.00    +0.000 C 
BRANCH  47  48
ATOM     48  C   GLY A   6      -9.900   9.353 138.288  0.00  0.00    +0.000 C 
ATOM     49  O   GLY A   6     -10.940   8.901 137.816  0.00  0.00    +0.000 OA
BRANCH  48  50
ATOM     50  OXT GLY A   6      -9.905  10.073 139.445  0.00  0.00    +0.000 OA
ATOM     51  HXT GLY A   6      -9.640  11.014 139.472  0.00  0.00    +0.000 HD
ENDBRANCH  48  50
ENDBRANCH  47  48
ENDBRANCH  45  47
ENDBRANCH  42  43
BRANCH  42  52
ATOM     52  CB  LYS A   5      -5.961   6.778 139.971  0.00  0.00    +0.000 C 
BRANCH  52  53
ATOM     53  CG  LYS A   5      -6.278   6.263 141.345  0.00  0.00    +0.000 C 
BRANCH  53  54
ATOM     54  CD  LYS A   5      -7.092   5.025 141.350  0.00  0.00    +0.000 C 
BRANCH  54  55
ATOM     55  CE  LYS A   5      -6.344   3.882 141.997  0.00  0.00    +0.000 C 
BRANCH  55  56
ATOM     56  NZ  LYS A   5      -7.150   3.324 143.074  0.00  0.00    +0.000 NA
ATOM     57  HZ1 LYS A   5      -6.621   3.364 143.945  0.00  0.00    +0.000 HD
ATOM     58  HZ2 LYS A   5      -7.354   2.345 142.872  0.00  0.00    +0.000 HD
ENDBRANCH  55  56
ENDBRANCH  54  55
ENDBRANCH  53  54
ENDBRANCH  52  53
ENDBRANCH  42  52
ENDBRANCH  40  42
ENDBRANCH  37  38
ENDBRANCH  18  31
BRANCH  13  59
ATOM     59  O   UNK A   0      -8.092  -0.210 127.020  0.00  0.00    +0.000 OA
ATOM     60  H   UNK A   0      -7.681  -0.906 127.437  0.00  0.00    +0.000 HD
ENDBRANCH  13  59
BRANCH  22  61
ATOM     61  CB  ASN A   2      -5.752  -0.508 131.354  0.00  0.00    +0.000 C 
BRANCH  61  62
ATOM     62  CG  ASN A   2      -6.917  -1.217 131.785  0.00  0.00    +0.000 C 
ATOM     63  ND2 ASN A   2      -7.461  -1.743 133.750  0.00  0.00    +0.000 N 
ATOM     64  OD1 ASN A   2      -8.013  -1.317 130.999  0.00  0.00    +0.000 OA
ATOM     65 HD21 ASN A   2      -7.085  -1.090 134.483  0.00  0.00    +0.000 HD
ATOM     66 HD22 ASN A   2      -8.334  -1.330 134.061  0.00  0.00    +0.000 HD
ENDBRANCH  61  62
ENDBRANCH  22  61
BRANCH   9  67
ATOM     67  CB  TYR A   1      -6.181   0.898 125.480  0.00  0.00    +0.000 C 
BRANCH  67  68
ATOM     68  CG  TYR A   1      -4.809   2.393 125.781  0.00  0.00    +0.000 A 
ATOM     69  CD1 TYR A   1      -4.232   2.374 127.609  0.00  0.00    +0.000 A 
ATOM     70  CE1 TYR A   1      -3.197   2.945 127.999  0.00  0.00    +0.000 A 
ATOM     71  CZ  TYR A   1      -3.163   4.068 127.321  0.00  0.00    +0.000 A 
ATOM     72  CE2 TYR A   1      -4.116   4.378 126.314  0.00  0.00    +0.000 A 
ATOM     73  CD2 TYR A   1      -4.833   3.577 125.422  0.00  0.00    +0.000 A 
BRANCH  71  74
ATOM     74  OH  TYR A   1      -2.247   5.004 127.668  0.00  0.00    +0.000 OA
ATOM     75  HH  TYR A   1      -1.599   5.236 126.977  0.00  0.00    +0.000 HD
ENDBRANCH  71  74
ENDBRANCH  67  68
ENDBRANCH   9  67
BRANCH   5  76
ATOM     76  CB  TYR A   1      -9.150   2.407 122.564  0.00  0.00    +0.000 C 
BRANCH  76  77
ATOM     77  CG  TYR A   1      -8.401   3.225 121.550  0.00  0.00    +0.000 A 
ATOM     78  CD1 TYR A   1      -9.013   3.752 120.445  0.00  0.00    +0.000 A 
ATOM     79  CE1 TYR A   1      -8.236   4.221 119.406  0.00  0.00    +0.000 A 
ATOM     80  CZ  TYR A   1      -6.903   4.474 119.559  0.00  0.00    +0.000 A 
ATOM     81  CE2 TYR A   1      -6.298   4.012 120.688  0.00  0.00    +0.000 A 
ATOM     82  CD2 TYR A   1      -7.038   3.419 121.687  0.00  0.00    +0.000 A 
ENDBRANCH  76  77
ENDBRANCH   5  76
BRANCH   1  83
ATOM     83  CB  TYR A   1      -5.037  -3.063 131.088  0.00  0.00    +0.000 C 
BRANCH  83  85
ATOM     84  CD1 TYR A   1      -5.695  -4.918 133.049  0.00  0.00    +0.000 C 
ATOM     85  CG  TYR A   1      -4.397  -4.389 132.782  0.00  0.00    +0.000 C 
ATOM     86  CD2 TYR A   1      -3.829  -6.172 133.753  0.00  0.00    +0.000 C 
ENDBRANCH  83  85
ENDBRANCH   1  83
TORSDOF 22
ENDMDL
MODEL 5
REMARK VINA RESULT:      -9.5      3.613     13.216
REMARK  Name = CHEMBL1765669
REMARK  24 active torsions:
REMARK  status: ('A' for Active; 'I' for Inactive)
REMARK    1  A    between atoms: CD1_1  and  CG_2
REMARK    2  A    between atoms: CG_2  and  CD2_3
REMARK    3  A    between atoms: CG_2  and  CB_4
REMARK    4  A    between atoms: CB_4  and  CA_5
REMARK    5  A    between atoms: CA_9  and  CB_10
REMARK    6  A    between atoms: CB_10  and  CG_11
REMARK    7  A    between atoms: CA_20  and  CB_21
REMARK    8  A    between atoms: CB_21  and  CG_22
REMARK    9  A    between atoms: CZ_25  and  OH_26
REMARK   10  A    between atoms: C_32  and  O_33
REMARK   11  A    between atoms: C_38  and  C_39
REMARK   12  A    between atoms: CA_45  and  C_46
REMARK   13  A    between atoms: N_48  and  CA_49
REMARK   14  A    between atoms: CA_49  and  CB_50
REMARK   15  A    between atoms: CA_49  and  C_55
REMARK   16  A    between atoms: CB_50  and  CG_51
REMARK   17  A    between atoms: CG_51  and  CD_52
REMARK   18  A    between atoms: CD_52  and  CE_53
REMARK   19  A    between atoms: CE_53  and  NZ_54
REMARK   20  A    between atoms: N_57  and  CA_58
REMARK   21  A    between atoms: CA_58  and  C_59
REMARK   22  A    between atoms: C_59  and  OXT_61
REMARK   23  A    between atoms: CA_65  and  CB_66
REMARK   24  A    between atoms: CB_66  and  CG_67
REMARK                            x       y       z     vdW  Elec       q    Type
REMARK                         _______ _______ _______ _____ _____    ______ ____
ROOT
ATOM      1  CA  TYR A   1      -8.072   6.166 133.850  0.00  0.00    +0.000 C 
ATOM      2  N   TYR A   1      -6.600   6.261 135.736  0.00  0.00    +0.000 N 
ATOM      3  C   TYR A   1      -4.966   5.995 137.376  0.00  0.00    +0.000 C 
ATOM      4  O   TYR A   1      -3.548   6.877 137.840  0.00  0.00    +0.000 OA
ATOM      5  CA  TYR A   1      -3.589   5.477 139.196  0.00  0.00    +0.000 C 
ATOM      6  N   TYR A   1      -4.246   4.344 139.509  0.00  0.00    +0.000 N 
ATOM      7  C   TYR A   1      -4.535   4.145 138.230  0.00  0.00    +0.000 C 
ATOM      8  O   TYR A   1      -5.587   3.594 138.052  0.00  0.00    +0.000 OA
ATOM      9  CA  TYR A   1      -3.529   4.833 136.995  0.00  0.00    +0.000 C 
ATOM     10  N   TYR A   1      -3.142   3.875 136.179  0.00  0.00    +0.000 N 
ATOM     11  C   UNK A   0      -4.019   3.156 135.422  0.00  0.00    +0.000 C 
ATOM     12  O   UNK A   0      -3.567   2.298 134.672  0.00  0.00    +0.000 OA
ATOM     13  C   UNK A   0      -5.545   3.375 135.470  0.00  0.00    +0.000 C 
ATOM     14  C   UNK A   0      -6.074   3.779 134.143  0.00  0.00    +0.000 C 
ATOM     15  S   UNK A   3      -5.728   2.345 133.049  0.00  0.00    +0.000 S 
ATOM     16  S   UNK A   3      -6.137   2.686 131.221  0.00  0.00    +0.000 S 
ATOM     17  C   UNK A   3      -6.245   1.644 129.891  0.00  0.00    +0.000 C 
ATOM     18  C   UNK A   3      -6.764   2.103 128.554  0.00  0.00    +0.000 C 
ATOM     19  N   UNK A   3      -8.212   2.403 128.672  0.00  0.00    +0.000 N 
ATOM     20  C   ASN A   2      -8.769   3.382 129.498  0.00  0.00    +0.000 C 
ATOM     21  O   ASN A   2      -9.978   3.556 129.603  0.00  0.00    +0.000 OA
ATOM     22  CA  ASN A   2      -7.860   4.287 130.326  0.00  0.00    +0.000 C 
ATOM     23  N   ASN A   2      -7.877   5.633 130.223  0.00  0.00    +0.000 N 
ATOM     24  C   TYR A   1      -7.994   6.282 131.509  0.00  0.00    +0.000 C 
ATOM     25  O   TYR A   1      -8.968   7.081 130.566  0.00  0.00    +0.000 OA
ATOM     26  H   TYR A   1      -6.325   6.957 137.011  0.00  0.00    +0.000 HD
ATOM     27  H   TYR A   1      -4.867   4.062 140.268  0.00  0.00    +0.000 HD
ATOM     28  H   TYR A   1      -2.152   3.798 136.141  0.00  0.00    +0.000 HD
ATOM     29  H   UNK A   3      -8.841   1.820 128.103  0.00  0.00    +0.000 HD
ATOM     30  H   ASN A   2      -7.167   6.140 129.678  0.00  0.00    +0.000 HD
ENDROOT
BRANCH  18  31
ATOM     31  C   UNK A   3      -6.472   0.964 127.511  0.00  0.00    +0.000 C 
ATOM     32  O   UNK A   3      -6.308   1.296 126.334  0.00  0.00    +0.000 OA
ATOM     33  N   PRO A   4      -6.370  -0.368 127.989  0.00  0.00    +0.000 N 
ATOM     34  CD  PRO A   4      -7.301  -1.015 128.891  0.00  0.00    +0.000 C 
ATOM     35  CG  PRO A   4      -6.452  -1.974 129.661  0.00  0.00    +0.000 C 
ATOM     36  CB  PRO A   4      -5.606  -2.591 128.557  0.00  0.00    +0.000 C 
ATOM     37  CA  PRO A   4      -5.411  -1.458 127.527  0.00  0.00    +0.000 C 
BRANCH  37  38
ATOM     38  C   PRO A   4      -5.767  -1.996 126.155  0.00  0.00    +0.000 C 
ATOM     39  O   PRO A   4      -5.064  -2.933 125.767  0.00  0.00    +0.000 OA
ATOM     40  N   LYS A   5      -6.778  -1.391 125.389  0.00  0.00    +0.000 N 
ATOM     41  H   LYS A   5      -7.254  -0.539 125.684  0.00  0.00    +0.000 HD
BRANCH  40  42
ATOM     42  CA  LYS A   5      -7.209  -1.944 124.068  0.00  0.00    +0.000 C 
BRANCH  42  43
ATOM     43  C   LYS A   5      -8.149  -0.954 123.314  0.00  0.00    +0.000 C 
ATOM     44  O   LYS A   5      -8.657  -1.310 122.244  0.00  0.00    +0.000 OA
ATOM     45  N   GLY A   6      -8.397   0.307 123.862  0.00  0.00    +0.000 N 
ATOM     46  H   GLY A   6      -7.986   0.617 124.747  0.00  0.00    +0.000 HD
BRANCH  45  47
ATOM     47  CA  GLY A   6      -9.279   1.295 123.182  0.00  0.00    +0.000 C 
BRANCH  47  48
ATOM     48  C   GLY A   6      -8.918   2.735 123.568  0.00  0.00    +0.000 C 
ATOM     49  O   GLY A   6      -9.036   3.109 124.733  0.00  0.00    +0.000 OA
BRANCH  48  50
ATOM     50  OXT GLY A   6      -8.468   3.581 122.599  0.00  0.00    +0.000 OA
ATOM     51  HXT GLY A   6      -7.850   3.288 121.899  0.00  0.00    +0.000 HD
ENDBRANCH  48  50
ENDBRANCH  47  48
ENDBRANCH  45  47
ENDBRANCH  42  43
BRANCH  42  52
ATOM     52  CB  LYS A   5      -7.928  -3.260 124.281  0.00  0.00    +0.000 C 
BRANCH  52  53
ATOM     53  CG  LYS A   5      -9.359  -3.060 124.691  0.00  0.00    +0.000 C 
BRANCH  53  54
ATOM     54  CD  LYS A   5      -9.551  -2.908 126.152  0.00  0.00    +0.000 C 
BRANCH  54  55
ATOM     55  CE  LYS A   5      -8.728  -3.917 126.919  0.00  0.00    +0.000 C 
BRANCH  55  56
ATOM     56  NZ  LYS A   5      -9.216  -3.998 128.289  0.00  0.00    +0.000 NA
ATOM     57  HZ1 LYS A   5      -8.621  -4.634 128.820  0.00  0.00    +0.000 HD
ATOM     58  HZ2 LYS A   5     -10.163  -4.376 128.290  0.00  0.00    +0.000 HD
ENDBRANCH  55  56
ENDBRANCH  54  55
ENDBRANCH  53  54
ENDBRANCH  52  53
ENDBRANCH  42  52
ENDBRANCH  40  42
ENDBRANCH  37  38
ENDBRANCH  18  31
BRANCH  13  59
ATOM     59  O   UNK A   0      -6.124   4.269 136.291  0.00  0.00    +0.000 OA
ATOM     60  H   UNK A   0      -5.552   4.907 136.597  0.00  0.00    +0.000 HD
ENDBRANCH  13  59
BRANCH  22  61
ATOM     61  CB  ASN A   2      -8.130   4.021 131.790  0.00  0.00    +0.000 C 
BRANCH  61  62
ATOM     62  CG  ASN A   2      -8.963   3.045 132.419  0.00  0.00    +0.000 C 
ATOM     63  ND2 ASN A   2      -9.456   1.119 131.725  0.00  0.00    +0.000 N 
ATOM     64  OD1 ASN A   2      -9.247   3.106 133.740  0.00  0.00    +0.000 OA
ATOM     65 HD21 ASN A   2      -8.723   0.691 131.105  0.00  0.00    +0.000 HD
ATOM     66 HD22 ASN A   2      -9.146   0.369 132.334  0.00  0.00    +0.000 HD
ENDBRANCH  61  62
ENDBRANCH  22  61
BRANCH   9  67
ATOM     67  CB  TYR A   1      -4.142   6.042 135.873  0.00  0.00    +0.000 C 
BRANCH  67  68
ATOM     68  CG  TYR A   1      -2.637   6.659 134.622  0.00  0.00    +0.000 A 
ATOM     69  CD1 TYR A   1      -2.563   5.506 133.092  0.00  0.00    +0.000 A 
ATOM     70  CE1 TYR A   1      -1.976   5.813 132.039  0.00  0.00    +0.000 A 
ATOM     71  CZ  TYR A   1      -0.889   6.434 132.436  0.00  0.00    +0.000 A 
ATOM     72  CE2 TYR A   1      -0.629   6.713 133.804  0.00  0.00    +0.000 A 
ATOM     73  CD2 TYR A   1      -1.474   6.988 134.883  0.00  0.00    +0.000 A 
BRANCH  71  74
ATOM     74  OH  TYR A   1       0.061   6.724 131.514  0.00  0.00    +0.000 OA
ATOM     75  HH  TYR A   1       0.925   6.294 131.652  0.00  0.00    +0.000 HD
ENDBRANCH  71  74
ENDBRANCH  67  68
ENDBRANCH   9  67
BRANCH   5  76
ATOM     76  CB  TYR A   1      -1.870   4.607 139.391  0.00  0.00    +0.000 C 
BRANCH  76  77
ATOM     77  CG  TYR A   1      -0.567   5.254 139.013  0.00  0.00    +0.000 A 
ATOM     78  CD1 TYR A   1      -0.509   6.509 138.468  0.00  0.00    +0.000 A 
ATOM     79  CE1 TYR A   1       0.658   6.924 137.863  0.00  0.00    +0.000 A 
ATOM     80  CZ  TYR A   1       1.844   6.275 138.057  0.00  0.00    +0.000 A 
ATOM     81  CE2 TYR A   1       1.804   5.055 138.659  0.00  0.00    +0.000 A 
ATOM     82  CD2 TYR A   1       0.619   4.558 139.157  0.00  0.00    +0.000 A 
ENDBRANCH  76  77
ENDBRANCH   5  76
BRANCH   1  83
ATOM     83  CB  TYR A   1     -10.101   5.747 132.287  0.00  0.00    +0.000 C 
BRANCH  83  85
ATOM     84  CD1 TYR A   1     -12.394   7.077 131.455  0.00  0.00    +0.000 C 
ATOM     85  CG  TYR A   1     -11.793   5.946 130.827  0.00  0.00    +0.000 C 
ATOM     86  CD2 TYR A   1     -12.863   6.705 129.176  0.00  0.00    +0.000 C 
ENDBRANCH  83  85
ENDBRANCH   1  83
TORSDOF 22
ENDMDL
MODEL 6
REMARK VINA RESULT:      -9.4      1.591      2.654
REMARK  Name = CHEMBL1765669
REMARK  24 active torsions:
REMARK  status: ('A' for Active; 'I' for Inactive)
REMARK    1  A    between atoms: CD1_1  and  CG_2
REMARK    2  A    between atoms: CG_2  and  CD2_3
REMARK    3  A    between atoms: CG_2  and  CB_4
REMARK    4  A    between atoms: CB_4  and  CA_5
REMARK    5  A    between atoms: CA_9  and  CB_10
REMARK    6  A    between atoms: CB_10  and  CG_11
REMARK    7  A    between atoms: CA_20  and  CB_21
REMARK    8  A    between atoms: CB_21  and  CG_22
REMARK    9  A    between atoms: CZ_25  and  OH_26
REMARK   10  A    between atoms: C_32  and  O_33
REMARK   11  A    between atoms: C_38  and  C_39
REMARK   12  A    between atoms: CA_45  and  C_46
REMARK   13  A    between atoms: N_48  and  CA_49
REMARK   14  A    between atoms: CA_49  and  CB_50
REMARK   15  A    between atoms: CA_49  and  C_55
REMARK   16  A    between atoms: CB_50  and  CG_51
REMARK   17  A    between atoms: CG_51  and  CD_52
REMARK   18  A    between atoms: CD_52  and  CE_53
REMARK   19  A    between atoms: CE_53  and  NZ_54
REMARK   20  A    between atoms: N_57  and  CA_58
REMARK   21  A    between atoms: CA_58  and  C_59
REMARK   22  A    between atoms: C_59  and  OXT_61
REMARK   23  A    between atoms: CA_65  and  CB_66
REMARK   24  A    between atoms: CB_66  and  CG_67
REMARK                            x       y       z     vdW  Elec       q    Type
REMARK                         _______ _______ _______ _____ _____    ______ ____
ROOT
ATOM      1  CA  TYR A   1      -5.641  -1.584 129.011  0.00  0.00    +0.000 C 
ATOM      2  N   TYR A   1      -6.463  -0.974 126.847  0.00  0.00    +0.000 N 
ATOM      3  C   TYR A   1      -7.355   0.018 124.937  0.00  0.00    +0.000 C 
ATOM      4  O   TYR A   1      -6.696   0.603 123.444  0.00  0.00    +0.000 OA
ATOM      5  CA  TYR A   1      -8.604   0.876 123.153  0.00  0.00    +0.000 C 
ATOM      6  N   TYR A   1      -9.781   0.813 123.805  0.00  0.00    +0.000 N 
ATOM      7  C   TYR A   1      -9.166   1.046 124.957  0.00  0.00    +0.000 C 
ATOM      8  O   TYR A   1      -9.687   0.513 125.899  0.00  0.00    +0.000 OA
ATOM      9  CA  TYR A   1      -7.646   1.883 124.978  0.00  0.00    +0.000 C 
ATOM     10  N   TYR A   1      -7.738   2.913 125.793  0.00  0.00    +0.000 N 
ATOM     11  C   UNK A   0      -7.970   2.774 127.129  0.00  0.00    +0.000 C 
ATOM     12  O   UNK A   0      -8.018   3.788 127.816  0.00  0.00    +0.000 OA
ATOM     13  C   UNK A   0      -8.176   1.404 127.807  0.00  0.00    +0.000 C 
ATOM     14  C   UNK A   0      -7.141   1.154 128.843  0.00  0.00    +0.000 C 
ATOM     15  S   UNK A   3      -7.412   2.469 130.096  0.00  0.00    +0.000 S 
ATOM     16  S   UNK A   3      -6.075   2.493 131.452  0.00  0.00    +0.000 S 
ATOM     17  C   UNK A   3      -6.007   3.310 132.933  0.00  0.00    +0.000 C 
ATOM     18  C   UNK A   3      -4.924   3.043 133.945  0.00  0.00    +0.000 C 
ATOM     19  N   UNK A   3      -5.097   1.676 134.495  0.00  0.00    +0.000 N 
ATOM     20  C   ASN A   2      -5.034   0.494 133.753  0.00  0.00    +0.000 C 
ATOM     21  O   ASN A   2      -5.239  -0.611 134.243  0.00  0.00    +0.000 OA
ATOM     22  CA  ASN A   2      -4.704   0.546 132.264  0.00  0.00    +0.000 C 
ATOM     23  N   ASN A   2      -3.654  -0.110 131.723  0.00  0.00    +0.000 N 
ATOM     24  C   TYR A   1      -4.032  -0.901 130.575  0.00  0.00    +0.000 C 
ATOM     25  O   TYR A   1      -3.053  -1.823 131.392  0.00  0.00    +0.000 OA
ATOM     26  H   TYR A   1      -6.713  -1.465 125.474  0.00  0.00    +0.000 HD
ATOM     27  H   TYR A   1     -10.612   0.227 123.729  0.00  0.00    +0.000 HD
ATOM     28  H   TYR A   1      -7.553   3.771 125.328  0.00  0.00    +0.000 HD
ATOM     29  H   UNK A   3      -5.296   1.618 135.503  0.00  0.00    +0.000 HD
ATOM     30  H   ASN A   2      -2.776   0.375 131.497  0.00  0.00    +0.000 HD
ENDROOT
BRANCH  18  31
ATOM     31  C   UNK A   3      -5.023   4.151 135.055  0.00  0.00    +0.000 C 
ATOM     32  O   UNK A   3      -5.599   3.856 136.106  0.00  0.00    +0.000 OA
ATOM     33  N   PRO A   4      -4.409   5.405 134.804  0.00  0.00    +0.000 N 
ATOM     34  CD  PRO A   4      -4.543   6.182 133.589  0.00  0.00    +0.000 C 
ATOM     35  CG  PRO A   4      -3.238   6.900 133.471  0.00  0.00    +0.000 C 
ATOM     36  CB  PRO A   4      -3.026   7.386 134.898  0.00  0.00    +0.000 C 
ATOM     37  CA  PRO A   4      -3.659   6.295 135.787  0.00  0.00    +0.000 C 
BRANCH  37  38
ATOM     38  C   PRO A   4      -4.587   6.968 136.778  0.00  0.00    +0.000 C 
ATOM     39  O   PRO A   4      -5.762   7.056 136.411  0.00  0.00    +0.000 OA
ATOM     40  N   LYS A   5      -4.087   7.504 137.977  0.00  0.00    +0.000 N 
ATOM     41  H   LYS A   5      -3.091   7.529 138.194  0.00  0.00    +0.000 HD
BRANCH  40  42
ATOM     42  CA  LYS A   5      -4.985   8.103 139.013  0.00  0.00    +0.000 C 
BRANCH  42  43
ATOM     43  C   LYS A   5      -5.965   9.142 138.388  0.00  0.00    +0.000 C 
ATOM     44  O   LYS A   5      -5.516  10.224 137.992  0.00  0.00    +0.000 OA
ATOM     45  N   GLY A   6      -7.322   8.829 138.287  0.00  0.00    +0.000 N 
ATOM     46  H   GLY A   6      -7.711   7.938 138.609  0.00  0.00    +0.000 HD
BRANCH  45  47
ATOM     47  CA  GLY A   6      -8.305   9.786 137.707  0.00  0.00    +0.000 C 
BRANCH  47  48
ATOM     48  C   GLY A   6      -9.697   9.155 137.573  0.00  0.00    +0.000 C 
ATOM     49  O   GLY A   6     -10.441   9.095 138.550  0.00  0.00    +0.000 OA
BRANCH  48  50
ATOM     50  OXT GLY A   6     -10.084   8.669 136.361  0.00  0.00    +0.000 OA
ATOM     51  HXT GLY A   6     -10.587   7.835 136.272  0.00  0.00    +0.000 HD
ENDBRANCH  48  50
ENDBRANCH  47  48
ENDBRANCH  45  47
ENDBRANCH  42  43
BRANCH  42  52
ATOM     52  CB  LYS A   5      -4.145   8.778 140.079  0.00  0.00    +0.000 C 
BRANCH  52  53
ATOM     53  CG  LYS A   5      -2.745   9.047 139.605  0.00  0.00    +0.000 C 
BRANCH  53  54
ATOM     54  CD  LYS A   5      -2.345  10.471 139.688  0.00  0.00    +0.000 C 
BRANCH  54  55
ATOM     55  CE  LYS A   5      -2.047  11.035 138.317  0.00  0.00    +0.000 C 
BRANCH  55  56
ATOM     56  NZ  LYS A   5      -2.458  10.077 137.300  0.00  0.00    +0.000 NA
ATOM     57  HZ1 LYS A   5      -3.146   9.438 137.699  0.00  0.00    +0.000 HD
ATOM     58  HZ2 LYS A   5      -1.651   9.529 137.004  0.00  0.00    +0.000 HD
ENDBRANCH  55  56
ENDBRANCH  54  55
ENDBRANCH  53  54
ENDBRANCH  52  53
ENDBRANCH  42  52
ENDBRANCH  40  42
ENDBRANCH  37  38
ENDBRANCH  18  31
BRANCH  13  59
ATOM     59  O   UNK A   0      -8.176   0.247 127.121  0.00  0.00    +0.000 OA
ATOM     60  H   UNK A   0      -7.508   0.188 126.505  0.00  0.00    +0.000 HD
ENDBRANCH  13  59
BRANCH  22  61
ATOM     61  CB  ASN A   2      -5.900   0.034 131.494  0.00  0.00    +0.000 C 
BRANCH  61  62
ATOM     62  CG  ASN A   2      -7.251  -0.180 131.909  0.00  0.00    +0.000 C 
ATOM     63  ND2 ASN A   2      -8.726  -1.353 130.971  0.00  0.00    +0.000 N 
ATOM     64  OD1 ASN A   2      -7.644   0.060 133.181  0.00  0.00    +0.000 OA
ATOM     65 HD21 ASN A   2      -8.338  -2.156 130.413  0.00  0.00    +0.000 HD
ATOM     66 HD22 ASN A   2      -9.064  -2.123 131.538  0.00  0.00    +0.000 HD
ENDBRANCH  61  62
ENDBRANCH  22  61
BRANCH   9  67
ATOM     67  CB  TYR A   1      -6.172   1.103 125.540  0.00  0.00    +0.000 C 
BRANCH  67  68
ATOM     68  CG  TYR A   1      -4.726   2.517 125.890  0.00  0.00    +0.000 A 
ATOM     69  CD1 TYR A   1      -4.206   2.458 127.734  0.00  0.00    +0.000 A 
ATOM     70  CE1 TYR A   1      -3.152   2.967 128.158  0.00  0.00    +0.000 A 
ATOM     71  CZ  TYR A   1      -3.035   4.090 127.487  0.00  0.00    +0.000 A 
ATOM     72  CE2 TYR A   1      -3.938   4.457 126.454  0.00  0.00    +0.000 A 
ATOM     73  CD2 TYR A   1      -4.673   3.701 125.537  0.00  0.00    +0.000 A 
BRANCH  71  74
ATOM     74  OH  TYR A   1      -2.078   4.970 127.866  0.00  0.00    +0.000 OA
ATOM     75  HH  TYR A   1      -1.579   5.389 127.139  0.00  0.00    +0.000 HD
ENDBRANCH  71  74
ENDBRANCH  67  68
ENDBRANCH   9  67
BRANCH   5  76
ATOM     76  CB  TYR A   1      -8.990   2.658 122.501  0.00  0.00    +0.000 C 
BRANCH  76  77
ATOM     77  CG  TYR A   1      -8.325   3.261 121.296  0.00  0.00    +0.000 A 
ATOM     78  CD1 TYR A   1      -6.969   3.442 121.227  0.00  0.00    +0.000 A 
ATOM     79  CE1 TYR A   1      -6.450   4.267 120.252  0.00  0.00    +0.000 A 
ATOM     80  CZ  TYR A   1      -7.185   4.655 119.168  0.00  0.00    +0.000 A 
ATOM     81  CE2 TYR A   1      -8.526   4.420 119.197  0.00  0.00    +0.000 A 
ATOM     82  CD2 TYR A   1      -9.089   3.707 120.233  0.00  0.00    +0.000 A 
ENDBRANCH  76  77
ENDBRANCH   5  76
BRANCH   1  83
ATOM     83  CB  TYR A   1      -5.387  -2.581 131.394  0.00  0.00    +0.000 C 
BRANCH  83  85
ATOM     84  CD1 TYR A   1      -6.922  -3.624 133.461  0.00  0.00    +0.000 C 
ATOM     85  CG  TYR A   1      -5.529  -3.839 133.246  0.00  0.00    +0.000 C 
ATOM     86  CD2 TYR A   1      -5.945  -5.542 134.418  0.00  0.00    +0.000 C 
ENDBRANCH  83  85
ENDBRANCH   1  83
TORSDOF 22
ENDMDL
MODEL 7
REMARK VINA RESULT:      -9.3      1.884      3.127
REMARK  Name = CHEMBL1765669
REMARK  24 active torsions:
REMARK  status: ('A' for Active; 'I' for Inactive)
REMARK    1  A    between atoms: CD1_1  and  CG_2
REMARK    2  A    between atoms: CG_2  and  CD2_3
REMARK    3  A    between atoms: CG_2  and  CB_4
REMARK    4  A    between atoms: CB_4  and  CA_5
REMARK    5  A    between atoms: CA_9  and  CB_10
REMARK    6  A    between atoms: CB_10  and  CG_11
REMARK    7  A    between atoms: CA_20  and  CB_21
REMARK    8  A    between atoms: CB_21  and  CG_22
REMARK    9  A    between atoms: CZ_25  and  OH_26
REMARK   10  A    between atoms: C_32  and  O_33
REMARK   11  A    between atoms: C_38  and  C_39
REMARK   12  A    between atoms: CA_45  and  C_46
REMARK   13  A    between atoms: N_48  and  CA_49
REMARK   14  A    between atoms: CA_49  and  CB_50
REMARK   15  A    between atoms: CA_49  and  C_55
REMARK   16  A    between atoms: CB_50  and  CG_51
REMARK   17  A    between atoms: CG_51  and  CD_52
REMARK   18  A    between atoms: CD_52  and  CE_53
REMARK   19  A    between atoms: CE_53  and  NZ_54
REMARK   20  A    between atoms: N_57  and  CA_58
REMARK   21  A    between atoms: CA_58  and  C_59
REMARK   22  A    between atoms: C_59  and  OXT_61
REMARK   23  A    between atoms: CA_65  and  CB_66
REMARK   24  A    between atoms: CB_66  and  CG_67
REMARK                            x       y       z     vdW  Elec       q    Type
REMARK                         _______ _______ _______ _____ _____    ______ ____
ROOT
ATOM      1  CA  TYR A   1      -6.536  -1.143 129.408  0.00  0.00    +0.000 C 
ATOM      2  N   TYR A   1      -7.073  -0.599 127.139  0.00  0.00    +0.000 N 
ATOM      3  C   TYR A   1      -7.631   0.356 125.088  0.00  0.00    +0.000 C 
ATOM      4  O   TYR A   1      -6.770   0.684 123.621  0.00  0.00    +0.000 OA
ATOM      5  CA  TYR A   1      -8.572   1.250 123.141  0.00  0.00    +0.000 C 
ATOM      6  N   TYR A   1      -9.787   1.447 123.689  0.00  0.00    +0.000 N 
ATOM      7  C   TYR A   1      -9.228   1.675 124.870  0.00  0.00    +0.000 C 
ATOM      8  O   TYR A   1      -9.903   1.325 125.800  0.00  0.00    +0.000 OA
ATOM      9  CA  TYR A   1      -7.589   2.238 124.963  0.00  0.00    +0.000 C 
ATOM     10  N   TYR A   1      -7.558   3.338 125.687  0.00  0.00    +0.000 N 
ATOM     11  C   UNK A   0      -7.910   3.361 127.004  0.00  0.00    +0.000 C 
ATOM     12  O   UNK A   0      -7.828   4.426 127.606  0.00  0.00    +0.000 OA
ATOM     13  C   UNK A   0      -8.405   2.112 127.762  0.00  0.00    +0.000 C 
ATOM     14  C   UNK A   0      -7.510   1.784 128.901  0.00  0.00    +0.000 C 
ATOM     15  S   UNK A   3      -7.637   3.233 130.023  0.00  0.00    +0.000 S 
ATOM     16  S   UNK A   3      -6.422   3.150 131.486  0.00  0.00    +0.000 S 
ATOM     17  C   UNK A   3      -6.320   4.073 132.903  0.00  0.00    +0.000 C 
ATOM     18  C   UNK A   3      -5.380   3.718 134.023  0.00  0.00    +0.000 C 
ATOM     19  N   UNK A   3      -5.833   2.455 134.658  0.00  0.00    +0.000 N 
ATOM     20  C   ASN A   2      -5.924   1.218 134.015  0.00  0.00    +0.000 C 
ATOM     21  O   ASN A   2      -6.358   0.212 134.567  0.00  0.00    +0.000 OA
ATOM     22  CA  ASN A   2      -5.481   1.079 132.562  0.00  0.00    +0.000 C 
ATOM     23  N   ASN A   2      -4.526   0.208 132.167  0.00  0.00    +0.000 N 
ATOM     24  C   TYR A   1      -4.952  -0.607 131.053  0.00  0.00    +0.000 C 
ATOM     25  O   TYR A   1      -4.216  -1.605 132.021  0.00  0.00    +0.000 OA
ATOM     26  H   TYR A   1      -7.304  -1.161 125.791  0.00  0.00    +0.000 HD
ATOM     27  H   TYR A   1     -10.701   1.007 123.583  0.00  0.00    +0.000 HD
ATOM     28  H   TYR A   1      -7.189   4.107 125.177  0.00  0.00    +0.000 HD
ATOM     29  H   UNK A   3      -6.113   2.522 135.645  0.00  0.00    +0.000 HD
ATOM     30  H   ASN A   2      -3.562   0.515 131.984  0.00  0.00    +0.000 HD
ENDROOT
BRANCH  18  31
ATOM     31  C   UNK A   3      -5.364   4.921 135.034  0.00  0.00    +0.000 C 
ATOM     32  O   UNK A   3      -5.588   6.048 134.583  0.00  0.00    +0.000 OA
ATOM     33  N   PRO A   4      -5.139   4.638 136.406  0.00  0.00    +0.000 N 
ATOM     34  CD  PRO A   4      -4.090   3.789 136.931  0.00  0.00    +0.000 C 
ATOM     35  CG  PRO A   4      -4.685   3.202 138.169  0.00  0.00    +0.000 C 
ATOM     36  CB  PRO A   4      -5.335   4.421 138.806  0.00  0.00    +0.000 C 
ATOM     37  CA  PRO A   4      -5.790   5.294 137.617  0.00  0.00    +0.000 C 
BRANCH  37  38
ATOM     38  C   PRO A   4      -5.292   6.707 137.845  0.00  0.00    +0.000 C 
ATOM     39  O   PRO A   4      -4.431   6.818 138.722  0.00  0.00    +0.000 OA
ATOM     40  N   LYS A   5      -5.853   7.786 137.142  0.00  0.00    +0.000 N 
ATOM     41  H   LYS A   5      -6.651   7.679 136.517  0.00  0.00    +0.000 HD
BRANCH  40  42
ATOM     42  CA  LYS A   5      -5.332   9.182 137.283  0.00  0.00    +0.000 C 
BRANCH  42  43
ATOM     43  C   LYS A   5      -3.987   9.370 136.516  0.00  0.00    +0.000 C 
ATOM     44  O   LYS A   5      -3.704  10.489 136.072  0.00  0.00    +0.000 OA
ATOM     45  N   GLY A   6      -3.135   8.276 136.348  0.00  0.00    +0.000 N 
ATOM     46  H   GLY A   6      -3.354   7.342 136.709  0.00  0.00    +0.000 HD
BRANCH  45  47
ATOM     47  CA  GLY A   6      -1.844   8.395 135.617  0.00  0.00    +0.000 C 
BRANCH  47  48
ATOM     48  C   GLY A   6      -2.042   8.296 134.099  0.00  0.00    +0.000 C 
ATOM     49  O   GLY A   6      -1.887   7.219 133.527  0.00  0.00    +0.000 OA
BRANCH  48  50
ATOM     50  OXT GLY A   6      -2.389   9.418 133.408  0.00  0.00    +0.000 OA
ATOM     51  HXT GLY A   6      -2.279  10.314 133.783  0.00  0.00    +0.000 HD
ENDBRANCH  48  50
ENDBRANCH  47  48
ENDBRANCH  45  47
ENDBRANCH  42  43
BRANCH  42  52
ATOM     52  CB  LYS A   5      -5.123   9.496 138.751  0.00  0.00    +0.000 C 
BRANCH  52  53
ATOM     53  CG  LYS A   5      -3.869  10.288 138.985  0.00  0.00    +0.000 C 
BRANCH  53  54
ATOM     54  CD  LYS A   5      -3.178   9.961 140.254  0.00  0.00    +0.000 C 
BRANCH  54  55
ATOM     55  CE  LYS A   5      -1.773   9.464 139.999  0.00  0.00    +0.000 C 
BRANCH  55  56
ATOM     56  NZ  LYS A   5      -1.830   8.220 139.243  0.00  0.00    +0.000 NA
ATOM     57  HZ1 LYS A   5      -2.640   8.241 138.623  0.00  0.00    +0.000 HD
ATOM     58  HZ2 LYS A   5      -1.944   7.438 139.886  0.00  0.00    +0.000 HD
ENDBRANCH  55  56
ENDBRANCH  54  55
ENDBRANCH  53  54
ENDBRANCH  52  53
ENDBRANCH  42  52
ENDBRANCH  40  42
ENDBRANCH  37  38
ENDBRANCH  18  31
BRANCH  13  59
ATOM     59  O   UNK A   0      -8.559   0.916 127.168  0.00  0.00    +0.000 OA
ATOM     60  H   UNK A   0      -7.826   0.380 127.232  0.00  0.00    +0.000 HD
ENDBRANCH  13  59
BRANCH  22  61
ATOM     61  CB  ASN A   2      -6.688   0.711 131.729  0.00  0.00    +0.000 C 
BRANCH  61  62
ATOM     62  CG  ASN A   2      -8.079   0.707 132.060  0.00  0.00    +0.000 C 
ATOM     63  ND2 ASN A   2      -9.182   2.203 133.049  0.00  0.00    +0.000 N 
ATOM     64  OD1 ASN A   2      -8.949  -0.121 131.438  0.00  0.00    +0.000 OA
ATOM     65 HD21 ASN A   2      -8.797   3.172 132.915  0.00  0.00    +0.000 HD
ATOM     66 HD22 ASN A   2      -9.932   2.599 132.492  0.00  0.00    +0.000 HD
ENDBRANCH  61  62
ENDBRANCH  22  61
BRANCH   9  67
ATOM     67  CB  TYR A   1      -6.323   1.273 125.711  0.00  0.00    +0.000 C 
BRANCH  67  68
ATOM     68  CG  TYR A   1      -4.683   2.447 126.088  0.00  0.00    +0.000 A 
ATOM     69  CD1 TYR A   1      -4.426   2.600 127.982  0.00  0.00    +0.000 A 
ATOM     70  CE1 TYR A   1      -3.356   2.978 128.493  0.00  0.00    +0.000 A 
ATOM     71  CZ  TYR A   1      -2.933   3.937 127.702  0.00  0.00    +0.000 A 
ATOM     72  CE2 TYR A   1      -3.605   4.284 126.501  0.00  0.00    +0.000 A 
ATOM     73  CD2 TYR A   1      -4.351   3.530 125.591  0.00  0.00    +0.000 A 
BRANCH  71  74
ATOM     74  OH  TYR A   1      -1.877   4.685 128.104  0.00  0.00    +0.000 OA
ATOM     75  HH  TYR A   1      -1.949   5.642 127.930  0.00  0.00    +0.000 HD
ENDBRANCH  71  74
ENDBRANCH  67  68
ENDBRANCH   9  67
BRANCH   5  76
ATOM     76  CB  TYR A   1      -8.587   3.006 122.325  0.00  0.00    +0.000 C 
BRANCH  76  77
ATOM     77  CG  TYR A   1      -7.465   3.534 121.476  0.00  0.00    +0.000 A 
ATOM     78  CD1 TYR A   1      -6.188   3.658 121.954  0.00  0.00    +0.000 A 
ATOM     79  CE1 TYR A   1      -5.280   4.423 121.253  0.00  0.00    +0.000 A 
ATOM     80  CZ  TYR A   1      -5.498   4.797 119.958  0.00  0.00    +0.000 A 
ATOM     81  CE2 TYR A   1      -6.749   4.617 119.451  0.00  0.00    +0.000 A 
ATOM     82  CD2 TYR A   1      -7.716   3.968 120.187  0.00  0.00    +0.000 A 
ENDBRANCH  76  77
ENDBRANCH   5  76
BRANCH   1  83
ATOM     83  CB  TYR A   1      -6.641  -1.951 131.872  0.00  0.00    +0.000 C 
BRANCH  83  85
ATOM     84  CD1 TYR A   1      -8.385  -2.817 133.854  0.00  0.00    +0.000 C 
ATOM     85  CG  TYR A   1      -6.991  -3.104 133.765  0.00  0.00    +0.000 C 
ATOM     86  CD2 TYR A   1      -7.581  -4.724 134.979  0.00  0.00    +0.000 C 
ENDBRANCH  83  85
ENDBRANCH   1  83
TORSDOF 22
ENDMDL
MODEL 8
REMARK VINA RESULT:      -8.9      5.402      9.926
REMARK  Name = CHEMBL1765669
REMARK  24 active torsions:
REMARK  status: ('A' for Active; 'I' for Inactive)
REMARK    1  A    between atoms: CD1_1  and  CG_2
REMARK    2  A    between atoms: CG_2  and  CD2_3
REMARK    3  A    between atoms: CG_2  and  CB_4
REMARK    4  A    between atoms: CB_4  and  CA_5
REMARK    5  A    between atoms: CA_9  and  CB_10
REMARK    6  A    between atoms: CB_10  and  CG_11
REMARK    7  A    between atoms: CA_20  and  CB_21
REMARK    8  A    between atoms: CB_21  and  CG_22
REMARK    9  A    between atoms: CZ_25  and  OH_26
REMARK   10  A    between atoms: C_32  and  O_33
REMARK   11  A    between atoms: C_38  and  C_39
REMARK   12  A    between atoms: CA_45  and  C_46
REMARK   13  A    between atoms: N_48  and  CA_49
REMARK   14  A    between atoms: CA_49  and  CB_50
REMARK   15  A    between atoms: CA_49  and  C_55
REMARK   16  A    between atoms: CB_50  and  CG_51
REMARK   17  A    between atoms: CG_51  and  CD_52
REMARK   18  A    between atoms: CD_52  and  CE_53
REMARK   19  A    between atoms: CE_53  and  NZ_54
REMARK   20  A    between atoms: N_57  and  CA_58
REMARK   21  A    between atoms: CA_58  and  C_59
REMARK   22  A    between atoms: C_59  and  OXT_61
REMARK   23  A    between atoms: CA_65  and  CB_66
REMARK   24  A    between atoms: CB_66  and  CG_67
REMARK                            x       y       z     vdW  Elec       q    Type
REMARK                         _______ _______ _______ _____ _____    ______ ____
ROOT
ATOM      1  CA  TYR A   1      -8.385   1.422 132.097  0.00  0.00    +0.000 C 
ATOM      2  N   TYR A   1      -7.842  -0.896 132.354  0.00  0.00    +0.000 N 
ATOM      3  C   TYR A   1      -6.890  -2.999 132.668  0.00  0.00    +0.000 C 
ATOM      4  O   TYR A   1      -6.943  -4.186 133.929  0.00  0.00    +0.000 OA
ATOM      5  CA  TYR A   1      -5.868  -5.103 132.586  0.00  0.00    +0.000 C 
ATOM      6  N   TYR A   1      -5.264  -4.884 131.402  0.00  0.00    +0.000 N 
ATOM      7  C   TYR A   1      -5.151  -3.593 131.688  0.00  0.00    +0.000 C 
ATOM      8  O   TYR A   1      -5.211  -2.878 130.724  0.00  0.00    +0.000 OA
ATOM      9  CA  TYR A   1      -5.129  -3.067 133.341  0.00  0.00    +0.000 C 
ATOM     10  N   TYR A   1      -4.052  -2.335 133.540  0.00  0.00    +0.000 N 
ATOM     11  C   UNK A   0      -3.837  -1.154 132.894  0.00  0.00    +0.000 C 
ATOM     12  O   UNK A   0      -2.817  -0.528 133.159  0.00  0.00    +0.000 OA
ATOM     13  C   UNK A   0      -4.816  -0.578 131.850  0.00  0.00    +0.000 C 
ATOM     14  C   UNK A   0      -5.338   0.746 132.275  0.00  0.00    +0.000 C 
ATOM     15  S   UNK A   3      -3.856   1.830 132.341  0.00  0.00    +0.000 S 
ATOM     16  S   UNK A   3      -4.227   3.555 133.055  0.00  0.00    +0.000 S 
ATOM     17  C   UNK A   3      -3.297   4.970 133.087  0.00  0.00    +0.000 C 
ATOM     18  C   UNK A   3      -3.859   6.287 133.549  0.00  0.00    +0.000 C 
ATOM     19  N   UNK A   3      -4.872   6.754 132.570  0.00  0.00    +0.000 N 
ATOM     20  C   ASN A   2      -6.055   6.082 132.251  0.00  0.00    +0.000 C 
ATOM     21  O   ASN A   2      -6.836   6.480 131.394  0.00  0.00    +0.000 OA
ATOM     22  CA  ASN A   2      -6.417   4.790 132.978  0.00  0.00    +0.000 C 
ATOM     23  N   ASN A   2      -7.567   4.636 133.670  0.00  0.00    +0.000 N 
ATOM     24  C   TYR A   1      -8.274   3.432 133.301  0.00  0.00    +0.000 C 
ATOM     25  O   TYR A   1      -9.391   4.535 133.409  0.00  0.00    +0.000 OA
ATOM     26  H   TYR A   1      -8.386  -2.270 132.302  0.00  0.00    +0.000 HD
ATOM     27  H   TYR A   1      -5.399  -5.232 130.453  0.00  0.00    +0.000 HD
ATOM     28  H   TYR A   1      -3.472  -2.715 134.252  0.00  0.00    +0.000 HD
ATOM     29  H   UNK A   3      -4.658   7.637 132.087  0.00  0.00    +0.000 HD
ATOM     30  H   ASN A   2      -7.593   4.716 134.695  0.00  0.00    +0.000 HD
ENDROOT
BRANCH  18  31
ATOM     31  C   UNK A   3      -2.662   7.294 133.695  0.00  0.00    +0.000 C 
ATOM     32  O   UNK A   3      -1.747   7.216 132.871  0.00  0.00    +0.000 OA
ATOM     33  N   PRO A   4      -2.724   8.260 134.733  0.00  0.00    +0.000 N 
ATOM     34  CD  PRO A   4      -3.063   7.992 136.115  0.00  0.00    +0.000 C 
ATOM     35  CG  PRO A   4      -3.729   9.248 136.575  0.00  0.00    +0.000 C 
ATOM     36  CB  PRO A   4      -2.800  10.313 136.009  0.00  0.00    +0.000 C 
ATOM     37  CA  PRO A   4      -2.268   9.713 134.690  0.00  0.00    +0.000 C 
BRANCH  37  38
ATOM     38  C   PRO A   4      -0.758   9.843 134.683  0.00  0.00    +0.000 C 
ATOM     39  O   PRO A   4      -0.157   8.942 135.274  0.00  0.00    +0.000 OA
ATOM     40  N   LYS A   5      -0.139  10.962 134.102  0.00  0.00    +0.000 N 
ATOM     41  H   LYS A   5      -0.667  11.753 133.734  0.00  0.00    +0.000 HD
BRANCH  40  42
ATOM     42  CA  LYS A   5       1.349  11.085 134.006  0.00  0.00    +0.000 C 
BRANCH  42  43
ATOM     43  C   LYS A   5       1.903  12.129 135.024  0.00  0.00    +0.000 C 
ATOM     44  O   LYS A   5       3.126  12.282 135.117  0.00  0.00    +0.000 OA
ATOM     45  N   GLY A   6       1.009  12.865 135.804  0.00  0.00    +0.000 N 
ATOM     46  H   GLY A   6      -0.007  12.752 135.740  0.00  0.00    +0.000 HD
BRANCH  45  47
ATOM     47  CA  GLY A   6       1.481  13.869 136.797  0.00  0.00    +0.000 C 
BRANCH  47  48
ATOM     48  C   GLY A   6       1.132  15.300 136.366  0.00  0.00    +0.000 C 
ATOM     49  O   GLY A   6       0.183  15.500 135.610  0.00  0.00    +0.000 OA
BRANCH  48  50
ATOM     50  OXT GLY A   6       1.891  16.330 136.834  0.00  0.00    +0.000 OA
ATOM     51  HXT GLY A   6       2.237  16.347 137.748  0.00  0.00    +0.000 HD
ENDBRANCH  48  50
ENDBRANCH  47  48
ENDBRANCH  45  47
ENDBRANCH  42  43
BRANCH  42  52
ATOM     52  CB  LYS A   5       1.733  11.498 132.600  0.00  0.00    +0.000 C 
BRANCH  52  53
ATOM     53  CG  LYS A   5       1.185  12.850 132.241  0.00  0.00    +0.000 C 
BRANCH  53  54
ATOM     54  CD  LYS A   5       0.271  12.839 131.075  0.00  0.00    +0.000 C 
BRANCH  54  55
ATOM     55  CE  LYS A   5      -1.126  13.257 131.472  0.00  0.00    +0.000 C 
BRANCH  55  56
ATOM     56  NZ  LYS A   5      -1.887  12.082 131.873  0.00  0.00    +0.000 NA
ATOM     57  HZ1 LYS A   5      -1.612  11.289 131.293  0.00  0.00    +0.000 HD
ATOM     58  HZ2 LYS A   5      -2.881  12.254 131.723  0.00  0.00    +0.000 HD
ENDBRANCH  55  56
ENDBRANCH  54  55
ENDBRANCH  53  54
ENDBRANCH  52  53
ENDBRANCH  42  52
ENDBRANCH  40  42
ENDBRANCH  37  38
ENDBRANCH  18  31
BRANCH  13  59
ATOM     59  O   UNK A   0      -5.937  -1.219 131.475  0.00  0.00    +0.000 OA
ATOM     60  H   UNK A   0      -6.292  -0.908 130.697  0.00  0.00    +0.000 HD
ENDBRANCH  13  59
BRANCH  22  61
ATOM     61  CB  ASN A   2      -6.436   3.666 131.968  0.00  0.00    +0.000 C 
BRANCH  61  62
ATOM     62  CG  ASN A   2      -6.073   3.651 130.586  0.00  0.00    +0.000 C 
ATOM     63  ND2 ASN A   2      -4.691   4.893 129.594  0.00  0.00    +0.000 N 
ATOM     64  OD1 ASN A   2      -6.312   2.573 129.805  0.00  0.00    +0.000 OA
ATOM     65 HD21 ASN A   2      -3.922   5.251 130.215  0.00  0.00    +0.000 HD
ATOM     66 HD22 ASN A   2      -3.908   4.395 129.185  0.00  0.00    +0.000 HD
ENDBRANCH  61  62
ENDBRANCH  22  61
BRANCH   9  67
ATOM     67  CB  TYR A   1      -6.396  -2.039 133.999  0.00  0.00    +0.000 C 
BRANCH  67  68
ATOM     68  CG  TYR A   1      -6.103  -1.774 136.012  0.00  0.00    +0.000 A 
ATOM     69  CD1 TYR A   1      -4.977  -0.250 136.302  0.00  0.00    +0.000 A 
ATOM     70  CE1 TYR A   1      -4.887   0.328 137.400  0.00  0.00    +0.000 A 
ATOM     71  CZ  TYR A   1      -4.905  -0.641 138.285  0.00  0.00    +0.000 A 
ATOM     72  CE2 TYR A   1      -5.099  -2.000 137.922  0.00  0.00    +0.000 A 
ATOM     73  CD2 TYR A   1      -5.822  -2.601 136.889  0.00  0.00    +0.000 A 
BRANCH  71  74
ATOM     74  OH  TYR A   1      -4.626  -0.340 139.577  0.00  0.00    +0.000 OA
ATOM     75  HH  TYR A   1      -5.389  -0.064 140.119  0.00  0.00    +0.000 HD
ENDBRANCH  71  74
ENDBRANCH  67  68
ENDBRANCH   9  67
BRANCH   5  76
ATOM     76  CB  TYR A   1      -4.252  -5.855 133.341  0.00  0.00    +0.000 C 
BRANCH  76  77
ATOM     77  CG  TYR A   1      -3.985  -5.930 134.818  0.00  0.00    +0.000 A 
ATOM     78  CD1 TYR A   1      -4.825  -6.588 135.677  0.00  0.00    +0.000 A 
ATOM     79  CE1 TYR A   1      -4.707  -6.368 137.033  0.00  0.00    +0.000 A 
ATOM     80  CZ  TYR A   1      -3.600  -5.778 137.575  0.00  0.00    +0.000 A 
ATOM     81  CE2 TYR A   1      -2.723  -5.178 136.724  0.00  0.00    +0.000 A 
ATOM     82  CD2 TYR A   1      -2.894  -5.274 135.360  0.00  0.00    +0.000 A 
ENDBRANCH  76  77
ENDBRANCH   5  76
BRANCH   1  83
ATOM     83  CB  TYR A   1      -8.964   3.756 131.121  0.00  0.00    +0.000 C 
BRANCH  83  85
ATOM     84  CD1 TYR A   1     -11.161   5.282 130.372  0.00  0.00    +0.000 C 
ATOM     85  CG  TYR A   1      -9.813   5.465 129.942  0.00  0.00    +0.000 C 
ATOM     86  CD2 TYR A   1     -10.539   7.411 129.578  0.00  0.00    +0.000 C 
ENDBRANCH  83  85
ENDBRANCH   1  83
TORSDOF 22
ENDMDL
MODEL 9
REMARK VINA RESULT:      -8.6      3.570     13.932
REMARK  Name = CHEMBL1765669
REMARK  24 active torsions:
REMARK  status: ('A' for Active; 'I' for Inactive)
REMARK    1  A    between atoms: CD1_1  and  CG_2
REMARK    2  A    between atoms: CG_2  and  CD2_3
REMARK    3  A    between atoms: CG_2  and  CB_4
REMARK    4  A    between atoms: CB_4  and  CA_5
REMARK    5  A    between atoms: CA_9  and  CB_10
REMARK    6  A    between atoms: CB_10  and  CG_11
REMARK    7  A    between atoms: CA_20  and  CB_21
REMARK    8  A    between atoms: CB_21  and  CG_22
REMARK    9  A    between atoms: CZ_25  and  OH_26
REMARK   10  A    between atoms: C_32  and  O_33
REMARK   11  A    between atoms: C_38  and  C_39
REMARK   12  A    between atoms: CA_45  and  C_46
REMARK   13  A    between atoms: N_48  and  CA_49
REMARK   14  A    between atoms: CA_49  and  CB_50
REMARK   15  A    between atoms: CA_49  and  C_55
REMARK   16  A    between atoms: CB_50  and  CG_51
REMARK   17  A    between atoms: CG_51  and  CD_52
REMARK   18  A    between atoms: CD_52  and  CE_53
REMARK   19  A    between atoms: CE_53  and  NZ_54
REMARK   20  A    between atoms: N_57  and  CA_58
REMARK   21  A    between atoms: CA_58  and  C_59
REMARK   22  A    between atoms: C_59  and  OXT_61
REMARK   23  A    between atoms: CA_65  and  CB_66
REMARK   24  A    between atoms: CB_66  and  CG_67
REMARK                            x       y       z     vdW  Elec       q    Type
REMARK                         _______ _______ _______ _____ _____    ______ ____
ROOT
ATOM      1  CA  TYR A   1      -8.108   6.321 133.951  0.00  0.00    +0.000 C 
ATOM      2  N   TYR A   1      -6.750   6.565 135.908  0.00  0.00    +0.000 N 
ATOM      3  C   TYR A   1      -5.202   6.445 137.645  0.00  0.00    +0.000 C 
ATOM      4  O   TYR A   1      -3.851   7.409 138.144  0.00  0.00    +0.000 OA
ATOM      5  CA  TYR A   1      -3.909   6.070 139.559  0.00  0.00    +0.000 C 
ATOM      6  N   TYR A   1      -4.535   4.924 139.889  0.00  0.00    +0.000 N 
ATOM      7  C   TYR A   1      -4.742   4.656 138.607  0.00  0.00    +0.000 C 
ATOM      8  O   TYR A   1      -5.758   4.051 138.398  0.00  0.00    +0.000 OA
ATOM      9  CA  TYR A   1      -3.698   5.333 137.397  0.00  0.00    +0.000 C 
ATOM     10  N   TYR A   1      -3.226   4.358 136.649  0.00  0.00    +0.000 N 
ATOM     11  C   UNK A   0      -4.027   3.568 135.880  0.00  0.00    +0.000 C 
ATOM     12  O   UNK A   0      -3.498   2.698 135.196  0.00  0.00    +0.000 OA
ATOM     13  C   UNK A   0      -5.561   3.720 135.835  0.00  0.00    +0.000 C 
ATOM     14  C   UNK A   0      -6.031   4.041 134.463  0.00  0.00    +0.000 C 
ATOM     15  S   UNK A   3      -5.564   2.577 133.457  0.00  0.00    +0.000 S 
ATOM     16  S   UNK A   3      -5.884   2.819 131.597  0.00  0.00    +0.000 S 
ATOM     17  C   UNK A   3      -5.872   1.715 130.312  0.00  0.00    +0.000 C 
ATOM     18  C   UNK A   3      -6.334   2.091 128.930  0.00  0.00    +0.000 C 
ATOM     19  N   UNK A   3      -7.798   2.331 128.954  0.00  0.00    +0.000 N 
ATOM     20  C   ASN A   2      -8.441   3.320 129.702  0.00  0.00    +0.000 C 
ATOM     21  O   ASN A   2      -9.660   3.444 129.733  0.00  0.00    +0.000 OA
ATOM     22  CA  ASN A   2      -7.619   4.300 130.535  0.00  0.00    +0.000 C 
ATOM     23  N   ASN A   2      -7.687   5.638 130.369  0.00  0.00    +0.000 N 
ATOM     24  C   TYR A   1      -7.903   6.337 131.615  0.00  0.00    +0.000 C 
ATOM     25  O   TYR A   1      -8.856   7.050 130.585  0.00  0.00    +0.000 OA
ATOM     26  H   TYR A   1      -6.577   7.328 137.163  0.00  0.00    +0.000 HD
ATOM     27  H   TYR A   1      -5.184   4.648 140.626  0.00  0.00    +0.000 HD
ATOM     28  H   TYR A   1      -2.233   4.324 136.668  0.00  0.00    +0.000 HD
ATOM     29  H   UNK A   3      -8.368   1.696 128.379  0.00  0.00    +0.000 HD
ATOM     30  H   ASN A   2      -6.970   6.151 129.840  0.00  0.00    +0.000 HD
ENDROOT
BRANCH  18  31
ATOM     31  C   UNK A   3      -5.936   0.921 127.958  0.00  0.00    +0.000 C 
ATOM     32  O   UNK A   3      -5.195   1.194 127.010  0.00  0.00    +0.000 OA
ATOM     33  N   PRO A   4      -6.413  -0.383 128.253  0.00  0.00    +0.000 N 
ATOM     34  CD  PRO A   4      -7.778  -0.724 128.594  0.00  0.00    +0.000 C 
ATOM     35  CG  PRO A   4      -7.641  -1.896 129.510  0.00  0.00    +0.000 C 
ATOM     36  CB  PRO A   4      -6.599  -2.735 128.783  0.00  0.00    +0.000 C 
ATOM     37  CA  PRO A   4      -5.681  -1.708 128.087  0.00  0.00    +0.000 C 
BRANCH  37  38
ATOM     38  C   PRO A   4      -5.536  -2.108 126.632  0.00  0.00    +0.000 C 
ATOM     39  O   PRO A   4      -4.731  -3.021 126.424  0.00  0.00    +0.000 OA
ATOM     40  N   LYS A   5      -6.226  -1.413 125.626  0.00  0.00    +0.000 N 
ATOM     41  H   LYS A   5      -6.784  -0.582 125.817  0.00  0.00    +0.000 HD
BRANCH  40  42
ATOM     42  CA  LYS A   5      -6.169  -1.831 124.191  0.00  0.00    +0.000 C 
BRANCH  42  43
ATOM     43  C   LYS A   5      -7.083  -0.937 123.298  0.00  0.00    +0.000 C 
ATOM     44  O   LYS A   5      -7.265  -1.260 122.118  0.00  0.00    +0.000 OA
ATOM     45  N   GLY A   6      -7.675   0.201 123.848  0.00  0.00    +0.000 N 
ATOM     46  H   GLY A   6      -7.536   0.482 124.824  0.00  0.00    +0.000 HD
BRANCH  45  47
ATOM     47  CA  GLY A   6      -8.550   1.095 123.041  0.00  0.00    +0.000 C 
BRANCH  47  48
ATOM     48  C   GLY A   6     -10.030   0.713 123.177  0.00  0.00    +0.000 C 
ATOM     49  O   GLY A   6     -10.473  -0.258 122.566  0.00  0.00    +0.000 OA
BRANCH  48  50
ATOM     50  OXT GLY A   6     -10.832   1.466 123.981  0.00  0.00    +0.000 OA
ATOM     51  HXT GLY A   6     -10.587   2.372 124.257  0.00  0.00    +0.000 HD
ENDBRANCH  48  50
ENDBRANCH  47  48
ENDBRANCH  45  47
ENDBRANCH  42  43
BRANCH  42  52
ATOM     52  CB  LYS A   5      -6.603  -3.278 124.069  0.00  0.00    +0.000 C 
BRANCH  52  53
ATOM     53  CG  LYS A   5      -8.085  -3.439 124.252  0.00  0.00    +0.000 C 
BRANCH  53  54
ATOM     54  CD  LYS A   5      -8.480  -3.861 125.615  0.00  0.00    +0.000 C 
BRANCH  54  55
ATOM     55  CE  LYS A   5      -9.601  -3.000 126.150  0.00  0.00    +0.000 C 
BRANCH  55  56
ATOM     56  NZ  LYS A   5      -9.543  -1.686 125.524  0.00  0.00    +0.000 NA
ATOM     57  HZ1 LYS A   5      -8.837  -1.696 124.788  0.00  0.00    +0.000 HD
ATOM     58  HZ2 LYS A   5      -9.266  -0.992 126.218  0.00  0.00    +0.000 HD
ENDBRANCH  55  56
ENDBRANCH  54  55
ENDBRANCH  53  54
ENDBRANCH  52  53
ENDBRANCH  42  52
ENDBRANCH  40  42
ENDBRANCH  37  38
ENDBRANCH  18  31
BRANCH  13  59
ATOM     59  O   UNK A   0      -6.223   4.622 136.581  0.00  0.00    +0.000 OA
ATOM     60  H   UNK A   0      -6.228   5.459 136.221  0.00  0.00    +0.000 HD
ENDBRANCH  13  59
BRANCH  22  61
ATOM     61  CB  ASN A   2      -7.960   4.087 131.993  0.00  0.00    +0.000 C 
BRANCH  61  62
ATOM     62  CG  ASN A   2      -8.805   3.119 132.618  0.00  0.00    +0.000 C 
ATOM     63  ND2 ASN A   2      -9.247   1.166 131.963  0.00  0.00    +0.000 N 
ATOM     64  OD1 ASN A   2      -9.140   3.215 133.925  0.00  0.00    +0.000 OA
ATOM     65 HD21 ASN A   2      -8.485   0.731 131.385  0.00  0.00    +0.000 HD
ATOM     66 HD22 ASN A   2      -8.952   0.439 132.606  0.00  0.00    +0.000 HD
ENDBRANCH  61  62
ENDBRANCH  22  61
BRANCH   9  67
ATOM     67  CB  TYR A   1      -4.297   6.463 136.189  0.00  0.00    +0.000 C 
BRANCH  67  68
ATOM     68  CG  TYR A   1      -2.738   7.154 135.048  0.00  0.00    +0.000 A 
ATOM     69  CD1 TYR A   1      -2.591   9.055 135.248  0.00  0.00    +0.000 A 
ATOM     70  CE1 TYR A   1      -1.569   9.692 134.934  0.00  0.00    +0.000 A 
ATOM     71  CZ  TYR A   1      -1.151   9.123 133.828  0.00  0.00    +0.000 A 
ATOM     72  CE2 TYR A   1      -1.773   7.968 133.284  0.00  0.00    +0.000 A 
ATOM     73  CD2 TYR A   1      -2.433   6.889 133.879  0.00  0.00    +0.000 A 
BRANCH  71  74
ATOM     74  OH  TYR A   1      -0.155   9.722 133.131  0.00  0.00    +0.000 OA
ATOM     75  HH  TYR A   1       0.147  10.580 133.482  0.00  0.00    +0.000 HD
ENDBRANCH  71  74
ENDBRANCH  67  68
ENDBRANCH   9  67
BRANCH   5  76
ATOM     76  CB  TYR A   1      -2.169   5.287 139.888  0.00  0.00    +0.000 C 
BRANCH  76  77
ATOM     77  CG  TYR A   1      -1.357   5.560 141.123  0.00  0.00    +0.000 A 
ATOM     78  CD1 TYR A   1      -1.328   4.692 142.181  0.00  0.00    +0.000 A 
ATOM     79  CE1 TYR A   1      -0.830   5.124 143.391  0.00  0.00    +0.000 A 
ATOM     80  CZ  TYR A   1      -0.080   6.261 143.499  0.00  0.00    +0.000 A 
ATOM     81  CE2 TYR A   1      -0.048   7.100 142.428  0.00  0.00    +0.000 A 
ATOM     82  CD2 TYR A   1      -0.654   6.745 141.242  0.00  0.00    +0.000 A 
ENDBRANCH  76  77
ENDBRANCH   5  76
BRANCH   1  83
ATOM     83  CB  TYR A   1     -10.027   5.744 132.302  0.00  0.00    +0.000 C 
BRANCH  83  85
ATOM     84  CD1 TYR A   1     -12.347   6.964 131.383  0.00  0.00    +0.000 C 
ATOM     85  CG  TYR A   1     -11.713   5.816 130.823  0.00  0.00    +0.000 C 
ATOM     86  CD2 TYR A   1     -12.791   6.453 129.127  0.00  0.00    +0.000 C 
ENDBRANCH  83  85
ENDBRANCH   1  83
TORSDOF 22
ENDMDL
