MODEL 1
REMARK VINA RESULT:      -9.1      0.000      0.000
REMARK  Name = CHEMBL2113215
REMARK  9 active torsions:
REMARK  status: ('A' for Active; 'I' for Inactive)
REMARK    1  A    between atoms: C_1  and  O_2
REMARK    2  A    between atoms: O_2  and  C_3
REMARK    3  A    between atoms: C_6  and  S_7
REMARK    4  A    between atoms: S_7  and  N_10
REMARK    5  A    between atoms: N_10  and  C_11
REMARK    6  A    between atoms: N_10  and  C_26
REMARK    7  A    between atoms: C_11  and  C_12
REMARK    8  A    between atoms: N_14  and  N_15
REMARK    9  A    between atoms: C_29  and  C_30
REMARK                            x       y       z     vdW  Elec       q    Type
REMARK                         _______ _______ _______ _____ _____    ______ ____
ROOT
ATOM      1  N   UNL     1      -7.816   0.695 129.654  0.00  0.00    +0.000 N 
ENDROOT
BRANCH   1   2
ATOM      2  C   UNL     1      -7.270  -0.688 129.909  0.00  0.00    +0.000 A 
ATOM      3  C   UNL     1      -5.875  -0.833 130.025  0.00  0.00    +0.000 A 
ATOM      4  C   UNL     1      -5.239  -2.089 130.079  0.00  0.00    +0.000 A 
ATOM      5  C   UNL     1      -5.987  -3.263 130.120  0.00  0.00    +0.000 A 
ATOM      6  C   UNL     1      -5.317  -4.585 130.374  0.00  0.00    +0.000 C 
ATOM      7  C   UNL     1      -7.377  -3.157 129.991  0.00  0.00    +0.000 A 
ATOM      8  C   UNL     1      -8.009  -1.887 129.868  0.00  0.00    +0.000 A 
ENDBRANCH   1   2
BRANCH   1   9
ATOM      9  S   UNL     1      -7.693   1.312 128.010  0.00  0.00    +0.000 S 
ATOM     10  O   UNL     1      -6.525   2.180 128.009  0.00  0.00    +0.000 OA
ATOM     11  O   UNL     1      -8.981   1.889 127.667  0.00  0.00    +0.000 OA
BRANCH   9  15
ATOM     12  C   UNL     1      -6.668  -2.357 125.350  0.00  0.00    +0.000 A 
ATOM     13  C   UNL     1      -8.005  -1.965 125.474  0.00  0.00    +0.000 A 
ATOM     14  C   UNL     1      -8.348  -0.784 126.204  0.00  0.00    +0.000 A 
ATOM     15  C   UNL     1      -7.341   0.077 126.688  0.00  0.00    +0.000 A 
ATOM     16  C   UNL     1      -6.061  -0.192 126.254  0.00  0.00    +0.000 A 
ATOM     17  C   UNL     1      -5.714  -1.481 125.822  0.00  0.00    +0.000 A 
BRANCH  12  19
ATOM     18  C   UNL     1      -5.071  -3.446 123.942  0.00  0.00    +0.000 C 
ATOM     19  O   UNL     1      -6.331  -3.475 124.629  0.00  0.00    +0.000 OA
ENDBRANCH  12  19
ENDBRANCH   9  15
ENDBRANCH   1   9
BRANCH   1  20
ATOM     20  C   UNL     1      -8.054   1.508 130.930  0.00  0.00    +0.000 C 
BRANCH  20  21
ATOM     21  C   UNL     1      -9.399   2.212 131.264  0.00  0.00    +0.000 C 
ATOM     22  O   UNL     1      -9.982   1.853 132.288  0.00  0.00    +0.000 OA
ATOM     23  N   UNL     1      -9.865   3.245 130.368  0.00  0.00    +0.000 N 
ATOM     24  H   UNL     1      -9.314   3.416 129.528  0.00  0.00    +0.000 HD
BRANCH  23  25
ATOM     25  N   UNL     1     -11.319   3.641 130.095  0.00  0.00    +0.000 NA
ATOM     26  C   UNL     1     -11.526   4.957 130.191  0.00  0.00    +0.000 C 
ATOM     27  C   UNL     1     -10.811   5.706 131.282  0.00  0.00    +0.000 C 
ATOM     28  O   UNL     1      -9.653   5.900 131.089  0.00  0.00    +0.000 OA
ATOM     29  N   UNL     1     -11.786   6.550 131.850  0.00  0.00    +0.000 N 
ATOM     30  C   UNL     1     -12.435   7.084 130.730  0.00  0.00    +0.000 A 
ATOM     31  C   UNL     1     -12.705   8.467 130.790  0.00  0.00    +0.000 A 
ATOM     32  C   UNL     1     -12.911   9.191 129.644  0.00  0.00    +0.000 A 
ATOM     33  C   UNL     1     -12.752   8.475 128.460  0.00  0.00    +0.000 A 
ATOM     34  C   UNL     1     -12.483   7.011 128.428  0.00  0.00    +0.000 A 
ATOM     35  C   UNL     1     -12.375   6.227 129.615  0.00  0.00    +0.000 A 
ATOM     36  H   UNL     1     -12.544   6.095 132.354  0.00  0.00    +0.000 HD
ENDBRANCH  23  25
ENDBRANCH  20  21
ENDBRANCH   1  20
TORSDOF 7
ENDMDL
MODEL 2
REMARK VINA RESULT:      -9.1      5.274      9.405
REMARK  Name = CHEMBL2113215
REMARK  9 active torsions:
REMARK  status: ('A' for Active; 'I' for Inactive)
REMARK    1  A    between atoms: C_1  and  O_2
REMARK    2  A    between atoms: O_2  and  C_3
REMARK    3  A    between atoms: C_6  and  S_7
REMARK    4  A    between atoms: S_7  and  N_10
REMARK    5  A    between atoms: N_10  and  C_11
REMARK    6  A    between atoms: N_10  and  C_26
REMARK    7  A    between atoms: C_11  and  C_12
REMARK    8  A    between atoms: N_14  and  N_15
REMARK    9  A    between atoms: C_29  and  C_30
REMARK                            x       y       z     vdW  Elec       q    Type
REMARK                         _______ _______ _______ _____ _____    ______ ____
ROOT
ATOM      1  N   UNL     1      -8.240   2.348 123.668  0.00  0.00    +0.000 N 
ENDROOT
BRANCH   1   2
ATOM      2  C   UNL     1      -7.761   3.056 122.424  0.00  0.00    +0.000 A 
ATOM      3  C   UNL     1      -8.726   3.436 121.472  0.00  0.00    +0.000 A 
ATOM      4  C   UNL     1      -8.387   3.934 120.198  0.00  0.00    +0.000 A 
ATOM      5  C   UNL     1      -7.058   4.170 119.858  0.00  0.00    +0.000 A 
ATOM      6  C   UNL     1      -6.714   4.882 118.578  0.00  0.00    +0.000 C 
ATOM      7  C   UNL     1      -6.072   3.790 120.776  0.00  0.00    +0.000 A 
ATOM      8  C   UNL     1      -6.418   3.222 122.034  0.00  0.00    +0.000 A 
ENDBRANCH   1   2
BRANCH   1   9
ATOM      9  S   UNL     1      -7.970   3.162 125.205  0.00  0.00    +0.000 S 
ATOM     10  O   UNL     1      -8.379   2.210 126.225  0.00  0.00    +0.000 OA
ATOM     11  O   UNL     1      -8.657   4.442 125.142  0.00  0.00    +0.000 OA
BRANCH   9  15
ATOM     12  C   UNL     1      -3.824   4.022 127.117  0.00  0.00    +0.000 A 
ATOM     13  C   UNL     1      -4.022   2.808 126.451  0.00  0.00    +0.000 A 
ATOM     14  C   UNL     1      -5.251   2.550 125.767  0.00  0.00    +0.000 A 
ATOM     15  C   UNL     1      -6.224   3.564 125.633  0.00  0.00    +0.000 A 
ATOM     16  C   UNL     1      -5.833   4.825 126.026  0.00  0.00    +0.000 A 
ATOM     17  C   UNL     1      -4.790   4.991 126.949  0.00  0.00    +0.000 A 
BRANCH  12  19
ATOM     18  C   UNL     1      -2.454   5.617 128.254  0.00  0.00    +0.000 C 
ATOM     19  O   UNL     1      -2.637   4.285 127.753  0.00  0.00    +0.000 OA
ENDBRANCH  12  19
ENDBRANCH   9  15
ENDBRANCH   1   9
BRANCH   1  20
ATOM     20  C   UNL     1      -8.548   0.864 123.451  0.00  0.00    +0.000 C 
BRANCH  20  21
ATOM     21  C   UNL     1      -7.635  -0.288 123.956  0.00  0.00    +0.000 C 
ATOM     22  O   UNL     1      -6.815  -0.747 123.160  0.00  0.00    +0.000 OA
ATOM     23  N   UNL     1      -7.796  -0.732 125.322  0.00  0.00    +0.000 N 
ATOM     24  H   UNL     1      -8.545  -0.303 125.865  0.00  0.00    +0.000 HD
BRANCH  23  25
ATOM     25  N   UNL     1      -7.525  -2.134 125.874  0.00  0.00    +0.000 NA
ATOM     26  C   UNL     1      -6.996  -2.117 127.100  0.00  0.00    +0.000 C 
ATOM     27  C   UNL     1      -5.977  -1.055 127.414  0.00  0.00    +0.000 C 
ATOM     28  O   UNL     1      -6.420   0.036 127.587  0.00  0.00    +0.000 OA
ATOM     29  N   UNL     1      -4.939  -1.726 128.090  0.00  0.00    +0.000 N 
ATOM     30  C   UNL     1      -5.627  -2.545 128.993  0.00  0.00    +0.000 A 
ATOM     31  C   UNL     1      -5.092  -2.587 130.299  0.00  0.00    +0.000 A 
ATOM     32  C   UNL     1      -5.873  -2.960 131.363  0.00  0.00    +0.000 A 
ATOM     33  C   UNL     1      -7.209  -3.203 131.056  0.00  0.00    +0.000 A 
ATOM     34  C   UNL     1      -7.741  -3.167 129.665  0.00  0.00    +0.000 A 
ATOM     35  C   UNL     1      -6.914  -2.887 128.538  0.00  0.00    +0.000 A 
ATOM     36  H   UNL     1      -4.400  -2.396 127.545  0.00  0.00    +0.000 HD
ENDBRANCH  23  25
ENDBRANCH  20  21
ENDBRANCH   1  20
TORSDOF 7
ENDMDL
MODEL 3
REMARK VINA RESULT:      -8.9      4.999      7.416
REMARK  Name = CHEMBL2113215
REMARK  9 active torsions:
REMARK  status: ('A' for Active; 'I' for Inactive)
REMARK    1  A    between atoms: C_1  and  O_2
REMARK    2  A    between atoms: O_2  and  C_3
REMARK    3  A    between atoms: C_6  and  S_7
REMARK    4  A    between atoms: S_7  and  N_10
REMARK    5  A    between atoms: N_10  and  C_11
REMARK    6  A    between atoms: N_10  and  C_26
REMARK    7  A    between atoms: C_11  and  C_12
REMARK    8  A    between atoms: N_14  and  N_15
REMARK    9  A    between atoms: C_29  and  C_30
REMARK                            x       y       z     vdW  Elec       q    Type
REMARK                         _______ _______ _______ _____ _____    ______ ____
ROOT
ATOM      1  N   UNL     1      -6.243   4.932 130.324  0.00  0.00    +0.000 N 
ENDROOT
BRANCH   1   2
ATOM      2  C   UNL     1      -5.153   4.557 129.351  0.00  0.00    +0.000 A 
ATOM      3  C   UNL     1      -4.759   3.206 129.294  0.00  0.00    +0.000 A 
ATOM      4  C   UNL     1      -3.635   2.768 128.565  0.00  0.00    +0.000 A 
ATOM      5  C   UNL     1      -2.911   3.657 127.775  0.00  0.00    +0.000 A 
ATOM      6  C   UNL     1      -1.838   3.152 126.849  0.00  0.00    +0.000 C 
ATOM      7  C   UNL     1      -3.265   5.010 127.820  0.00  0.00    +0.000 A 
ATOM      8  C   UNL     1      -4.360   5.457 128.613  0.00  0.00    +0.000 A 
ENDBRANCH   1   2
BRANCH   1   9
ATOM      9  S   UNL     1      -6.010   6.408 131.253  0.00  0.00    +0.000 S 
ATOM     10  O   UNL     1      -6.852   6.262 132.431  0.00  0.00    +0.000 OA
ATOM     11  O   UNL     1      -6.264   7.526 130.360  0.00  0.00    +0.000 OA
BRANCH   9  15
ATOM     12  C   UNL     1      -2.159   7.738 133.487  0.00  0.00    +0.000 A 
ATOM     13  C   UNL     1      -2.749   6.515 133.825  0.00  0.00    +0.000 A 
ATOM     14  C   UNL     1      -3.876   6.029 133.093  0.00  0.00    +0.000 A 
ATOM     15  C   UNL     1      -4.323   6.699 131.935  0.00  0.00    +0.000 A 
ATOM     16  C   UNL     1      -3.506   7.707 131.472  0.00  0.00    +0.000 A 
ATOM     17  C   UNL     1      -2.614   8.355 132.341  0.00  0.00    +0.000 A 
BRANCH  12  19
ATOM     18  C   UNL     1       0.042   8.666 133.379  0.00  0.00    +0.000 C 
ATOM     19  O   UNL     1      -1.061   8.198 134.169  0.00  0.00    +0.000 OA
ENDBRANCH  12  19
ENDBRANCH   9  15
ENDBRANCH   1   9
BRANCH   1  20
ATOM     20  C   UNL     1      -7.210   3.787 130.636  0.00  0.00    +0.000 C 
BRANCH  20  21
ATOM     21  C   UNL     1      -8.516   3.519 129.836  0.00  0.00    +0.000 C 
ATOM     22  O   UNL     1      -8.409   3.371 128.618  0.00  0.00    +0.000 OA
ATOM     23  N   UNL     1      -9.758   3.446 130.570  0.00  0.00    +0.000 N 
ATOM     24  H   UNL     1      -9.719   3.634 131.572  0.00  0.00    +0.000 HD
BRANCH  23  25
ATOM     25  N   UNL     1     -11.156   3.801 130.055  0.00  0.00    +0.000 NA
ATOM     26  C   UNL     1     -11.435   5.102 130.166  0.00  0.00    +0.000 C 
ATOM     27  C   UNL     1     -10.962   5.823 131.399  0.00  0.00    +0.000 C 
ATOM     28  O   UNL     1      -9.798   6.069 131.426  0.00  0.00    +0.000 OA
ATOM     29  N   UNL     1     -12.060   6.602 131.816  0.00  0.00    +0.000 N 
ATOM     30  C   UNL     1     -12.521   7.165 130.620  0.00  0.00    +0.000 A 
ATOM     31  C   UNL     1     -12.860   8.533 130.687  0.00  0.00    +0.000 A 
ATOM     32  C   UNL     1     -12.890   9.304 129.553  0.00  0.00    +0.000 A 
ATOM     33  C   UNL     1     -12.490   8.653 128.389  0.00  0.00    +0.000 A 
ATOM     34  C   UNL     1     -12.154   7.203 128.346  0.00  0.00    +0.000 A 
ATOM     35  C   UNL     1     -12.225   6.367 129.500  0.00  0.00    +0.000 A 
ATOM     36  H   UNL     1     -12.875   6.095 132.155  0.00  0.00    +0.000 HD
ENDBRANCH  23  25
ENDBRANCH  20  21
ENDBRANCH   1  20
TORSDOF 7
ENDMDL
MODEL 4
REMARK VINA RESULT:      -8.9      5.473      7.291
REMARK  Name = CHEMBL2113215
REMARK  9 active torsions:
REMARK  status: ('A' for Active; 'I' for Inactive)
REMARK    1  A    between atoms: C_1  and  O_2
REMARK    2  A    between atoms: O_2  and  C_3
REMARK    3  A    between atoms: C_6  and  S_7
REMARK    4  A    between atoms: S_7  and  N_10
REMARK    5  A    between atoms: N_10  and  C_11
REMARK    6  A    between atoms: N_10  and  C_26
REMARK    7  A    between atoms: C_11  and  C_12
REMARK    8  A    between atoms: N_14  and  N_15
REMARK    9  A    between atoms: C_29  and  C_30
REMARK                            x       y       z     vdW  Elec       q    Type
REMARK                         _______ _______ _______ _____ _____    ______ ____
ROOT
ATOM      1  N   UNL     1      -6.906   1.553 125.237  0.00  0.00    +0.000 N 
ENDROOT
BRANCH   1   2
ATOM      2  C   UNL     1      -7.548   0.217 124.953  0.00  0.00    +0.000 A 
ATOM      3  C   UNL     1      -7.385  -0.330 123.666  0.00  0.00    +0.000 A 
ATOM      4  C   UNL     1      -8.084  -1.472 123.228  0.00  0.00    +0.000 A 
ATOM      5  C   UNL     1      -8.909  -2.179 124.099  0.00  0.00    +0.000 A 
ATOM      6  C   UNL     1      -9.497  -3.501 123.688  0.00  0.00    +0.000 C 
ATOM      7  C   UNL     1      -9.106  -1.654 125.382  0.00  0.00    +0.000 A 
ATOM      8  C   UNL     1      -8.450  -0.461 125.797  0.00  0.00    +0.000 A 
ENDBRANCH   1   2
BRANCH   1   9
ATOM      9  S   UNL     1      -7.639   2.967 124.489  0.00  0.00    +0.000 S 
ATOM     10  O   UNL     1      -6.904   4.108 125.012  0.00  0.00    +0.000 OA
ATOM     11  O   UNL     1      -9.069   2.896 124.738  0.00  0.00    +0.000 OA
BRANCH   9  15
ATOM     12  C   UNL     1      -7.348   4.208 120.021  0.00  0.00    +0.000 A 
ATOM     13  C   UNL     1      -6.171   3.915 120.719  0.00  0.00    +0.000 A 
ATOM     14  C   UNL     1      -6.229   3.437 122.065  0.00  0.00    +0.000 A 
ATOM     15  C   UNL     1      -7.468   3.118 122.660  0.00  0.00    +0.000 A 
ATOM     16  C   UNL     1      -8.557   3.118 121.816  0.00  0.00    +0.000 A 
ATOM     17  C   UNL     1      -8.537   3.869 120.630  0.00  0.00    +0.000 A 
BRANCH  12  19
ATOM     18  C   UNL     1      -6.164   5.437 118.347  0.00  0.00    +0.000 C 
ATOM     19  O   UNL     1      -7.300   4.644 118.721  0.00  0.00    +0.000 OA
ENDBRANCH  12  19
ENDBRANCH   9  15
ENDBRANCH   1   9
BRANCH   1  20
ATOM     20  C   UNL     1      -5.496   1.445 125.824  0.00  0.00    +0.000 C 
BRANCH  20  21
ATOM     21  C   UNL     1      -5.195   1.452 127.349  0.00  0.00    +0.000 C 
ATOM     22  O   UNL     1      -6.089   1.061 128.101  0.00  0.00    +0.000 OA
ATOM     23  N   UNL     1      -3.890   1.898 127.781  0.00  0.00    +0.000 N 
ATOM     24  H   UNL     1      -3.254   2.242 127.062  0.00  0.00    +0.000 HD
BRANCH  23  25
ATOM     25  N   UNL     1      -3.538   2.565 129.113  0.00  0.00    +0.000 NA
ATOM     26  C   UNL     1      -3.591   3.899 129.056  0.00  0.00    +0.000 C 
ATOM     27  C   UNL     1      -3.092   4.572 127.805  0.00  0.00    +0.000 C 
ATOM     28  O   UNL     1      -3.822   4.501 126.867  0.00  0.00    +0.000 OA
ATOM     29  N   UNL     1      -2.301   5.648 128.255  0.00  0.00    +0.000 N 
ATOM     30  C   UNL     1      -3.078   6.208 129.276  0.00  0.00    +0.000 A 
ATOM     31  C   UNL     1      -3.145   7.617 129.281  0.00  0.00    +0.000 A 
ATOM     32  C   UNL     1      -4.180   8.267 129.903  0.00  0.00    +0.000 A 
ATOM     33  C   UNL     1      -5.160   7.435 130.437  0.00  0.00    +0.000 A 
ATOM     34  C   UNL     1      -5.054   5.950 130.431  0.00  0.00    +0.000 A 
ATOM     35  C   UNL     1      -3.929   5.266 129.883  0.00  0.00    +0.000 A 
ATOM     36  H   UNL     1      -1.437   5.407 128.736  0.00  0.00    +0.000 HD
ENDBRANCH  23  25
ENDBRANCH  20  21
ENDBRANCH   1  20
TORSDOF 7
ENDMDL
MODEL 5
REMARK VINA RESULT:      -8.8      3.650      4.784
REMARK  Name = CHEMBL2113215
REMARK  9 active torsions:
REMARK  status: ('A' for Active; 'I' for Inactive)
REMARK    1  A    between atoms: C_1  and  O_2
REMARK    2  A    between atoms: O_2  and  C_3
REMARK    3  A    between atoms: C_6  and  S_7
REMARK    4  A    between atoms: S_7  and  N_10
REMARK    5  A    between atoms: N_10  and  C_11
REMARK    6  A    between atoms: N_10  and  C_26
REMARK    7  A    between atoms: C_11  and  C_12
REMARK    8  A    between atoms: N_14  and  N_15
REMARK    9  A    between atoms: C_29  and  C_30
REMARK                            x       y       z     vdW  Elec       q    Type
REMARK                         _______ _______ _______ _____ _____    ______ ____
ROOT
ATOM      1  N   UNL     1      -6.812   2.937 128.836  0.00  0.00    +0.000 N 
ENDROOT
BRANCH   1   2
ATOM      2  C   UNL     1      -5.516   3.689 129.013  0.00  0.00    +0.000 A 
ATOM      3  C   UNL     1      -5.580   4.995 129.533  0.00  0.00    +0.000 A 
ATOM      4  C   UNL     1      -4.466   5.857 129.572  0.00  0.00    +0.000 A 
ATOM      5  C   UNL     1      -3.207   5.410 129.179  0.00  0.00    +0.000 A 
ATOM      6  C   UNL     1      -1.990   6.265 129.404  0.00  0.00    +0.000 C 
ATOM      7  C   UNL     1      -3.110   4.121 128.642  0.00  0.00    +0.000 A 
ATOM      8  C   UNL     1      -4.253   3.279 128.542  0.00  0.00    +0.000 A 
ENDBRANCH   1   2
BRANCH   1   9
ATOM      9  S   UNL     1      -7.715   3.239 127.356  0.00  0.00    +0.000 S 
ATOM     10  O   UNL     1      -8.297   4.563 127.521  0.00  0.00    +0.000 OA
ATOM     11  O   UNL     1      -8.611   2.113 127.158  0.00  0.00    +0.000 OA
BRANCH   9  15
ATOM     12  C   UNL     1      -5.958   3.973 123.117  0.00  0.00    +0.000 A 
ATOM     13  C   UNL     1      -5.519   4.772 124.179  0.00  0.00    +0.000 A 
ATOM     14  C   UNL     1      -5.964   4.512 125.512  0.00  0.00    +0.000 A 
ATOM     15  C   UNL     1      -6.735   3.366 125.800  0.00  0.00    +0.000 A 
ATOM     16  C   UNL     1      -6.859   2.453 124.776  0.00  0.00    +0.000 A 
ATOM     17  C   UNL     1      -6.698   2.855 123.441  0.00  0.00    +0.000 A 
BRANCH  12  19
ATOM     18  C   UNL     1      -5.640   3.118 120.908  0.00  0.00    +0.000 C 
ATOM     19  O   UNL     1      -5.515   4.202 121.839  0.00  0.00    +0.000 OA
ENDBRANCH  12  19
ENDBRANCH   9  15
ENDBRANCH   1   9
BRANCH   1  20
ATOM     20  C   UNL     1      -7.341   2.310 130.128  0.00  0.00    +0.000 C 
BRANCH  20  21
ATOM     21  C   UNL     1      -8.807   2.462 130.623  0.00  0.00    +0.000 C 
ATOM     22  O   UNL     1      -9.302   1.504 131.218  0.00  0.00    +0.000 OA
ATOM     23  N   UNL     1      -9.482   3.714 130.369  0.00  0.00    +0.000 N 
ATOM     24  H   UNL     1      -8.978   4.412 129.823  0.00  0.00    +0.000 HD
BRANCH  23  25
ATOM     25  N   UNL     1     -10.986   3.928 130.177  0.00  0.00    +0.000 NA
ATOM     26  C   UNL     1     -11.324   5.219 130.121  0.00  0.00    +0.000 C 
ATOM     27  C   UNL     1     -10.613   6.175 131.040  0.00  0.00    +0.000 C 
ATOM     28  O   UNL     1      -9.500   6.451 130.721  0.00  0.00    +0.000 OA
ATOM     29  N   UNL     1     -11.627   6.992 131.580  0.00  0.00    +0.000 N 
ATOM     30  C   UNL     1     -12.411   7.303 130.462  0.00  0.00    +0.000 A 
ATOM     31  C   UNL     1     -12.822   8.650 130.368  0.00  0.00    +0.000 A 
ATOM     32  C   UNL     1     -13.189   9.187 129.161  0.00  0.00    +0.000 A 
ATOM     33  C   UNL     1     -13.045   8.334 128.070  0.00  0.00    +0.000 A 
ATOM     34  C   UNL     1     -12.624   6.912 128.202  0.00  0.00    +0.000 A 
ATOM     35  C   UNL     1     -12.345   6.312 129.466  0.00  0.00    +0.000 A 
ATOM     36  H   UNL     1     -12.292   6.540 132.203  0.00  0.00    +0.000 HD
ENDBRANCH  23  25
ENDBRANCH  20  21
ENDBRANCH   1  20
TORSDOF 7
ENDMDL
MODEL 6
REMARK VINA RESULT:      -8.8      4.973      6.661
REMARK  Name = CHEMBL2113215
REMARK  9 active torsions:
REMARK  status: ('A' for Active; 'I' for Inactive)
REMARK    1  A    between atoms: C_1  and  O_2
REMARK    2  A    between atoms: O_2  and  C_3
REMARK    3  A    between atoms: C_6  and  S_7
REMARK    4  A    between atoms: S_7  and  N_10
REMARK    5  A    between atoms: N_10  and  C_11
REMARK    6  A    between atoms: N_10  and  C_26
REMARK    7  A    between atoms: C_11  and  C_12
REMARK    8  A    between atoms: N_14  and  N_15
REMARK    9  A    between atoms: C_29  and  C_30
REMARK                            x       y       z     vdW  Elec       q    Type
REMARK                         _______ _______ _______ _____ _____    ______ ____
ROOT
ATOM      1  N   UNL     1      -8.331  -0.552 125.206  0.00  0.00    +0.000 N 
ENDROOT
BRANCH   1   2
ATOM      2  C   UNL     1      -7.328  -1.561 124.701  0.00  0.00    +0.000 A 
ATOM      3  C   UNL     1      -7.686  -2.921 124.741  0.00  0.00    +0.000 A 
ATOM      4  C   UNL     1      -6.773  -3.960 124.472  0.00  0.00    +0.000 A 
ATOM      5  C   UNL     1      -5.477  -3.675 124.051  0.00  0.00    +0.000 A 
ATOM      6  C   UNL     1      -4.570  -4.778 123.578  0.00  0.00    +0.000 C 
ATOM      7  C   UNL     1      -5.082  -2.333 124.014  0.00  0.00    +0.000 A 
ATOM      8  C   UNL     1      -5.989  -1.290 124.354  0.00  0.00    +0.000 A 
ENDBRANCH   1   2
BRANCH   1   9
ATOM      9  S   UNL     1      -9.289   0.294 123.997  0.00  0.00    +0.000 S 
ATOM     10  O   UNL     1     -10.433   0.833 124.717  0.00  0.00    +0.000 OA
ATOM     11  O   UNL     1      -9.536  -0.638 122.910  0.00  0.00    +0.000 OA
BRANCH   9  15
ATOM     12  C   UNL     1      -7.101   3.447 121.377  0.00  0.00    +0.000 A 
ATOM     13  C   UNL     1      -8.500   3.428 121.385  0.00  0.00    +0.000 A 
ATOM     14  C   UNL     1      -9.207   2.538 122.252  0.00  0.00    +0.000 A 
ATOM     15  C   UNL     1      -8.513   1.769 123.211  0.00  0.00    +0.000 A 
ATOM     16  C   UNL     1      -7.179   2.074 123.373  0.00  0.00    +0.000 A 
ATOM     17  C   UNL     1      -6.461   2.694 122.339  0.00  0.00    +0.000 A 
BRANCH  12  19
ATOM     18  C   UNL     1      -6.951   4.527 119.250  0.00  0.00    +0.000 C 
ATOM     19  O   UNL     1      -6.418   4.316 120.565  0.00  0.00    +0.000 OA
ENDBRANCH  12  19
ENDBRANCH   9  15
ENDBRANCH   1   9
BRANCH   1  20
ATOM     20  C   UNL     1      -8.108  -0.140 126.663  0.00  0.00    +0.000 C 
BRANCH  20  21
ATOM     21  C   UNL     1      -8.010   1.338 127.135  0.00  0.00    +0.000 C 
ATOM     22  O   UNL     1      -9.034   1.854 127.586  0.00  0.00    +0.000 OA
ATOM     23  N   UNL     1      -6.731   2.000 127.029  0.00  0.00    +0.000 N 
ATOM     24  H   UNL     1      -5.971   1.478 126.593  0.00  0.00    +0.000 HD
BRANCH  23  25
ATOM     25  N   UNL     1      -6.481   3.498 126.827  0.00  0.00    +0.000 NA
ATOM     26  C   UNL     1      -5.695   4.025 127.770  0.00  0.00    +0.000 C 
ATOM     27  C   UNL     1      -5.876   3.551 129.187  0.00  0.00    +0.000 C 
ATOM     28  O   UNL     1      -5.434   2.471 129.420  0.00  0.00    +0.000 OA
ATOM     29  N   UNL     1      -5.864   4.721 129.972  0.00  0.00    +0.000 N 
ATOM     30  C   UNL     1      -4.790   5.446 129.444  0.00  0.00    +0.000 A 
ATOM     31  C   UNL     1      -3.942   6.051 130.396  0.00  0.00    +0.000 A 
ATOM     32  C   UNL     1      -2.654   6.393 130.071  0.00  0.00    +0.000 A 
ATOM     33  C   UNL     1      -2.255   6.027 128.788  0.00  0.00    +0.000 A 
ATOM     34  C   UNL     1      -3.178   5.404 127.799  0.00  0.00    +0.000 A 
ATOM     35  C   UNL     1      -4.549   5.144 128.091  0.00  0.00    +0.000 A 
ATOM     36  H   UNL     1      -6.648   5.359 129.850  0.00  0.00    +0.000 HD
ENDBRANCH  23  25
ENDBRANCH  20  21
ENDBRANCH   1  20
TORSDOF 7
ENDMDL
MODEL 7
REMARK VINA RESULT:      -8.7      5.355      7.582
REMARK  Name = CHEMBL2113215
REMARK  9 active torsions:
REMARK  status: ('A' for Active; 'I' for Inactive)
REMARK    1  A    between atoms: C_1  and  O_2
REMARK    2  A    between atoms: O_2  and  C_3
REMARK    3  A    between atoms: C_6  and  S_7
REMARK    4  A    between atoms: S_7  and  N_10
REMARK    5  A    between atoms: N_10  and  C_11
REMARK    6  A    between atoms: N_10  and  C_26
REMARK    7  A    between atoms: C_11  and  C_12
REMARK    8  A    between atoms: N_14  and  N_15
REMARK    9  A    between atoms: C_29  and  C_30
REMARK                            x       y       z     vdW  Elec       q    Type
REMARK                         _______ _______ _______ _____ _____    ______ ____
ROOT
ATOM      1  N   UNL     1      -8.294   2.236 123.805  0.00  0.00    +0.000 N 
ENDROOT
BRANCH   1   2
ATOM      2  C   UNL     1      -7.806   2.918 122.549  0.00  0.00    +0.000 A 
ATOM      3  C   UNL     1      -8.772   3.417 121.655  0.00  0.00    +0.000 A 
ATOM      4  C   UNL     1      -8.447   3.904 120.373  0.00  0.00    +0.000 A 
ATOM      5  C   UNL     1      -7.119   4.006 119.968  0.00  0.00    +0.000 A 
ATOM      6  C   UNL     1      -6.766   4.706 118.684  0.00  0.00    +0.000 C 
ATOM      7  C   UNL     1      -6.133   3.506 120.827  0.00  0.00    +0.000 A 
ATOM      8  C   UNL     1      -6.474   2.951 122.092  0.00  0.00    +0.000 A 
ENDBRANCH   1   2
BRANCH   1   9
ATOM      9  S   UNL     1      -9.234   0.763 123.599  0.00  0.00    +0.000 S 
ATOM     10  O   UNL     1      -9.946   0.930 122.341  0.00  0.00    +0.000 OA
ATOM     11  O   UNL     1     -10.014   0.575 124.811  0.00  0.00    +0.000 OA
BRANCH   9  15
ATOM     12  C   UNL     1      -6.594  -3.050 123.881  0.00  0.00    +0.000 A 
ATOM     13  C   UNL     1      -7.985  -3.186 123.933  0.00  0.00    +0.000 A 
ATOM     14  C   UNL     1      -8.831  -2.047 123.751  0.00  0.00    +0.000 A 
ATOM     15  C   UNL     1      -8.285  -0.801 123.378  0.00  0.00    +0.000 A 
ATOM     16  C   UNL     1      -6.953  -0.810 123.027  0.00  0.00    +0.000 A 
ATOM     17  C   UNL     1      -6.100  -1.820 123.499  0.00  0.00    +0.000 A 
BRANCH  12  19
ATOM     18  C   UNL     1      -4.397  -3.971 123.677  0.00  0.00    +0.000 C 
ATOM     19  O   UNL     1      -5.778  -4.143 124.029  0.00  0.00    +0.000 OA
ENDBRANCH  12  19
ENDBRANCH   9  15
ENDBRANCH   1   9
BRANCH   1  20
ATOM     20  C   UNL     1      -8.224   3.121 125.052  0.00  0.00    +0.000 C 
BRANCH  20  21
ATOM     21  C   UNL     1      -7.126   2.985 126.144  0.00  0.00    +0.000 C 
ATOM     22  O   UNL     1      -6.304   2.078 126.006  0.00  0.00    +0.000 OA
ATOM     23  N   UNL     1      -7.132   3.934 127.233  0.00  0.00    +0.000 N 
ATOM     24  H   UNL     1      -7.896   4.609 127.259  0.00  0.00    +0.000 HD
BRANCH  23  25
ATOM     25  N   UNL     1      -6.630   3.702 128.661  0.00  0.00    +0.000 NA
ATOM     26  C   UNL     1      -5.599   4.487 128.984  0.00  0.00    +0.000 C 
ATOM     27  C   UNL     1      -4.556   4.752 127.931  0.00  0.00    +0.000 C 
ATOM     28  O   UNL     1      -4.879   5.520 127.081  0.00  0.00    +0.000 OA
ATOM     29  N   UNL     1      -3.319   4.599 128.590  0.00  0.00    +0.000 N 
ATOM     30  C   UNL     1      -3.514   5.288 129.793  0.00  0.00    +0.000 A 
ATOM     31  C   UNL     1      -2.442   6.112 130.197  0.00  0.00    +0.000 A 
ATOM     32  C   UNL     1      -2.647   7.151 131.068  0.00  0.00    +0.000 A 
ATOM     33  C   UNL     1      -3.975   7.356 131.435  0.00  0.00    +0.000 A 
ATOM     34  C   UNL     1      -5.083   6.460 131.005  0.00  0.00    +0.000 A 
ATOM     35  C   UNL     1      -4.864   5.312 130.187  0.00  0.00    +0.000 A 
ATOM     36  H   UNL     1      -3.084   3.660 128.903  0.00  0.00    +0.000 HD
ENDBRANCH  23  25
ENDBRANCH  20  21
ENDBRANCH   1  20
TORSDOF 7
ENDMDL
MODEL 8
REMARK VINA RESULT:      -8.7      4.108      6.720
REMARK  Name = CHEMBL2113215
REMARK  9 active torsions:
REMARK  status: ('A' for Active; 'I' for Inactive)
REMARK    1  A    between atoms: C_1  and  O_2
REMARK    2  A    between atoms: O_2  and  C_3
REMARK    3  A    between atoms: C_6  and  S_7
REMARK    4  A    between atoms: S_7  and  N_10
REMARK    5  A    between atoms: N_10  and  C_11
REMARK    6  A    between atoms: N_10  and  C_26
REMARK    7  A    between atoms: C_11  and  C_12
REMARK    8  A    between atoms: N_14  and  N_15
REMARK    9  A    between atoms: C_29  and  C_30
REMARK                            x       y       z     vdW  Elec       q    Type
REMARK                         _______ _______ _______ _____ _____    ______ ____
ROOT
ATOM      1  N   UNL     1      -7.639   2.316 123.892  0.00  0.00    +0.000 N 
ENDROOT
BRANCH   1   2
ATOM      2  C   UNL     1      -7.612   2.832 122.474  0.00  0.00    +0.000 A 
ATOM      3  C   UNL     1      -6.356   3.036 121.873  0.00  0.00    +0.000 A 
ATOM      4  C   UNL     1      -6.199   3.682 120.630  0.00  0.00    +0.000 A 
ATOM      5  C   UNL     1      -7.310   4.066 119.884  0.00  0.00    +0.000 A 
ATOM      6  C   UNL     1      -7.145   4.576 118.479  0.00  0.00    +0.000 C 
ATOM      7  C   UNL     1      -8.575   3.893 120.459  0.00  0.00    +0.000 A 
ATOM      8  C   UNL     1      -8.722   3.301 121.746  0.00  0.00    +0.000 A 
ENDBRANCH   1   2
BRANCH   1   9
ATOM      9  S   UNL     1      -8.666   0.924 124.216  0.00  0.00    +0.000 S 
ATOM     10  O   UNL     1      -9.789   1.050 123.300  0.00  0.00    +0.000 OA
ATOM     11  O   UNL     1      -8.939   0.910 125.643  0.00  0.00    +0.000 OA
BRANCH   9  15
ATOM     12  C   UNL     1      -6.424  -3.141 124.010  0.00  0.00    +0.000 A 
ATOM     13  C   UNL     1      -7.770  -3.129 124.394  0.00  0.00    +0.000 A 
ATOM     14  C   UNL     1      -8.517  -1.911 124.375  0.00  0.00    +0.000 A 
ATOM     15  C   UNL     1      -7.956  -0.734 123.836  0.00  0.00    +0.000 A 
ATOM     16  C   UNL     1      -6.754  -0.887 123.180  0.00  0.00    +0.000 A 
ATOM     17  C   UNL     1      -5.918  -1.975 123.475  0.00  0.00    +0.000 A 
BRANCH  12  19
ATOM     18  C   UNL     1      -4.316  -4.215 123.671  0.00  0.00    +0.000 C 
ATOM     19  O   UNL     1      -5.709  -4.312 124.002  0.00  0.00    +0.000 OA
ENDBRANCH  12  19
ENDBRANCH   9  15
ENDBRANCH   1   9
BRANCH   1  20
ATOM     20  C   UNL     1      -7.068   3.300 124.916  0.00  0.00    +0.000 C 
BRANCH  20  21
ATOM     21  C   UNL     1      -7.929   4.025 125.988  0.00  0.00    +0.000 C 
ATOM     22  O   UNL     1      -8.941   4.609 125.596  0.00  0.00    +0.000 OA
ATOM     23  N   UNL     1      -7.499   3.954 127.365  0.00  0.00    +0.000 N 
ATOM     24  H   UNL     1      -6.616   3.480 127.554  0.00  0.00    +0.000 HD
BRANCH  23  25
ATOM     25  N   UNL     1      -7.746   4.993 128.463  0.00  0.00    +0.000 NA
ATOM     26  C   UNL     1      -8.041   4.441 129.643  0.00  0.00    +0.000 C 
ATOM     27  C   UNL     1      -8.921   3.221 129.652  0.00  0.00    +0.000 C 
ATOM     28  O   UNL     1      -8.390   2.211 129.311  0.00  0.00    +0.000 OA
ATOM     29  N   UNL     1      -9.856   3.446 130.682  0.00  0.00    +0.000 N 
ATOM     30  C   UNL     1      -9.063   3.936 131.727  0.00  0.00    +0.000 A 
ATOM     31  C   UNL     1      -9.352   3.408 133.004  0.00  0.00    +0.000 A 
ATOM     32  C   UNL     1      -8.413   3.441 134.003  0.00  0.00    +0.000 A 
ATOM     33  C   UNL     1      -7.172   3.949 133.628  0.00  0.00    +0.000 A 
ATOM     34  C   UNL     1      -6.903   4.515 132.278  0.00  0.00    +0.000 A 
ATOM     35  C   UNL     1      -7.904   4.586 131.264  0.00  0.00    +0.000 A 
ATOM     36  H   UNL     1     -10.524   4.199 130.534  0.00  0.00    +0.000 HD
ENDBRANCH  23  25
ENDBRANCH  20  21
ENDBRANCH   1  20
TORSDOF 7
ENDMDL
MODEL 9
REMARK VINA RESULT:      -8.7      3.213      4.657
REMARK  Name = CHEMBL2113215
REMARK  9 active torsions:
REMARK  status: ('A' for Active; 'I' for Inactive)
REMARK    1  A    between atoms: C_1  and  O_2
REMARK    2  A    between atoms: O_2  and  C_3
REMARK    3  A    between atoms: C_6  and  S_7
REMARK    4  A    between atoms: S_7  and  N_10
REMARK    5  A    between atoms: N_10  and  C_11
REMARK    6  A    between atoms: N_10  and  C_26
REMARK    7  A    between atoms: C_11  and  C_12
REMARK    8  A    between atoms: N_14  and  N_15
REMARK    9  A    between atoms: C_29  and  C_30
REMARK                            x       y       z     vdW  Elec       q    Type
REMARK                         _______ _______ _______ _____ _____    ______ ____
ROOT
ATOM      1  N   UNL     1      -6.605   3.715 129.237  0.00  0.00    +0.000 N 
ENDROOT
BRANCH   1   2
ATOM      2  C   UNL     1      -5.636   4.647 129.923  0.00  0.00    +0.000 A 
ATOM      3  C   UNL     1      -6.153   5.817 130.509  0.00  0.00    +0.000 A 
ATOM      4  C   UNL     1      -5.333   6.846 131.013  0.00  0.00    +0.000 A 
ATOM      5  C   UNL     1      -3.948   6.701 131.042  0.00  0.00    +0.000 A 
ATOM      6  C   UNL     1      -3.091   7.710 131.756  0.00  0.00    +0.000 C 
ATOM      7  C   UNL     1      -3.399   5.556 130.454  0.00  0.00    +0.000 A 
ATOM      8  C   UNL     1      -4.231   4.551 129.884  0.00  0.00    +0.000 A 
ENDBRANCH   1   2
BRANCH   1   9
ATOM      9  S   UNL     1      -7.216   4.216 127.664  0.00  0.00    +0.000 S 
ATOM     10  O   UNL     1      -6.109   4.905 127.019  0.00  0.00    +0.000 OA
ATOM     11  O   UNL     1      -8.446   4.955 127.894  0.00  0.00    +0.000 OA
BRANCH   9  15
ATOM     12  C   UNL     1      -9.150   0.896 125.051  0.00  0.00    +0.000 A 
ATOM     13  C   UNL     1      -8.910   2.152 124.481  0.00  0.00    +0.000 A 
ATOM     14  C   UNL     1      -8.229   3.165 125.224  0.00  0.00    +0.000 A 
ATOM     15  C   UNL     1      -7.664   2.874 126.484  0.00  0.00    +0.000 A 
ATOM     16  C   UNL     1      -7.651   1.544 126.843  0.00  0.00    +0.000 A 
ATOM     17  C   UNL     1      -8.569   0.646 126.276  0.00  0.00    +0.000 A 
BRANCH  12  19
ATOM     18  C   UNL     1      -8.940  -1.017 123.633  0.00  0.00    +0.000 C 
ATOM     19  O   UNL     1      -9.780  -0.089 124.334  0.00  0.00    +0.000 OA
ENDBRANCH  12  19
ENDBRANCH   9  15
ENDBRANCH   1   9
BRANCH   1  20
ATOM     20  C   UNL     1      -7.204   2.657 130.166  0.00  0.00    +0.000 C 
BRANCH  20  21
ATOM     21  C   UNL     1      -8.721   2.551 130.486  0.00  0.00    +0.000 C 
ATOM     22  O   UNL     1      -9.184   1.421 130.655  0.00  0.00    +0.000 OA
ATOM     23  N   UNL     1      -9.482   3.776 130.580  0.00  0.00    +0.000 N 
ATOM     24  H   UNL     1      -8.992   4.645 130.371  0.00  0.00    +0.000 HD
BRANCH  23  25
ATOM     25  N   UNL     1     -10.971   3.962 130.275  0.00  0.00    +0.000 NA
ATOM     26  C   UNL     1     -11.332   5.247 130.218  0.00  0.00    +0.000 C 
ATOM     27  C   UNL     1     -10.717   6.198 131.207  0.00  0.00    +0.000 C 
ATOM     28  O   UNL     1      -9.589   6.504 130.982  0.00  0.00    +0.000 OA
ATOM     29  N   UNL     1     -11.788   6.983 131.681  0.00  0.00    +0.000 N 
ATOM     30  C   UNL     1     -12.489   7.300 130.512  0.00  0.00    +0.000 A 
ATOM     31  C   UNL     1     -12.922   8.640 130.412  0.00  0.00    +0.000 A 
ATOM     32  C   UNL     1     -13.206   9.194 129.190  0.00  0.00    +0.000 A 
ATOM     33  C   UNL     1     -12.958   8.367 128.097  0.00  0.00    +0.000 A 
ATOM     34  C   UNL     1     -12.517   6.952 128.235  0.00  0.00    +0.000 A 
ATOM     35  C   UNL     1     -12.324   6.331 129.505  0.00  0.00    +0.000 A 
ATOM     36  H   UNL     1     -12.489   6.503 132.242  0.00  0.00    +0.000 HD
ENDBRANCH  23  25
ENDBRANCH  20  21
ENDBRANCH   1  20
TORSDOF 7
ENDMDL
