MODEL 1
REMARK VINA RESULT:      -9.4      0.000      0.000
REMARK  Name = CHEMBL1779407
REMARK  14 active torsions:
REMARK  status: ('A' for Active; 'I' for Inactive)
REMARK    1  A    between atoms: C_1  and  O_2
REMARK    2  A    between atoms: O_2  and  C_3
REMARK    3  A    between atoms: C_6  and  S_7
REMARK    4  A    between atoms: S_7  and  N_10
REMARK    5  A    between atoms: C_13  and  C_14
REMARK    6  A    between atoms: C_13  and  N_30
REMARK    7  A    between atoms: C_17  and  C_18
REMARK    8  A    between atoms: C_18  and  N_19
REMARK    9  A    between atoms: N_22  and  C_23
REMARK   10  A    between atoms: C_27  and  O_28
REMARK   11  A    between atoms: O_28  and  C_29
REMARK   12  A    between atoms: C_34  and  C_35
REMARK   13  A    between atoms: N_37  and  C_38
REMARK   14  A    between atoms: N_37  and  C_39
REMARK                            x       y       z     vdW  Elec       q    Type
REMARK                         _______ _______ _______ _____ _____    ______ ____
ROOT
ATOM      1  N   UNL     1      -5.428   0.033 131.635  0.00  0.00    +0.000 N 
ATOM      2  C   UNL     1      -5.602   0.643 130.416  0.00  0.00    +0.000 C 
ATOM      3  O   UNL     1      -4.862   0.335 129.486  0.00  0.00    +0.000 OA
ATOM      4  C   UNL     1      -6.389   1.959 130.791  0.00  0.00    +0.000 C 
ATOM      5  C   UNL     1      -5.334   2.800 131.494  0.00  0.00    +0.000 A 
ATOM      6  C   UNL     1      -4.938   4.348 131.131  0.00  0.00    +0.000 A 
ATOM      7  C   UNL     1      -3.553   4.723 131.316  0.00  0.00    +0.000 A 
ATOM      8 CL   UNL     1      -2.639   5.432 129.792  0.00  0.00    +0.000 Cl
ATOM      9  C   UNL     1      -2.772   3.797 132.151  0.00  0.00    +0.000 A 
ATOM     10  C   UNL     1      -3.298   2.282 132.565  0.00  0.00    +0.000 A 
ATOM     11  C   UNL     1      -4.506   1.612 132.018  0.00  0.00    +0.000 A 
ENDROOT
BRANCH   4  12
ATOM     12  C   UNL     1      -6.763   2.369 129.403  0.00  0.00    +0.000 A 
ATOM     13  C   UNL     1      -7.993   1.950 128.841  0.00  0.00    +0.000 A 
ATOM     14  C   UNL     1      -8.327   2.247 127.562  0.00  0.00    +0.000 A 
ATOM     15  C   UNL     1      -7.551   3.185 126.933  0.00  0.00    +0.000 A 
ATOM     16  C   UNL     1      -6.280   3.527 127.408  0.00  0.00    +0.000 A 
ATOM     17  C   UNL     1      -5.786   2.923 128.534  0.00  0.00    +0.000 A 
BRANCH  17  18
ATOM     18  O   UNL     1      -4.392   2.993 128.529  0.00  0.00    +0.000 OA
ATOM     19  C   UNL     1      -3.470   2.864 127.466  0.00  0.00    +0.000 C 
ENDBRANCH  17  18
BRANCH  15  20
ATOM     20  C   UNL     1      -8.068   3.687 125.644  0.00  0.00    +0.000 C 
BRANCH  20  21
ATOM     21  N   UNL     1      -7.185   3.256 124.591  0.00  0.00    +0.000 NA
ATOM     22  C   UNL     1      -6.569   4.426 123.982  0.00  0.00    +0.000 C 
ATOM     23  C   UNL     1      -5.548   3.971 122.933  0.00  0.00    +0.000 C 
ATOM     24  N   UNL     1      -6.093   3.067 121.891  0.00  0.00    +0.000 NA
ATOM     25  C   UNL     1      -6.964   3.810 120.983  0.00  0.00    +0.000 C 
ATOM     26  C   UNL     1      -6.856   1.966 122.522  0.00  0.00    +0.000 C 
ATOM     27  C   UNL     1      -7.877   2.452 123.560  0.00  0.00    +0.000 C 
ENDBRANCH  20  21
ENDBRANCH  15  20
ENDBRANCH   4  12
BRANCH   4  28
ATOM     28  N   UNL     1      -7.352   1.795 131.962  0.00  0.00    +0.000 NA
ATOM     29  C   UNL     1      -8.240   0.595 132.166  0.00  0.00    +0.000 C 
ATOM     30  C   UNL     1      -9.632   1.016 131.728  0.00  0.00    +0.000 C 
ATOM     31  C   UNL     1      -9.652   2.434 132.219  0.00  0.00    +0.000 C 
ATOM     32  C   UNL     1      -8.196   2.888 132.337  0.00  0.00    +0.000 C 
BRANCH  32  33
ATOM     33  C   UNL     1      -7.753   3.337 133.749  0.00  0.00    +0.000 C 
ATOM     34  O   UNL     1      -7.236   2.565 134.561  0.00  0.00    +0.000 OA
ATOM     35  N   UNL     1      -7.962   4.671 134.048  0.00  0.00    +0.000 N 
ATOM     36  C   UNL     1      -8.481   5.644 133.115  0.00  0.00    +0.000 C 
ATOM     37  C   UNL     1      -7.703   5.131 135.395  0.00  0.00    +0.000 C 
ENDBRANCH  32  33
ENDBRANCH   4  28
BRANCH   1  38
ATOM     38  S   UNL     1      -5.788  -1.916 130.740  0.00  0.00    +0.000 S 
ATOM     39  O   UNL     1      -6.630  -2.589 131.802  0.00  0.00    +0.000 OA
ATOM     40  O   UNL     1      -4.632  -2.505 130.263  0.00  0.00    +0.000 OA
BRANCH  38  44
ATOM     41  C   UNL     1      -8.993  -2.834 126.646  0.00  0.00    +0.000 A 
ATOM     42  C   UNL     1      -8.175  -1.714 126.787  0.00  0.00    +0.000 A 
ATOM     43  C   UNL     1      -7.237  -1.555 127.934  0.00  0.00    +0.000 A 
ATOM     44  C   UNL     1      -7.080  -2.504 129.044  0.00  0.00    +0.000 A 
ATOM     45  C   UNL     1      -7.988  -3.575 128.884  0.00  0.00    +0.000 A 
ATOM     46  C   UNL     1      -8.888  -3.756 127.689  0.00  0.00    +0.000 A 
BRANCH  41  48
ATOM     47  C   UNL     1      -9.025  -3.077 124.224  0.00  0.00    +0.000 C 
ATOM     48  O   UNL     1      -9.715  -2.970 125.479  0.00  0.00    +0.000 OA
ENDBRANCH  41  48
ENDBRANCH  38  44
ENDBRANCH   1  38
TORSDOF 9
ENDMDL
MODEL 2
REMARK VINA RESULT:      -9.4      3.463      7.179
REMARK  Name = CHEMBL1779407
REMARK  14 active torsions:
REMARK  status: ('A' for Active; 'I' for Inactive)
REMARK    1  A    between atoms: C_1  and  O_2
REMARK    2  A    between atoms: O_2  and  C_3
REMARK    3  A    between atoms: C_6  and  S_7
REMARK    4  A    between atoms: S_7  and  N_10
REMARK    5  A    between atoms: C_13  and  C_14
REMARK    6  A    between atoms: C_13  and  N_30
REMARK    7  A    between atoms: C_17  and  C_18
REMARK    8  A    between atoms: C_18  and  N_19
REMARK    9  A    between atoms: N_22  and  C_23
REMARK   10  A    between atoms: C_27  and  O_28
REMARK   11  A    between atoms: O_28  and  C_29
REMARK   12  A    between atoms: C_34  and  C_35
REMARK   13  A    between atoms: N_37  and  C_38
REMARK   14  A    between atoms: N_37  and  C_39
REMARK                            x       y       z     vdW  Elec       q    Type
REMARK                         _______ _______ _______ _____ _____    ______ ____
ROOT
ATOM      1  N   UNL     1      -7.260   3.405 126.465  0.00  0.00    +0.000 N 
ATOM      2  C   UNL     1      -7.136   2.265 127.222  0.00  0.00    +0.000 C 
ATOM      3  O   UNL     1      -8.059   1.455 127.233  0.00  0.00    +0.000 OA
ATOM      4  C   UNL     1      -6.018   2.655 128.265  0.00  0.00    +0.000 C 
ATOM      5  C   UNL     1      -6.731   3.644 129.176  0.00  0.00    +0.000 A 
ATOM      6  C   UNL     1      -6.808   3.565 130.811  0.00  0.00    +0.000 A 
ATOM      7  C   UNL     1      -8.024   4.049 131.426  0.00  0.00    +0.000 A 
ATOM      8 CL   UNL     1      -8.967   2.825 132.554  0.00  0.00    +0.000 Cl
ATOM      9  C   UNL     1      -8.862   4.886 130.555  0.00  0.00    +0.000 A 
ATOM     10  C   UNL     1      -8.646   4.995 128.916  0.00  0.00    +0.000 A 
ATOM     11  C   UNL     1      -7.723   4.153 128.113  0.00  0.00    +0.000 A 
ENDROOT
BRANCH   4  12
ATOM     12  C   UNL     1      -5.773   1.288 128.816  0.00  0.00    +0.000 A 
ATOM     13  C   UNL     1      -6.716   0.253 128.606  0.00  0.00    +0.000 A 
ATOM     14  C   UNL     1      -6.554  -0.976 129.151  0.00  0.00    +0.000 A 
ATOM     15  C   UNL     1      -5.322  -1.247 129.687  0.00  0.00    +0.000 A 
ATOM     16  C   UNL     1      -4.422  -0.228 130.012  0.00  0.00    +0.000 A 
ATOM     17  C   UNL     1      -4.760   1.081 129.791  0.00  0.00    +0.000 A 
BRANCH  17  18
ATOM     18  O   UNL     1      -4.008   1.908 130.627  0.00  0.00    +0.000 OA
ATOM     19  C   UNL     1      -3.793   1.851 132.023  0.00  0.00    +0.000 C 
ENDBRANCH  17  18
BRANCH  15  20
ATOM     20  C   UNL     1      -5.073  -2.658 130.046  0.00  0.00    +0.000 C 
BRANCH  20  21
ATOM     21  N   UNL     1      -5.004  -2.766 131.481  0.00  0.00    +0.000 NA
ATOM     22  C   UNL     1      -3.937  -3.691 131.834  0.00  0.00    +0.000 C 
ATOM     23  C   UNL     1      -3.787  -3.730 133.359  0.00  0.00    +0.000 C 
ATOM     24  N   UNL     1      -5.031  -4.063 134.095  0.00  0.00    +0.000 NA
ATOM     25  C   UNL     1      -5.363  -5.474 133.911  0.00  0.00    +0.000 C 
ATOM     26  C   UNL     1      -6.149  -3.223 133.610  0.00  0.00    +0.000 C 
ATOM     27  C   UNL     1      -6.281  -3.211 132.080  0.00  0.00    +0.000 C 
ENDBRANCH  20  21
ENDBRANCH  15  20
ENDBRANCH   4  12
BRANCH   4  28
ATOM     28  N   UNL     1      -4.953   3.597 127.713  0.00  0.00    +0.000 NA
ATOM     29  C   UNL     1      -4.148   3.327 126.468  0.00  0.00    +0.000 C 
ATOM     30  C   UNL     1      -2.781   2.863 126.939  0.00  0.00    +0.000 C 
ATOM     31  C   UNL     1      -2.596   3.744 128.140  0.00  0.00    +0.000 C 
ATOM     32  C   UNL     1      -3.990   4.170 128.602  0.00  0.00    +0.000 C 
BRANCH  32  33
ATOM     33  C   UNL     1      -4.245   5.695 128.624  0.00  0.00    +0.000 C 
ATOM     34  O   UNL     1      -4.535   6.335 127.609  0.00  0.00    +0.000 OA
ATOM     35  N   UNL     1      -4.140   6.304 129.860  0.00  0.00    +0.000 N 
ATOM     36  C   UNL     1      -3.892   5.601 131.097  0.00  0.00    +0.000 C 
ATOM     37  C   UNL     1      -4.227   7.746 129.935  0.00  0.00    +0.000 C 
ENDBRANCH  32  33
ENDBRANCH   4  28
BRANCH   1  38
ATOM     38  S   UNL     1      -7.501   2.213 124.662  0.00  0.00    +0.000 S 
ATOM     39  O   UNL     1      -6.426   2.791 123.768  0.00  0.00    +0.000 OA
ATOM     40  O   UNL     1      -8.817   2.140 124.243  0.00  0.00    +0.000 OA
BRANCH  38  44
ATOM     41  C   UNL     1      -5.863  -2.753 123.935  0.00  0.00    +0.000 A 
ATOM     42  C   UNL     1      -5.628  -1.992 125.078  0.00  0.00    +0.000 A 
ATOM     43  C   UNL     1      -6.185  -0.620 125.248  0.00  0.00    +0.000 A 
ATOM     44  C   UNL     1      -6.997   0.099 124.257  0.00  0.00    +0.000 A 
ATOM     45  C   UNL     1      -7.134  -0.693 123.094  0.00  0.00    +0.000 A 
ATOM     46  C   UNL     1      -6.618  -2.102 122.957  0.00  0.00    +0.000 A 
BRANCH  41  48
ATOM     47  C   UNL     1      -4.087  -4.373 123.553  0.00  0.00    +0.000 C 
ATOM     48  O   UNL     1      -5.439  -4.065 123.927  0.00  0.00    +0.000 OA
ENDBRANCH  41  48
ENDBRANCH  38  44
ENDBRANCH   1  38
TORSDOF 9
ENDMDL
MODEL 3
REMARK VINA RESULT:      -9.1      1.621      2.236
REMARK  Name = CHEMBL1779407
REMARK  14 active torsions:
REMARK  status: ('A' for Active; 'I' for Inactive)
REMARK    1  A    between atoms: C_1  and  O_2
REMARK    2  A    between atoms: O_2  and  C_3
REMARK    3  A    between atoms: C_6  and  S_7
REMARK    4  A    between atoms: S_7  and  N_10
REMARK    5  A    between atoms: C_13  and  C_14
REMARK    6  A    between atoms: C_13  and  N_30
REMARK    7  A    between atoms: C_17  and  C_18
REMARK    8  A    between atoms: C_18  and  N_19
REMARK    9  A    between atoms: N_22  and  C_23
REMARK   10  A    between atoms: C_27  and  O_28
REMARK   11  A    between atoms: O_28  and  C_29
REMARK   12  A    between atoms: C_34  and  C_35
REMARK   13  A    between atoms: N_37  and  C_38
REMARK   14  A    between atoms: N_37  and  C_39
REMARK                            x       y       z     vdW  Elec       q    Type
REMARK                         _______ _______ _______ _____ _____    ______ ____
ROOT
ATOM      1  N   UNL     1      -4.499   0.555 132.053  0.00  0.00    +0.000 N 
ATOM      2  C   UNL     1      -4.825   1.104 130.836  0.00  0.00    +0.000 C 
ATOM      3  O   UNL     1      -4.132   0.837 129.858  0.00  0.00    +0.000 OA
ATOM      4  C   UNL     1      -5.708   2.350 131.237  0.00  0.00    +0.000 C 
ATOM      5  C   UNL     1      -4.691   3.313 131.831  0.00  0.00    +0.000 A 
ATOM      6  C   UNL     1      -4.479   4.878 131.396  0.00  0.00    +0.000 A 
ATOM      7  C   UNL     1      -3.128   5.391 131.460  0.00  0.00    +0.000 A 
ATOM      8 CL   UNL     1      -2.409   6.133 129.850  0.00  0.00    +0.000 Cl
ATOM      9  C   UNL     1      -2.198   4.574 132.255  0.00  0.00    +0.000 A 
ATOM     10  C   UNL     1      -2.538   3.031 132.750  0.00  0.00    +0.000 A 
ATOM     11  C   UNL     1      -3.712   2.229 132.319  0.00  0.00    +0.000 A 
ENDROOT
BRANCH   4  12
ATOM     12  C   UNL     1      -6.227   2.674 129.874  0.00  0.00    +0.000 A 
ATOM     13  C   UNL     1      -5.575   2.168 128.722  0.00  0.00    +0.000 A 
ATOM     14  C   UNL     1      -5.980   2.502 127.474  0.00  0.00    +0.000 A 
ATOM     15  C   UNL     1      -7.196   3.128 127.375  0.00  0.00    +0.000 A 
ATOM     16  C   UNL     1      -7.801   3.737 128.479  0.00  0.00    +0.000 A 
ATOM     17  C   UNL     1      -7.180   3.713 129.699  0.00  0.00    +0.000 A 
BRANCH  17  18
ATOM     18  O   UNL     1      -7.647   4.768 130.484  0.00  0.00    +0.000 OA
ATOM     19  C   UNL     1      -8.795   5.581 130.341  0.00  0.00    +0.000 C 
ENDBRANCH  17  18
BRANCH  15  20
ATOM     20  C   UNL     1      -7.743   3.257 126.009  0.00  0.00    +0.000 C 
BRANCH  20  21
ATOM     21  N   UNL     1      -7.866   1.941 125.433  0.00  0.00    +0.000 NA
ATOM     22  C   UNL     1      -7.496   2.005 124.027  0.00  0.00    +0.000 C 
ATOM     23  C   UNL     1      -7.521   0.592 123.434  0.00  0.00    +0.000 C 
ATOM     24  N   UNL     1      -8.808  -0.127 123.603  0.00  0.00    +0.000 NA
ATOM     25  C   UNL     1      -9.827   0.452 122.731  0.00  0.00    +0.000 C 
ATOM     26  C   UNL     1      -9.254  -0.045 125.012  0.00  0.00    +0.000 C 
ATOM     27  C   UNL     1      -9.228   1.383 125.576  0.00  0.00    +0.000 C 
ENDBRANCH  20  21
ENDBRANCH  15  20
ENDBRANCH   4  12
BRANCH   4  28
ATOM     28  N   UNL     1      -6.558   2.134 132.485  0.00  0.00    +0.000 NA
ATOM     29  C   UNL     1      -7.799   1.282 132.527  0.00  0.00    +0.000 C 
ATOM     30  C   UNL     1      -8.976   2.242 132.500  0.00  0.00    +0.000 C 
ATOM     31  C   UNL     1      -8.435   3.354 133.351  0.00  0.00    +0.000 C 
ATOM     32  C   UNL     1      -6.910   3.256 133.299  0.00  0.00    +0.000 C 
BRANCH  32  33
ATOM     33  C   UNL     1      -6.211   3.060 134.666  0.00  0.00    +0.000 C 
ATOM     34  O   UNL     1      -5.964   1.945 135.132  0.00  0.00    +0.000 OA
ATOM     35  N   UNL     1      -5.866   4.220 135.335  0.00  0.00    +0.000 N 
ATOM     36  C   UNL     1      -6.047   5.551 134.807  0.00  0.00    +0.000 C 
ATOM     37  C   UNL     1      -5.338   4.116 136.678  0.00  0.00    +0.000 C 
ENDBRANCH  32  33
ENDBRANCH   4  28
BRANCH   1  38
ATOM     38  S   UNL     1      -4.732  -1.449 131.242  0.00  0.00    +0.000 S 
ATOM     39  O   UNL     1      -5.313  -2.191 132.425  0.00  0.00    +0.000 OA
ATOM     40  O   UNL     1      -3.592  -1.900 130.603  0.00  0.00    +0.000 OA
BRANCH  38  44
ATOM     41  C   UNL     1      -8.223  -2.879 127.549  0.00  0.00    +0.000 A 
ATOM     42  C   UNL     1      -7.246  -1.899 127.390  0.00  0.00    +0.000 A 
ATOM     43  C   UNL     1      -6.242  -1.598 128.449  0.00  0.00    +0.000 A 
ATOM     44  C   UNL     1      -6.173  -2.245 129.766  0.00  0.00    +0.000 A 
ATOM     45  C   UNL     1      -7.234  -3.170 129.895  0.00  0.00    +0.000 A 
ATOM     46  C   UNL     1      -8.205  -3.510 128.794  0.00  0.00    +0.000 A 
BRANCH  41  48
ATOM     47  C   UNL     1      -8.396  -3.652 125.247  0.00  0.00    +0.000 C 
ATOM     48  O   UNL     1      -9.011  -3.196 126.462  0.00  0.00    +0.000 OA
ENDBRANCH  41  48
ENDBRANCH  38  44
ENDBRANCH   1  38
TORSDOF 9
ENDMDL
MODEL 4
REMARK VINA RESULT:      -9.1      3.440      7.213
REMARK  Name = CHEMBL1779407
REMARK  14 active torsions:
REMARK  status: ('A' for Active; 'I' for Inactive)
REMARK    1  A    between atoms: C_1  and  O_2
REMARK    2  A    between atoms: O_2  and  C_3
REMARK    3  A    between atoms: C_6  and  S_7
REMARK    4  A    between atoms: S_7  and  N_10
REMARK    5  A    between atoms: C_13  and  C_14
REMARK    6  A    between atoms: C_13  and  N_30
REMARK    7  A    between atoms: C_17  and  C_18
REMARK    8  A    between atoms: C_18  and  N_19
REMARK    9  A    between atoms: N_22  and  C_23
REMARK   10  A    between atoms: C_27  and  O_28
REMARK   11  A    between atoms: O_28  and  C_29
REMARK   12  A    between atoms: C_34  and  C_35
REMARK   13  A    between atoms: N_37  and  C_38
REMARK   14  A    between atoms: N_37  and  C_39
REMARK                            x       y       z     vdW  Elec       q    Type
REMARK                         _______ _______ _______ _____ _____    ______ ____
ROOT
ATOM      1  N   UNL     1      -7.658   3.716 127.200  0.00  0.00    +0.000 N 
ATOM      2  C   UNL     1      -7.492   2.577 127.951  0.00  0.00    +0.000 C 
ATOM      3  O   UNL     1      -8.419   1.776 128.031  0.00  0.00    +0.000 OA
ATOM      4  C   UNL     1      -6.299   2.961 128.911  0.00  0.00    +0.000 C 
ATOM      5  C   UNL     1      -6.936   3.959 129.866  0.00  0.00    +0.000 A 
ATOM      6  C   UNL     1      -6.898   3.886 131.502  0.00  0.00    +0.000 A 
ATOM      7  C   UNL     1      -8.062   4.384 132.201  0.00  0.00    +0.000 A 
ATOM      8 CL   UNL     1      -8.935   3.173 133.397  0.00  0.00    +0.000 Cl
ATOM      9  C   UNL     1      -8.953   5.227 131.387  0.00  0.00    +0.000 A 
ATOM     10  C   UNL     1      -8.852   5.328 129.737  0.00  0.00    +0.000 A 
ATOM     11  C   UNL     1      -7.996   4.474 128.874  0.00  0.00    +0.000 A 
ENDROOT
BRANCH   4  12
ATOM     12  C   UNL     1      -6.028   1.593 129.449  0.00  0.00    +0.000 A 
ATOM     13  C   UNL     1      -5.037   0.774 128.855  0.00  0.00    +0.000 A 
ATOM     14  C   UNL     1      -4.818  -0.494 129.275  0.00  0.00    +0.000 A 
ATOM     15  C   UNL     1      -5.408  -0.853 130.460  0.00  0.00    +0.000 A 
ATOM     16  C   UNL     1      -6.469  -0.122 131.003  0.00  0.00    +0.000 A 
ATOM     17  C   UNL     1      -6.941   0.987 130.352  0.00  0.00    +0.000 A 
BRANCH  17  18
ATOM     18  O   UNL     1      -8.257   1.236 130.744  0.00  0.00    +0.000 OA
ATOM     19  C   UNL     1      -9.150   0.453 131.512  0.00  0.00    +0.000 C 
ENDBRANCH  17  18
BRANCH  15  20
ATOM     20  C   UNL     1      -4.963  -2.137 131.036  0.00  0.00    +0.000 C 
BRANCH  20  21
ATOM     21  N   UNL     1      -4.519  -1.910 132.388  0.00  0.00    +0.000 NA
ATOM     22  C   UNL     1      -3.085  -1.665 132.379  0.00  0.00    +0.000 C 
ATOM     23  C   UNL     1      -2.624  -1.316 133.799  0.00  0.00    +0.000 C 
ATOM     24  N   UNL     1      -2.974  -2.325 134.829  0.00  0.00    +0.000 NA
ATOM     25  C   UNL     1      -2.153  -3.522 134.662  0.00  0.00    +0.000 C 
ATOM     26  C   UNL     1      -4.406  -2.685 134.720  0.00  0.00    +0.000 C 
ATOM     27  C   UNL     1      -4.837  -3.039 133.289  0.00  0.00    +0.000 C 
ENDBRANCH  20  21
ENDBRANCH  15  20
ENDBRANCH   4  12
BRANCH   4  28
ATOM     28  N   UNL     1      -5.267   3.891 128.281  0.00  0.00    +0.000 NA
ATOM     29  C   UNL     1      -4.748   3.749 126.874  0.00  0.00    +0.000 C 
ATOM     30  C   UNL     1      -3.372   3.117 126.990  0.00  0.00    +0.000 C 
ATOM     31  C   UNL     1      -2.869   3.792 128.233  0.00  0.00    +0.000 C 
ATOM     32  C   UNL     1      -4.097   4.249 129.021  0.00  0.00    +0.000 C 
BRANCH  32  33
ATOM     33  C   UNL     1      -4.182   5.769 129.294  0.00  0.00    +0.000 C 
ATOM     34  O   UNL     1      -4.546   6.579 128.437  0.00  0.00    +0.000 OA
ATOM     35  N   UNL     1      -3.835   6.170 130.571  0.00  0.00    +0.000 N 
ATOM     36  C   UNL     1      -3.487   5.268 131.643  0.00  0.00    +0.000 C 
ATOM     37  C   UNL     1      -3.756   7.586 130.858  0.00  0.00    +0.000 C 
ENDBRANCH  32  33
ENDBRANCH   4  28
BRANCH   1  38
ATOM     38  S   UNL     1      -8.038   2.520 125.424  0.00  0.00    +0.000 S 
ATOM     39  O   UNL     1      -7.244   3.270 124.376  0.00  0.00    +0.000 OA
ATOM     40  O   UNL     1      -9.381   2.246 125.243  0.00  0.00    +0.000 OA
BRANCH  38  44
ATOM     41  C   UNL     1      -5.910  -2.203 124.405  0.00  0.00    +0.000 A 
ATOM     42  C   UNL     1      -5.993  -1.617 125.667  0.00  0.00    +0.000 A 
ATOM     43  C   UNL     1      -6.676  -0.313 125.894  0.00  0.00    +0.000 A 
ATOM     44  C   UNL     1      -7.298   0.517 124.854  0.00  0.00    +0.000 A 
ATOM     45  C   UNL     1      -7.112  -0.091 123.590  0.00  0.00    +0.000 A 
ATOM     46  C   UNL     1      -6.474  -1.440 123.381  0.00  0.00    +0.000 A 
BRANCH  41  48
ATOM     47  C   UNL     1      -4.248  -3.725 123.486  0.00  0.00    +0.000 C 
ATOM     48  O   UNL     1      -5.397  -3.479 124.312  0.00  0.00    +0.000 OA
ENDBRANCH  41  48
ENDBRANCH  38  44
ENDBRANCH   1  38
TORSDOF 9
ENDMDL
MODEL 5
REMARK VINA RESULT:      -8.9      2.957      6.351
REMARK  Name = CHEMBL1779407
REMARK  14 active torsions:
REMARK  status: ('A' for Active; 'I' for Inactive)
REMARK    1  A    between atoms: C_1  and  O_2
REMARK    2  A    between atoms: O_2  and  C_3
REMARK    3  A    between atoms: C_6  and  S_7
REMARK    4  A    between atoms: S_7  and  N_10
REMARK    5  A    between atoms: C_13  and  C_14
REMARK    6  A    between atoms: C_13  and  N_30
REMARK    7  A    between atoms: C_17  and  C_18
REMARK    8  A    between atoms: C_18  and  N_19
REMARK    9  A    between atoms: N_22  and  C_23
REMARK   10  A    between atoms: C_27  and  O_28
REMARK   11  A    between atoms: O_28  and  C_29
REMARK   12  A    between atoms: C_34  and  C_35
REMARK   13  A    between atoms: N_37  and  C_38
REMARK   14  A    between atoms: N_37  and  C_39
REMARK                            x       y       z     vdW  Elec       q    Type
REMARK                         _______ _______ _______ _____ _____    ______ ____
ROOT
ATOM      1  N   UNL     1      -8.242   0.212 131.484  0.00  0.00    +0.000 N 
ATOM      2  C   UNL     1      -7.728   0.952 130.446  0.00  0.00    +0.000 C 
ATOM      3  O   UNL     1      -8.501   1.483 129.654  0.00  0.00    +0.000 OA
ATOM      4  C   UNL     1      -6.249   0.413 130.328  0.00  0.00    +0.000 C 
ATOM      5  C   UNL     1      -6.439  -0.981 129.747  0.00  0.00    +0.000 A 
ATOM      6  C   UNL     1      -5.690  -1.581 128.420  0.00  0.00    +0.000 A 
ATOM      7  C   UNL     1      -6.450  -2.508 127.610  0.00  0.00    +0.000 A 
ATOM      8 CL   UNL     1      -6.674  -2.059 125.764  0.00  0.00    +0.000 Cl
ATOM      9  C   UNL     1      -7.632  -3.077 128.275  0.00  0.00    +0.000 A 
ATOM     10  C   UNL     1      -8.263  -2.474 129.682  0.00  0.00    +0.000 A 
ATOM     11  C   UNL     1      -7.841  -1.211 130.341  0.00  0.00    +0.000 A 
ENDROOT
BRANCH   4  12
ATOM     12  C   UNL     1      -5.727   1.463 129.402  0.00  0.00    +0.000 A 
ATOM     13  C   UNL     1      -5.060   1.097 128.208  0.00  0.00    +0.000 A 
ATOM     14  C   UNL     1      -4.516   2.025 127.386  0.00  0.00    +0.000 A 
ATOM     15  C   UNL     1      -4.867   3.329 127.622  0.00  0.00    +0.000 A 
ATOM     16  C   UNL     1      -5.419   3.732 128.843  0.00  0.00    +0.000 A 
ATOM     17  C   UNL     1      -5.626   2.812 129.837  0.00  0.00    +0.000 A 
BRANCH  17  18
ATOM     18  O   UNL     1      -5.668   3.459 131.072  0.00  0.00    +0.000 OA
ATOM     19  C   UNL     1      -4.891   4.527 131.577  0.00  0.00    +0.000 C 
ENDBRANCH  17  18
BRANCH  15  20
ATOM     20  C   UNL     1      -4.480   4.298 126.578  0.00  0.00    +0.000 C 
BRANCH  20  21
ATOM     21  N   UNL     1      -5.587   4.468 125.670  0.00  0.00    +0.000 NA
ATOM     22  C   UNL     1      -6.827   4.470 126.433  0.00  0.00    +0.000 C 
ATOM     23  C   UNL     1      -7.999   4.757 125.489  0.00  0.00    +0.000 C 
ATOM     24  N   UNL     1      -8.101   3.836 124.331  0.00  0.00    +0.000 NA
ATOM     25  C   UNL     1      -8.545   2.516 124.774  0.00  0.00    +0.000 C 
ATOM     26  C   UNL     1      -6.787   3.718 123.659  0.00  0.00    +0.000 C 
ATOM     27  C   UNL     1      -5.634   3.420 124.627  0.00  0.00    +0.000 C 
ENDBRANCH  20  21
ENDBRANCH  15  20
ENDBRANCH   4  12
BRANCH   4  28
ATOM     28  N   UNL     1      -5.626   0.010 131.660  0.00  0.00    +0.000 NA
ATOM     29  C   UNL     1      -5.166   0.988 132.710  0.00  0.00    +0.000 C 
ATOM     30  C   UNL     1      -3.653   1.058 132.593  0.00  0.00    +0.000 C 
ATOM     31  C   UNL     1      -3.340  -0.377 132.285  0.00  0.00    +0.000 C 
ATOM     32  C   UNL     1      -4.606  -0.992 131.685  0.00  0.00    +0.000 C 
BRANCH  32  33
ATOM     33  C   UNL     1      -5.181  -2.205 132.454  0.00  0.00    +0.000 C 
ATOM     34  O   UNL     1      -5.939  -2.081 133.420  0.00  0.00    +0.000 OA
ATOM     35  N   UNL     1      -4.803  -3.449 131.983  0.00  0.00    +0.000 N 
ATOM     36  C   UNL     1      -3.993  -3.665 130.808  0.00  0.00    +0.000 C 
ATOM     37  C   UNL     1      -5.189  -4.624 132.735  0.00  0.00    +0.000 C 
ENDBRANCH  32  33
ENDBRANCH   4  28
BRANCH   1  38
ATOM     38  S   UNL     1      -9.318   1.950 132.226  0.00  0.00    +0.000 S 
ATOM     39  O   UNL     1      -8.572   2.245 133.509  0.00  0.00    +0.000 OA
ATOM     40  O   UNL     1     -10.689   1.771 132.219  0.00  0.00    +0.000 OA
BRANCH  38  44
ATOM     41  C   UNL     1      -9.408   6.760 130.050  0.00  0.00    +0.000 A 
ATOM     42  C   UNL     1     -10.146   5.665 129.603  0.00  0.00    +0.000 A 
ATOM     43  C   UNL     1     -10.130   4.354 130.312  0.00  0.00    +0.000 A 
ATOM     44  C   UNL     1      -9.340   4.041 131.509  0.00  0.00    +0.000 A 
ATOM     45  C   UNL     1      -8.557   5.164 131.866  0.00  0.00    +0.000 A 
ATOM     46  C   UNL     1      -8.627   6.503 131.178  0.00  0.00    +0.000 A 
BRANCH  41  48
ATOM     47  C   UNL     1     -10.720   8.149 128.541  0.00  0.00    +0.000 C 
ATOM     48  O   UNL     1      -9.600   7.973 129.424  0.00  0.00    +0.000 OA
ENDBRANCH  41  48
ENDBRANCH  38  44
ENDBRANCH   1  38
TORSDOF 9
ENDMDL
MODEL 6
REMARK VINA RESULT:      -8.9      3.756      5.476
REMARK  Name = CHEMBL1779407
REMARK  14 active torsions:
REMARK  status: ('A' for Active; 'I' for Inactive)
REMARK    1  A    between atoms: C_1  and  O_2
REMARK    2  A    between atoms: O_2  and  C_3
REMARK    3  A    between atoms: C_6  and  S_7
REMARK    4  A    between atoms: S_7  and  N_10
REMARK    5  A    between atoms: C_13  and  C_14
REMARK    6  A    between atoms: C_13  and  N_30
REMARK    7  A    between atoms: C_17  and  C_18
REMARK    8  A    between atoms: C_18  and  N_19
REMARK    9  A    between atoms: N_22  and  C_23
REMARK   10  A    between atoms: C_27  and  O_28
REMARK   11  A    between atoms: O_28  and  C_29
REMARK   12  A    between atoms: C_34  and  C_35
REMARK   13  A    between atoms: N_37  and  C_38
REMARK   14  A    between atoms: N_37  and  C_39
REMARK                            x       y       z     vdW  Elec       q    Type
REMARK                         _______ _______ _______ _____ _____    ______ ____
ROOT
ATOM      1  N   UNL     1      -3.869   2.665 133.619  0.00  0.00    +0.000 N 
ATOM      2  C   UNL     1      -4.731   3.059 132.623  0.00  0.00    +0.000 C 
ATOM      3  O   UNL     1      -4.672   2.501 131.531  0.00  0.00    +0.000 OA
ATOM      4  C   UNL     1      -5.167   4.503 133.086  0.00  0.00    +0.000 C 
ATOM      5  C   UNL     1      -3.910   5.330 132.854  0.00  0.00    +0.000 A 
ATOM      6  C   UNL     1      -3.821   6.728 132.005  0.00  0.00    +0.000 A 
ATOM      7  C   UNL     1      -2.595   6.966 131.276  0.00  0.00    +0.000 A 
ATOM      8 CL   UNL     1      -2.755   7.274 129.395  0.00  0.00    +0.000 Cl
ATOM      9  C   UNL     1      -1.462   6.124 131.688  0.00  0.00    +0.000 A 
ATOM     10  C   UNL     1      -1.627   4.781 132.644  0.00  0.00    +0.000 A 
ATOM     11  C   UNL     1      -2.918   4.169 133.050  0.00  0.00    +0.000 A 
ENDROOT
BRANCH   4  12
ATOM     12  C   UNL     1      -6.287   4.694 132.116  0.00  0.00    +0.000 A 
ATOM     13  C   UNL     1      -6.507   5.958 131.517  0.00  0.00    +0.000 A 
ATOM     14  C   UNL     1      -7.556   6.177 130.688  0.00  0.00    +0.000 A 
ATOM     15  C   UNL     1      -8.232   5.067 130.254  0.00  0.00    +0.000 A 
ATOM     16  C   UNL     1      -8.119   3.835 130.907  0.00  0.00    +0.000 A 
ATOM     17  C   UNL     1      -7.312   3.716 132.007  0.00  0.00    +0.000 A 
BRANCH  17  18
ATOM     18  O   UNL     1      -7.731   2.632 132.780  0.00  0.00    +0.000 OA
ATOM     19  C   UNL     1      -8.790   1.716 132.580  0.00  0.00    +0.000 C 
ENDBRANCH  17  18
BRANCH  15  20
ATOM     20  C   UNL     1      -9.201   5.291 129.162  0.00  0.00    +0.000 C 
BRANCH  20  21
ATOM     21  N   UNL     1     -10.132   6.312 129.571  0.00  0.00    +0.000 NA
ATOM     22  C   UNL     1     -11.323   5.675 130.114  0.00  0.00    +0.000 C 
ATOM     23  C   UNL     1     -12.272   6.753 130.649  0.00  0.00    +0.000 C 
ATOM     24  N   UNL     1     -12.643   7.796 129.662  0.00  0.00    +0.000 NA
ATOM     25  C   UNL     1     -13.548   7.242 128.658  0.00  0.00    +0.000 C 
ATOM     26  C   UNL     1     -11.428   8.323 128.999  0.00  0.00    +0.000 C 
ATOM     27  C   UNL     1     -10.501   7.221 128.465  0.00  0.00    +0.000 C 
ENDBRANCH  20  21
ENDBRANCH  15  20
ENDBRANCH   4  12
BRANCH   4  28
ATOM     28  N   UNL     1      -5.260   4.670 134.599  0.00  0.00    +0.000 NA
ATOM     29  C   UNL     1      -6.394   4.143 135.440  0.00  0.00    +0.000 C 
ATOM     30  C   UNL     1      -7.279   5.337 135.756  0.00  0.00    +0.000 C 
ATOM     31  C   UNL     1      -6.238   6.402 135.943  0.00  0.00    +0.000 C 
ATOM     32  C   UNL     1      -4.990   5.946 135.185  0.00  0.00    +0.000 C 
BRANCH  32  33
ATOM     33  C   UNL     1      -3.713   5.790 136.043  0.00  0.00    +0.000 C 
ATOM     34  O   UNL     1      -3.454   4.757 136.666  0.00  0.00    +0.000 OA
ATOM     35  N   UNL     1      -2.865   6.882 136.062  0.00  0.00    +0.000 N 
ATOM     36  C   UNL     1      -3.065   8.084 135.288  0.00  0.00    +0.000 C 
ATOM     37  C   UNL     1      -1.724   6.861 136.952  0.00  0.00    +0.000 C 
ENDBRANCH  32  33
ENDBRANCH   4  28
BRANCH   1  38
ATOM     38  S   UNL     1      -4.661   0.641 133.539  0.00  0.00    +0.000 S 
ATOM     39  O   UNL     1      -5.720   0.685 134.618  0.00  0.00    +0.000 OA
ATOM     40  O   UNL     1      -3.667  -0.321 133.551  0.00  0.00    +0.000 OA
BRANCH  38  44
ATOM     41  C   UNL     1      -7.566  -2.152 130.128  0.00  0.00    +0.000 A 
ATOM     42  C   UNL     1      -7.356  -2.488 131.464  0.00  0.00    +0.000 A 
ATOM     43  C   UNL     1      -6.586  -1.613 132.392  0.00  0.00    +0.000 A 
ATOM     44  C   UNL     1      -5.940  -0.345 132.029  0.00  0.00    +0.000 A 
ATOM     45  C   UNL     1      -6.122  -0.099 130.649  0.00  0.00    +0.000 A 
ATOM     46  C   UNL     1      -6.955  -0.960 129.734  0.00  0.00    +0.000 A 
BRANCH  41  48
ATOM     47  C   UNL     1      -8.253  -3.016 127.958  0.00  0.00    +0.000 C 
ATOM     48  O   UNL     1      -8.417  -2.941 129.383  0.00  0.00    +0.000 OA
ENDBRANCH  41  48
ENDBRANCH  38  44
ENDBRANCH   1  38
TORSDOF 9
ENDMDL
MODEL 7
REMARK VINA RESULT:      -8.8      3.393      6.855
REMARK  Name = CHEMBL1779407
REMARK  14 active torsions:
REMARK  status: ('A' for Active; 'I' for Inactive)
REMARK    1  A    between atoms: C_1  and  O_2
REMARK    2  A    between atoms: O_2  and  C_3
REMARK    3  A    between atoms: C_6  and  S_7
REMARK    4  A    between atoms: S_7  and  N_10
REMARK    5  A    between atoms: C_13  and  C_14
REMARK    6  A    between atoms: C_13  and  N_30
REMARK    7  A    between atoms: C_17  and  C_18
REMARK    8  A    between atoms: C_18  and  N_19
REMARK    9  A    between atoms: N_22  and  C_23
REMARK   10  A    between atoms: C_27  and  O_28
REMARK   11  A    between atoms: O_28  and  C_29
REMARK   12  A    between atoms: C_34  and  C_35
REMARK   13  A    between atoms: N_37  and  C_38
REMARK   14  A    between atoms: N_37  and  C_39
REMARK                            x       y       z     vdW  Elec       q    Type
REMARK                         _______ _______ _______ _____ _____    ______ ____
ROOT
ATOM      1  N   UNL     1      -7.371   4.625 130.843  0.00  0.00    +0.000 N 
ATOM      2  C   UNL     1      -6.791   3.429 131.195  0.00  0.00    +0.000 C 
ATOM      3  O   UNL     1      -7.504   2.527 131.626  0.00  0.00    +0.000 OA
ATOM      4  C   UNL     1      -5.279   3.823 131.419  0.00  0.00    +0.000 C 
ATOM      5  C   UNL     1      -5.323   4.623 132.712  0.00  0.00    +0.000 A 
ATOM      6  C   UNL     1      -4.399   4.358 134.040  0.00  0.00    +0.000 A 
ATOM      7  C   UNL     1      -5.011   4.637 135.320  0.00  0.00    +0.000 A 
ATOM      8 CL   UNL     1      -5.059   3.202 136.585  0.00  0.00    +0.000 Cl
ATOM      9  C   UNL     1      -6.223   5.468 135.254  0.00  0.00    +0.000 A 
ATOM     10  C   UNL     1      -7.037   5.778 133.846  0.00  0.00    +0.000 A 
ATOM     11  C   UNL     1      -6.765   5.134 132.536  0.00  0.00    +0.000 A 
ENDROOT
BRANCH   4  12
ATOM     12  C   UNL     1      -4.723   2.439 131.501  0.00  0.00    +0.000 A 
ATOM     13  C   UNL     1      -3.936   2.049 132.612  0.00  0.00    +0.000 A 
ATOM     14  C   UNL     1      -3.361   0.824 132.679  0.00  0.00    +0.000 A 
ATOM     15  C   UNL     1      -3.789  -0.100 131.763  0.00  0.00    +0.000 A 
ATOM     16  C   UNL     1      -4.465   0.277 130.598  0.00  0.00    +0.000 A 
ATOM     17  C   UNL     1      -4.721   1.600 130.354  0.00  0.00    +0.000 A 
BRANCH  17  18
ATOM     18  O   UNL     1      -4.902   1.798 128.984  0.00  0.00    +0.000 OA
ATOM     19  C   UNL     1      -4.766   0.899 127.901  0.00  0.00    +0.000 C 
ENDBRANCH  17  18
BRANCH  15  20
ATOM     20  C   UNL     1      -3.352  -1.491 132.001  0.00  0.00    +0.000 C 
BRANCH  20  21
ATOM     21  N   UNL     1      -4.518  -2.335 132.077  0.00  0.00    +0.000 NA
ATOM     22  C   UNL     1      -5.101  -2.216 133.405  0.00  0.00    +0.000 C 
ATOM     23  C   UNL     1      -6.400  -3.028 133.460  0.00  0.00    +0.000 C 
ATOM     24  N   UNL     1      -6.255  -4.454 133.080  0.00  0.00    +0.000 NA
ATOM     25  C   UNL     1      -5.543  -5.185 134.126  0.00  0.00    +0.000 C 
ATOM     26  C   UNL     1      -5.515  -4.567 131.803  0.00  0.00    +0.000 C 
ATOM     27  C   UNL     1      -4.214  -3.752 131.781  0.00  0.00    +0.000 C 
ENDBRANCH  20  21
ENDBRANCH  15  20
ENDBRANCH   4  12
BRANCH   4  28
ATOM     28  N   UNL     1      -4.782   4.930 130.495  0.00  0.00    +0.000 NA
ATOM     29  C   UNL     1      -4.979   4.939 129.002  0.00  0.00    +0.000 C 
ATOM     30  C   UNL     1      -3.651   4.521 128.395  0.00  0.00    +0.000 C 
ATOM     31  C   UNL     1      -2.699   5.204 129.333  0.00  0.00    +0.000 C 
ATOM     32  C   UNL     1      -3.449   5.427 130.647  0.00  0.00    +0.000 C 
BRANCH  32  33
ATOM     33  C   UNL     1      -3.565   6.901 131.102  0.00  0.00    +0.000 C 
ATOM     34  O   UNL     1      -4.449   7.657 130.688  0.00  0.00    +0.000 OA
ATOM     35  N   UNL     1      -2.619   7.323 132.017  0.00  0.00    +0.000 N 
ATOM     36  C   UNL     1      -1.615   6.469 132.605  0.00  0.00    +0.000 C 
ATOM     37  C   UNL     1      -2.579   8.724 132.380  0.00  0.00    +0.000 C 
ENDBRANCH  32  33
ENDBRANCH   4  28
BRANCH   1  38
ATOM     38  S   UNL     1      -8.622   3.618 129.377  0.00  0.00    +0.000 S 
ATOM     39  O   UNL     1      -8.276   4.372 128.112  0.00  0.00    +0.000 OA
ATOM     40  O   UNL     1      -9.932   3.485 129.796  0.00  0.00    +0.000 OA
BRANCH  38  44
ATOM     41  C   UNL     1      -7.838  -1.276 127.558  0.00  0.00    +0.000 A 
ATOM     42  C   UNL     1      -7.759  -0.897 128.896  0.00  0.00    +0.000 A 
ATOM     43  C   UNL     1      -8.067   0.488 129.350  0.00  0.00    +0.000 A 
ATOM     44  C   UNL     1      -8.447   1.606 128.476  0.00  0.00    +0.000 A 
ATOM     45  C   UNL     1      -8.433   1.179 127.128  0.00  0.00    +0.000 A 
ATOM     46  C   UNL     1      -8.179  -0.239 126.687  0.00  0.00    +0.000 A 
BRANCH  41  48
ATOM     47  C   UNL     1      -8.820  -3.373 126.806  0.00  0.00    +0.000 C 
ATOM     48  O   UNL     1      -7.686  -2.611 127.248  0.00  0.00    +0.000 OA
ENDBRANCH  41  48
ENDBRANCH  38  44
ENDBRANCH   1  38
TORSDOF 9
ENDMDL
MODEL 8
REMARK VINA RESULT:      -8.6      3.383      6.919
REMARK  Name = CHEMBL1779407
REMARK  14 active torsions:
REMARK  status: ('A' for Active; 'I' for Inactive)
REMARK    1  A    between atoms: C_1  and  O_2
REMARK    2  A    between atoms: O_2  and  C_3
REMARK    3  A    between atoms: C_6  and  S_7
REMARK    4  A    between atoms: S_7  and  N_10
REMARK    5  A    between atoms: C_13  and  C_14
REMARK    6  A    between atoms: C_13  and  N_30
REMARK    7  A    between atoms: C_17  and  C_18
REMARK    8  A    between atoms: C_18  and  N_19
REMARK    9  A    between atoms: N_22  and  C_23
REMARK   10  A    between atoms: C_27  and  O_28
REMARK   11  A    between atoms: O_28  and  C_29
REMARK   12  A    between atoms: C_34  and  C_35
REMARK   13  A    between atoms: N_37  and  C_38
REMARK   14  A    between atoms: N_37  and  C_39
REMARK                            x       y       z     vdW  Elec       q    Type
REMARK                         _______ _______ _______ _____ _____    ______ ____
ROOT
ATOM      1  N   UNL     1      -7.356   4.589 127.837  0.00  0.00    +0.000 N 
ATOM      2  C   UNL     1      -7.054   3.500 128.619  0.00  0.00    +0.000 C 
ATOM      3  O   UNL     1      -7.875   2.591 128.715  0.00  0.00    +0.000 OA
ATOM      4  C   UNL     1      -5.927   4.054 129.574  0.00  0.00    +0.000 C 
ATOM      5  C   UNL     1      -6.692   4.989 130.499  0.00  0.00    +0.000 A 
ATOM      6  C   UNL     1      -6.659   4.964 132.137  0.00  0.00    +0.000 A 
ATOM      7  C   UNL     1      -7.882   5.330 132.816  0.00  0.00    +0.000 A 
ATOM      8 CL   UNL     1      -8.606   4.050 134.040  0.00  0.00    +0.000 Cl
ATOM      9  C   UNL     1      -8.864   6.033 131.976  0.00  0.00    +0.000 A 
ATOM     10  C   UNL     1      -8.763   6.103 130.324  0.00  0.00    +0.000 A 
ATOM     11  C   UNL     1      -7.800   5.341 129.489  0.00  0.00    +0.000 A 
ENDROOT
BRANCH   4  12
ATOM     12  C   UNL     1      -5.492   2.746 130.149  0.00  0.00    +0.000 A 
ATOM     13  C   UNL     1      -4.438   2.015 129.548  0.00  0.00    +0.000 A 
ATOM     14  C   UNL     1      -4.069   0.795 130.005  0.00  0.00    +0.000 A 
ATOM     15  C   UNL     1      -4.576   0.422 131.222  0.00  0.00    +0.000 A 
ATOM     16  C   UNL     1      -5.692   1.055 131.779  0.00  0.00    +0.000 A 
ATOM     17  C   UNL     1      -6.303   2.080 131.107  0.00  0.00    +0.000 A 
BRANCH  17  18
ATOM     18  O   UNL     1      -7.625   2.202 131.539  0.00  0.00    +0.000 OA
ATOM     19  C   UNL     1      -8.576   1.212 131.873  0.00  0.00    +0.000 C 
ENDBRANCH  17  18
BRANCH  15  20
ATOM     20  C   UNL     1      -3.976  -0.784 131.826  0.00  0.00    +0.000 C 
BRANCH  20  21
ATOM     21  N   UNL     1      -4.685  -1.944 131.349  0.00  0.00    +0.000 NA
ATOM     22  C   UNL     1      -5.661  -2.347 132.351  0.00  0.00    +0.000 C 
ATOM     23  C   UNL     1      -6.492  -3.514 131.806  0.00  0.00    +0.000 C 
ATOM     24  N   UNL     1      -5.697  -4.681 131.353  0.00  0.00    +0.000 NA
ATOM     25  C   UNL     1      -5.133  -5.384 132.503  0.00  0.00    +0.000 C 
ATOM     26  C   UNL     1      -4.605  -4.236 130.459  0.00  0.00    +0.000 C 
ATOM     27  C   UNL     1      -3.783  -3.074 131.035  0.00  0.00    +0.000 C 
ENDBRANCH  20  21
ENDBRANCH  15  20
ENDBRANCH   4  12
BRANCH   4  28
ATOM     28  N   UNL     1      -5.015   5.089 128.925  0.00  0.00    +0.000 NA
ATOM     29  C   UNL     1      -4.695   5.131 127.453  0.00  0.00    +0.000 C 
ATOM     30  C   UNL     1      -3.302   4.543 127.303  0.00  0.00    +0.000 C 
ATOM     31  C   UNL     1      -2.645   5.089 128.538  0.00  0.00    +0.000 C 
ATOM     32  C   UNL     1      -3.761   5.405 129.536  0.00  0.00    +0.000 C 
BRANCH  32  33
ATOM     33  C   UNL     1      -3.840   6.879 129.998  0.00  0.00    +0.000 C 
ATOM     34  O   UNL     1      -4.475   7.736 129.377  0.00  0.00    +0.000 OA
ATOM     35  N   UNL     1      -3.162   7.180 131.164  0.00  0.00    +0.000 N 
ATOM     36  C   UNL     1      -2.475   6.209 131.982  0.00  0.00    +0.000 C 
ATOM     37  C   UNL     1      -3.074   8.563 131.580  0.00  0.00    +0.000 C 
ENDBRANCH  32  33
ENDBRANCH   4  28
BRANCH   1  38
ATOM     38  S   UNL     1      -7.568   3.310 126.091  0.00  0.00    +0.000 S 
ATOM     39  O   UNL     1      -6.840   4.113 125.035  0.00  0.00    +0.000 OA
ATOM     40  O   UNL     1      -8.869   2.884 125.897  0.00  0.00    +0.000 OA
BRANCH  38  44
ATOM     41  C   UNL     1      -5.706  -1.436 124.718  0.00  0.00    +0.000 A 
ATOM     42  C   UNL     1      -6.637  -0.699 123.988  0.00  0.00    +0.000 A 
ATOM     43  C   UNL     1      -7.063   0.669 124.396  0.00  0.00    +0.000 A 
ATOM     44  C   UNL     1      -6.603   1.384 125.593  0.00  0.00    +0.000 A 
ATOM     45  C   UNL     1      -5.723   0.557 126.329  0.00  0.00    +0.000 A 
ATOM     46  C   UNL     1      -5.253  -0.801 125.876  0.00  0.00    +0.000 A 
BRANCH  41  48
ATOM     47  C   UNL     1      -6.171  -3.722 124.022  0.00  0.00    +0.000 C 
ATOM     48  O   UNL     1      -5.257  -2.626 124.187  0.00  0.00    +0.000 OA
ENDBRANCH  41  48
ENDBRANCH  38  44
ENDBRANCH   1  38
TORSDOF 9
ENDMDL
MODEL 9
REMARK VINA RESULT:      -8.6      3.490      7.809
REMARK  Name = CHEMBL1779407
REMARK  14 active torsions:
REMARK  status: ('A' for Active; 'I' for Inactive)
REMARK    1  A    between atoms: C_1  and  O_2
REMARK    2  A    between atoms: O_2  and  C_3
REMARK    3  A    between atoms: C_6  and  S_7
REMARK    4  A    between atoms: S_7  and  N_10
REMARK    5  A    between atoms: C_13  and  C_14
REMARK    6  A    between atoms: C_13  and  N_30
REMARK    7  A    between atoms: C_17  and  C_18
REMARK    8  A    between atoms: C_18  and  N_19
REMARK    9  A    between atoms: N_22  and  C_23
REMARK   10  A    between atoms: C_27  and  O_28
REMARK   11  A    between atoms: O_28  and  C_29
REMARK   12  A    between atoms: C_34  and  C_35
REMARK   13  A    between atoms: N_37  and  C_38
REMARK   14  A    between atoms: N_37  and  C_39
REMARK                            x       y       z     vdW  Elec       q    Type
REMARK                         _______ _______ _______ _____ _____    ______ ____
ROOT
ATOM      1  N   UNL     1      -7.570   3.747 127.026  0.00  0.00    +0.000 N 
ATOM      2  C   UNL     1      -7.612   2.540 127.683  0.00  0.00    +0.000 C 
ATOM      3  O   UNL     1      -8.632   1.860 127.614  0.00  0.00    +0.000 OA
ATOM      4  C   UNL     1      -6.475   2.690 128.768  0.00  0.00    +0.000 C 
ATOM      5  C   UNL     1      -7.073   3.684 129.753  0.00  0.00    +0.000 A 
ATOM      6  C   UNL     1      -7.194   3.477 131.374  0.00  0.00    +0.000 A 
ATOM      7  C   UNL     1      -8.350   4.063 132.017  0.00  0.00    +0.000 A 
ATOM      8 CL   UNL     1      -9.469   2.883 133.025  0.00  0.00    +0.000 Cl
ATOM      9  C   UNL     1      -9.053   5.075 131.212  0.00  0.00    +0.000 A 
ATOM     10  C   UNL     1      -8.789   5.292 129.592  0.00  0.00    +0.000 A 
ATOM     11  C   UNL     1      -7.966   4.406 128.729  0.00  0.00    +0.000 A 
ENDROOT
BRANCH   4  12
ATOM     12  C   UNL     1      -6.422   1.261 129.200  0.00  0.00    +0.000 A 
ATOM     13  C   UNL     1      -7.539   0.413 129.004  0.00  0.00    +0.000 A 
ATOM     14  C   UNL     1      -7.545  -0.867 129.449  0.00  0.00    +0.000 A 
ATOM     15  C   UNL     1      -6.339  -1.377 129.853  0.00  0.00    +0.000 A 
ATOM     16  C   UNL     1      -5.258  -0.546 130.166  0.00  0.00    +0.000 A 
ATOM     17  C   UNL     1      -5.387   0.814 130.065  0.00  0.00    +0.000 A 
BRANCH  17  18
ATOM     18  O   UNL     1      -4.445   1.436 130.885  0.00  0.00    +0.000 OA
ATOM     19  C   UNL     1      -4.051   1.151 132.212  0.00  0.00    +0.000 C 
ENDBRANCH  17  18
BRANCH  15  20
ATOM     20  C   UNL     1      -6.304  -2.833 130.091  0.00  0.00    +0.000 C 
BRANCH  20  21
ATOM     21  N   UNL     1      -5.622  -3.083 131.336  0.00  0.00    +0.000 NA
ATOM     22  C   UNL     1      -5.129  -4.453 131.338  0.00  0.00    +0.000 C 
ATOM     23  C   UNL     1      -4.311  -4.693 132.612  0.00  0.00    +0.000 C 
ATOM     24  N   UNL     1      -5.032  -4.397 133.874  0.00  0.00    +0.000 NA
ATOM     25  C   UNL     1      -6.053  -5.411 134.122  0.00  0.00    +0.000 C 
ATOM     26  C   UNL     1      -5.666  -3.062 133.796  0.00  0.00    +0.000 C 
ATOM     27  C   UNL     1      -6.486  -2.853 132.515  0.00  0.00    +0.000 C 
ENDBRANCH  20  21
ENDBRANCH  15  20
ENDBRANCH   4  12
BRANCH   4  28
ATOM     28  N   UNL     1      -5.285   3.527 128.310  0.00  0.00    +0.000 NA
ATOM     29  C   UNL     1      -4.368   3.146 127.177  0.00  0.00    +0.000 C 
ATOM     30  C   UNL     1      -3.102   2.604 127.818  0.00  0.00    +0.000 C 
ATOM     31  C   UNL     1      -2.986   3.520 129.002  0.00  0.00    +0.000 C 
ATOM     32  C   UNL     1      -4.387   4.066 129.284  0.00  0.00    +0.000 C 
BRANCH  32  33
ATOM     33  C   UNL     1      -4.524   5.605 129.223  0.00  0.00    +0.000 C 
ATOM     34  O   UNL     1      -4.671   6.218 128.162  0.00  0.00    +0.000 OA
ATOM     35  N   UNL     1      -4.483   6.260 130.440  0.00  0.00    +0.000 N 
ATOM     36  C   UNL     1      -4.402   5.598 131.720  0.00  0.00    +0.000 C 
ATOM     37  C   UNL     1      -4.464   7.707 130.451  0.00  0.00    +0.000 C 
ENDBRANCH  32  33
ENDBRANCH   4  28
BRANCH   1  38
ATOM     38  S   UNL     1      -7.925   2.754 125.124  0.00  0.00    +0.000 S 
ATOM     39  O   UNL     1      -9.384   3.075 124.881  0.00  0.00    +0.000 OA
ATOM     40  O   UNL     1      -7.468   1.449 125.110  0.00  0.00    +0.000 OA
BRANCH  38  44
ATOM     41  C   UNL     1      -6.047   4.358 120.458  0.00  0.00    +0.000 A 
ATOM     42  C   UNL     1      -5.323   4.339 121.649  0.00  0.00    +0.000 A 
ATOM     43  C   UNL     1      -5.893   3.801 122.917  0.00  0.00    +0.000 A 
ATOM     44  C   UNL     1      -7.253   3.272 123.083  0.00  0.00    +0.000 A 
ATOM     45  C   UNL     1      -7.959   3.391 121.863  0.00  0.00    +0.000 A 
ATOM     46  C   UNL     1      -7.353   3.879 120.573  0.00  0.00    +0.000 A 
BRANCH  41  48
ATOM     47  C   UNL     1      -5.891   5.829 118.524  0.00  0.00    +0.000 C 
ATOM     48  O   UNL     1      -5.391   4.730 119.304  0.00  0.00    +0.000 OA
ENDBRANCH  41  48
ENDBRANCH  38  44
ENDBRANCH   1  38
TORSDOF 9
ENDMDL
