MODEL 1
REMARK VINA RESULT:      -8.9      0.000      0.000
REMARK  Name = CHEMBL278619
REMARK  14 active torsions:
REMARK  status: ('A' for Active; 'I' for Inactive)
REMARK    1  A    between atoms: C_1  and  C_2
REMARK    2  A    between atoms: C_2  and  C_4
REMARK    3  A    between atoms: C_4  and  C_5
REMARK    4  A    between atoms: C_5  and  C_6
REMARK    5  A    between atoms: C_6  and  C_7
REMARK    6  A    between atoms: N_9  and  C_10
REMARK    7  A    between atoms: C_12  and  C_13
REMARK    8  A    between atoms: C_13  and  N_14
REMARK    9  A    between atoms: N_25  and  C_26
REMARK   10  A    between atoms: C_26  and  C_27
REMARK   11  A    between atoms: N_29  and  C_30
REMARK   12  A    between atoms: C_30  and  C_31
REMARK   13  A    between atoms: C_30  and  C_40
REMARK   14  A    between atoms: C_31  and  C_32
REMARK                            x       y       z     vdW  Elec       q    Type
REMARK                         _______ _______ _______ _____ _____    ______ ____
ROOT
ATOM      1  C   UNL     1      -9.835   5.417 131.076  0.00  0.00    +0.000 C 
ATOM      2  N   UNL     1      -8.631   6.165 130.696  0.00  0.00    +0.000 NA
ATOM      3  C   UNL     1      -7.583   6.065 131.443  0.00  0.00    +0.000 C 
ATOM      4  C   UNL     1      -7.532   5.192 132.571  0.00  0.00    +0.000 A 
ATOM      5  C   UNL     1      -6.820   5.658 133.680  0.00  0.00    +0.000 A 
ATOM      6  C   UNL     1      -6.614   4.755 134.633  0.00  0.00    +0.000 A 
ATOM      7  C   UNL     1      -7.350   3.599 134.477  0.00  0.00    +0.000 A 
ATOM      8  C   UNL     1      -8.300   3.225 133.593  0.00  0.00    +0.000 A 
ATOM      9  C   UNL     1      -8.147   3.920 132.473  0.00  0.00    +0.000 A 
ATOM     10  N   UNL     1      -8.594   3.290 131.301  0.00  0.00    +0.000 N 
ATOM     11  C   UNL     1      -9.620   3.934 130.629  0.00  0.00    +0.000 C 
ATOM     12  O   UNL     1     -10.310   3.369 129.782  0.00  0.00    +0.000 OA
ENDROOT
BRANCH   1  15
ATOM     13  C   UNL     1     -11.990   6.520 130.998  0.00  0.00    +0.000 C 
ATOM     14  O   UNL     1     -12.109   6.499 132.220  0.00  0.00    +0.000 OA
ATOM     15  N   UNL     1     -10.928   5.961 130.343  0.00  0.00    +0.000 N 
ATOM     16  H   UNL     1     -10.800   6.019 129.344  0.00  0.00    +0.000 HD
BRANCH  13  17
ATOM     17  C   UNL     1     -13.014   7.138 130.068  0.00  0.00    +0.000 C 
BRANCH  17  18
ATOM     18  C   UNL     1     -12.613   8.572 129.740  0.00  0.00    +0.000 C 
BRANCH  18  19
ATOM     19  C   UNL     1     -12.423   8.822 128.249  0.00  0.00    +0.000 C 
BRANCH  19  21
ATOM     20  C   UNL     1     -11.019   7.648 126.429  0.00  0.00    +0.000 C 
ATOM     21  C   UNL     1     -11.072   8.295 127.785  0.00  0.00    +0.000 C 
ATOM     22  O   UNL     1     -10.053   8.383 128.469  0.00  0.00    +0.000 OA
ENDBRANCH  19  21
ENDBRANCH  18  19
ENDBRANCH  17  18
ENDBRANCH  13  17
ENDBRANCH   1  15
BRANCH   3  23
ATOM     23  C   UNL     1      -6.301   6.841 131.227  0.00  0.00    +0.000 C 
BRANCH  23  24
ATOM     24  N   UNL     1      -5.294   5.963 130.736  0.00  0.00    +0.000 N 
ATOM     25  C   UNL     1      -4.016   5.920 131.208  0.00  0.00    +0.000 A 
ATOM     26  C   UNL     1      -3.382   5.083 130.333  0.00  0.00    +0.000 A 
ATOM     27  N   UNL     1      -4.254   4.602 129.382  0.00  0.00    +0.000 NA
ATOM     28  C   UNL     1      -5.405   5.171 129.646  0.00  0.00    +0.000 A 
ENDBRANCH  23  24
ENDBRANCH   3  23
BRANCH  10  29
ATOM     29  C   UNL     1      -8.338   1.835 131.091  0.00  0.00    +0.000 C 
BRANCH  29  30
ATOM     30  C   UNL     1      -7.433   1.398 129.896  0.00  0.00    +0.000 C 
ATOM     31  O   UNL     1      -6.235   1.066 130.027  0.00  0.00    +0.000 OA
ATOM     32  N   UNL     1      -7.996   1.386 128.644  0.00  0.00    +0.000 N 
ATOM     33  H   UNL     1      -8.711   2.080 128.470  0.00  0.00    +0.000 HD
BRANCH  32  34
ATOM     34  C   UNL     1      -7.246   0.809 127.506  0.00  0.00    +0.000 C 
BRANCH  34  35
ATOM     35  C   UNL     1      -7.478   1.544 126.157  0.00  0.00    +0.000 C 
ATOM     36  N   UNL     1      -8.146   0.891 125.162  0.00  0.00    +0.000 N 
ATOM     37  O   UNL     1      -7.083   2.690 125.948  0.00  0.00    +0.000 OA
ATOM     38  H   UNL     1      -8.547  -0.027 125.210  0.00  0.00    +0.000 HD
ATOM     39  H   UNL     1      -8.276   1.395 124.291  0.00  0.00    +0.000 HD
ENDBRANCH  34  35
BRANCH  34  40
ATOM     40  C   UNL     1      -7.596  -0.694 127.277  0.00  0.00    +0.000 C 
BRANCH  40  41
ATOM     41  C   UNL     1      -7.084  -1.810 128.174  0.00  0.00    +0.000 A 
ATOM     42  C   UNL     1      -7.983  -2.581 128.937  0.00  0.00    +0.000 A 
ATOM     43  C   UNL     1      -7.500  -3.554 129.858  0.00  0.00    +0.000 A 
ATOM     44  C   UNL     1      -6.086  -3.751 130.047  0.00  0.00    +0.000 A 
ATOM     45 CL   UNL     1      -5.526  -5.201 130.871  0.00  0.00    +0.000 Cl
ATOM     46  C   UNL     1      -5.189  -3.043 129.203  0.00  0.00    +0.000 A 
ATOM     47 CL   UNL     1      -3.558  -3.607 128.910  0.00  0.00    +0.000 Cl
ATOM     48  C   UNL     1      -5.695  -2.090 128.277  0.00  0.00    +0.000 A 
ENDBRANCH  40  41
ENDBRANCH  34  40
ENDBRANCH  32  34
ENDBRANCH  29  30
ENDBRANCH  10  29
TORSDOF 13
ENDMDL
MODEL 2
REMARK VINA RESULT:      -8.9      2.261      2.549
REMARK  Name = CHEMBL278619
REMARK  14 active torsions:
REMARK  status: ('A' for Active; 'I' for Inactive)
REMARK    1  A    between atoms: C_1  and  C_2
REMARK    2  A    between atoms: C_2  and  C_4
REMARK    3  A    between atoms: C_4  and  C_5
REMARK    4  A    between atoms: C_5  and  C_6
REMARK    5  A    between atoms: C_6  and  C_7
REMARK    6  A    between atoms: N_9  and  C_10
REMARK    7  A    between atoms: C_12  and  C_13
REMARK    8  A    between atoms: C_13  and  N_14
REMARK    9  A    between atoms: N_25  and  C_26
REMARK   10  A    between atoms: C_26  and  C_27
REMARK   11  A    between atoms: N_29  and  C_30
REMARK   12  A    between atoms: C_30  and  C_31
REMARK   13  A    between atoms: C_30  and  C_40
REMARK   14  A    between atoms: C_31  and  C_32
REMARK                            x       y       z     vdW  Elec       q    Type
REMARK                         _______ _______ _______ _____ _____    ______ ____
ROOT
ATOM      1  C   UNL     1      -9.389   5.922 131.296  0.00  0.00    +0.000 C 
ATOM      2  N   UNL     1      -8.062   6.547 131.293  0.00  0.00    +0.000 NA
ATOM      3  C   UNL     1      -7.109   5.970 131.945  0.00  0.00    +0.000 C 
ATOM      4  C   UNL     1      -7.282   4.710 132.591  0.00  0.00    +0.000 A 
ATOM      5  C   UNL     1      -6.610   4.541 133.805  0.00  0.00    +0.000 A 
ATOM      6  C   UNL     1      -6.620   3.302 134.283  0.00  0.00    +0.000 A 
ATOM      7  C   UNL     1      -7.497   2.459 133.635  0.00  0.00    +0.000 A 
ATOM      8  C   UNL     1      -8.410   2.654 132.660  0.00  0.00    +0.000 A 
ATOM      9  C   UNL     1      -8.062   3.718 131.948  0.00  0.00    +0.000 A 
ATOM     10  N   UNL     1      -8.491   3.722 130.611  0.00  0.00    +0.000 N 
ATOM     11  C   UNL     1      -9.351   4.750 130.262  0.00  0.00    +0.000 C 
ATOM     12  O   UNL     1     -10.039   4.716 129.242  0.00  0.00    +0.000 OA
ENDROOT
BRANCH   1  15
ATOM     13  C   UNL     1     -11.620   6.865 131.283  0.00  0.00    +0.000 C 
ATOM     14  O   UNL     1     -12.067   5.964 131.988  0.00  0.00    +0.000 OA
ATOM     15  N   UNL     1     -10.325   6.897 130.847  0.00  0.00    +0.000 N 
ATOM     16  H   UNL     1      -9.940   7.659 130.310  0.00  0.00    +0.000 HD
BRANCH  13  17
ATOM     17  C   UNL     1     -12.452   8.030 130.787  0.00  0.00    +0.000 C 
BRANCH  17  18
ATOM     18  C   UNL     1     -12.933   7.754 129.367  0.00  0.00    +0.000 C 
BRANCH  18  19
ATOM     19  C   UNL     1     -12.392   8.743 128.342  0.00  0.00    +0.000 C 
BRANCH  19  21
ATOM     20  C   UNL     1     -11.070   7.535 126.482  0.00  0.00    +0.000 C 
ATOM     21  C   UNL     1     -11.052   8.268 127.795  0.00  0.00    +0.000 C 
ATOM     22  O   UNL     1      -9.988   8.464 128.380  0.00  0.00    +0.000 OA
ENDBRANCH  19  21
ENDBRANCH  18  19
ENDBRANCH  17  18
ENDBRANCH  13  17
ENDBRANCH   1  15
BRANCH   3  23
ATOM     23  C   UNL     1      -5.715   6.539 132.103  0.00  0.00    +0.000 C 
BRANCH  23  24
ATOM     24  N   UNL     1      -5.107   6.668 130.823  0.00  0.00    +0.000 N 
ATOM     25  C   UNL     1      -4.670   5.620 130.071  0.00  0.00    +0.000 A 
ATOM     26  C   UNL     1      -4.008   6.223 129.037  0.00  0.00    +0.000 A 
ATOM     27  N   UNL     1      -4.074   7.595 129.136  0.00  0.00    +0.000 NA
ATOM     28  C   UNL     1      -4.735   7.832 130.244  0.00  0.00    +0.000 A 
ENDBRANCH  23  24
ENDBRANCH   3  23
BRANCH  10  29
ATOM     29  C   UNL     1      -8.429   2.469 129.803  0.00  0.00    +0.000 C 
BRANCH  29  30
ATOM     30  C   UNL     1      -7.044   1.996 129.257  0.00  0.00    +0.000 C 
ATOM     31  O   UNL     1      -6.267   1.259 129.901  0.00  0.00    +0.000 OA
ATOM     32  N   UNL     1      -6.675   2.424 128.006  0.00  0.00    +0.000 N 
ATOM     33  H   UNL     1      -7.006   3.339 127.732  0.00  0.00    +0.000 HD
BRANCH  32  34
ATOM     34  C   UNL     1      -5.464   1.864 127.366  0.00  0.00    +0.000 C 
BRANCH  34  35
ATOM     35  C   UNL     1      -4.291   2.875 127.236  0.00  0.00    +0.000 C 
ATOM     36  N   UNL     1      -3.108   2.590 127.853  0.00  0.00    +0.000 N 
ATOM     37  O   UNL     1      -4.386   3.924 126.599  0.00  0.00    +0.000 OA
ATOM     38  H   UNL     1      -2.887   1.761 128.374  0.00  0.00    +0.000 HD
ATOM     39  H   UNL     1      -2.364   3.273 127.755  0.00  0.00    +0.000 HD
ENDBRANCH  34  35
BRANCH  34  40
ATOM     40  C   UNL     1      -5.759   1.316 125.936  0.00  0.00    +0.000 C 
BRANCH  40  41
ATOM     41  C   UNL     1      -6.342  -0.064 125.682  0.00  0.00    +0.000 A 
ATOM     42  C   UNL     1      -7.700  -0.327 125.955  0.00  0.00    +0.000 A 
ATOM     43  C   UNL     1      -8.223  -1.645 125.821  0.00  0.00    +0.000 A 
ATOM     44  C   UNL     1      -7.373  -2.738 125.428  0.00  0.00    +0.000 A 
ATOM     45 CL   UNL     1      -8.106  -4.243 124.889  0.00  0.00    +0.000 Cl
ATOM     46  C   UNL     1      -6.032  -2.448 125.057  0.00  0.00    +0.000 A 
ATOM     47 CL   UNL     1      -5.108  -3.520 124.026  0.00  0.00    +0.000 Cl
ATOM     48  C   UNL     1      -5.536  -1.122 125.181  0.00  0.00    +0.000 A 
ENDBRANCH  40  41
ENDBRANCH  34  40
ENDBRANCH  32  34
ENDBRANCH  29  30
ENDBRANCH  10  29
TORSDOF 13
ENDMDL
MODEL 3
REMARK VINA RESULT:      -8.8      2.817      4.371
REMARK  Name = CHEMBL278619
REMARK  14 active torsions:
REMARK  status: ('A' for Active; 'I' for Inactive)
REMARK    1  A    between atoms: C_1  and  C_2
REMARK    2  A    between atoms: C_2  and  C_4
REMARK    3  A    between atoms: C_4  and  C_5
REMARK    4  A    between atoms: C_5  and  C_6
REMARK    5  A    between atoms: C_6  and  C_7
REMARK    6  A    between atoms: N_9  and  C_10
REMARK    7  A    between atoms: C_12  and  C_13
REMARK    8  A    between atoms: C_13  and  N_14
REMARK    9  A    between atoms: N_25  and  C_26
REMARK   10  A    between atoms: C_26  and  C_27
REMARK   11  A    between atoms: N_29  and  C_30
REMARK   12  A    between atoms: C_30  and  C_31
REMARK   13  A    between atoms: C_30  and  C_40
REMARK   14  A    between atoms: C_31  and  C_32
REMARK                            x       y       z     vdW  Elec       q    Type
REMARK                         _______ _______ _______ _____ _____    ______ ____
ROOT
ATOM      1  C   UNL     1      -8.838   4.557 130.132  0.00  0.00    +0.000 C 
ATOM      2  N   UNL     1      -8.595   4.334 128.703  0.00  0.00    +0.000 NA
ATOM      3  C   UNL     1      -7.388   4.093 128.314  0.00  0.00    +0.000 C 
ATOM      4  C   UNL     1      -6.306   3.953 129.234  0.00  0.00    +0.000 A 
ATOM      5  C   UNL     1      -5.072   4.460 128.817  0.00  0.00    +0.000 A 
ATOM      6  C   UNL     1      -4.043   4.140 129.593  0.00  0.00    +0.000 A 
ATOM      7  C   UNL     1      -4.405   3.583 130.801  0.00  0.00    +0.000 A 
ATOM      8  C   UNL     1      -5.600   3.364 131.392  0.00  0.00    +0.000 A 
ATOM      9  C   UNL     1      -6.536   3.277 130.456  0.00  0.00    +0.000 A 
ATOM     10  N   UNL     1      -7.650   2.488 130.784  0.00  0.00    +0.000 N 
ATOM     11  C   UNL     1      -8.864   3.154 130.821  0.00  0.00    +0.000 C 
ATOM     12  O   UNL     1      -9.857   2.684 131.378  0.00  0.00    +0.000 OA
ENDROOT
BRANCH   1  15
ATOM     13  C   UNL     1     -10.325   6.181 131.140  0.00  0.00    +0.000 C 
ATOM     14  O   UNL     1      -9.461   6.574 131.920  0.00  0.00    +0.000 OA
ATOM     15  N   UNL     1     -10.124   5.154 130.262  0.00  0.00    +0.000 N 
ATOM     16  H   UNL     1     -10.813   4.860 129.586  0.00  0.00    +0.000 HD
BRANCH  13  17
ATOM     17  C   UNL     1     -11.722   6.764 131.079  0.00  0.00    +0.000 C 
BRANCH  17  18
ATOM     18  C   UNL     1     -12.251   6.686 129.651  0.00  0.00    +0.000 C 
BRANCH  18  19
ATOM     19  C   UNL     1     -12.200   8.018 128.913  0.00  0.00    +0.000 C 
BRANCH  19  21
ATOM     20  C   UNL     1     -11.087   7.687 126.607  0.00  0.00    +0.000 C 
ATOM     21  C   UNL     1     -10.951   8.103 128.046  0.00  0.00    +0.000 C 
ATOM     22  O   UNL     1      -9.867   8.492 128.478  0.00  0.00    +0.000 OA
ENDBRANCH  19  21
ENDBRANCH  18  19
ENDBRANCH  17  18
ENDBRANCH  13  17
ENDBRANCH   1  15
BRANCH   3  23
ATOM     23  C   UNL     1      -6.971   3.929 126.868  0.00  0.00    +0.000 C 
BRANCH  23  24
ATOM     24  N   UNL     1      -7.898   3.080 126.201  0.00  0.00    +0.000 N 
ATOM     25  C   UNL     1      -8.085   1.763 126.497  0.00  0.00    +0.000 A 
ATOM     26  C   UNL     1      -8.914   1.326 125.501  0.00  0.00    +0.000 A 
ATOM     27  N   UNL     1      -9.252   2.353 124.648  0.00  0.00    +0.000 NA
ATOM     28  C   UNL     1      -8.603   3.402 125.093  0.00  0.00    +0.000 A 
ENDBRANCH  23  24
ENDBRANCH   3  23
BRANCH  10  29
ATOM     29  C   UNL     1      -7.465   1.196 131.505  0.00  0.00    +0.000 C 
BRANCH  29  30
ATOM     30  C   UNL     1      -7.312  -0.116 130.670  0.00  0.00    +0.000 C 
ATOM     31  O   UNL     1      -8.269  -0.871 130.397  0.00  0.00    +0.000 OA
ATOM     32  N   UNL     1      -6.055  -0.442 130.225  0.00  0.00    +0.000 N 
ATOM     33  H   UNL     1      -5.286  -0.165 130.819  0.00  0.00    +0.000 HD
BRANCH  32  34
ATOM     34  C   UNL     1      -5.881  -1.569 129.281  0.00  0.00    +0.000 C 
BRANCH  34  35
ATOM     35  C   UNL     1      -4.597  -2.409 129.529  0.00  0.00    +0.000 C 
ATOM     36  N   UNL     1      -3.403  -1.760 129.653  0.00  0.00    +0.000 N 
ATOM     37  O   UNL     1      -4.613  -3.636 129.617  0.00  0.00    +0.000 OA
ATOM     38  H   UNL     1      -3.254  -0.768 129.634  0.00  0.00    +0.000 HD
ATOM     39  H   UNL     1      -2.583  -2.337 129.808  0.00  0.00    +0.000 HD
ENDBRANCH  34  35
BRANCH  34  40
ATOM     40  C   UNL     1      -5.835  -1.087 127.799  0.00  0.00    +0.000 C 
BRANCH  40  41
ATOM     41  C   UNL     1      -6.754  -1.638 126.720  0.00  0.00    +0.000 A 
ATOM     42  C   UNL     1      -8.035  -2.122 127.052  0.00  0.00    +0.000 A 
ATOM     43  C   UNL     1      -8.855  -2.737 126.063  0.00  0.00    +0.000 A 
ATOM     44  C   UNL     1      -8.383  -2.900 124.713  0.00  0.00    +0.000 A 
ATOM     45 CL   UNL     1      -9.537  -3.287 123.443  0.00  0.00    +0.000 Cl
ATOM     46  C   UNL     1      -7.133  -2.322 124.362  0.00  0.00    +0.000 A 
ATOM     47 CL   UNL     1      -6.734  -1.925 122.705  0.00  0.00    +0.000 Cl
ATOM     48  C   UNL     1      -6.340  -1.695 125.362  0.00  0.00    +0.000 A 
ENDBRANCH  40  41
ENDBRANCH  34  40
ENDBRANCH  32  34
ENDBRANCH  29  30
ENDBRANCH  10  29
TORSDOF 13
ENDMDL
MODEL 4
REMARK VINA RESULT:      -8.7      2.705      4.290
REMARK  Name = CHEMBL278619
REMARK  14 active torsions:
REMARK  status: ('A' for Active; 'I' for Inactive)
REMARK    1  A    between atoms: C_1  and  C_2
REMARK    2  A    between atoms: C_2  and  C_4
REMARK    3  A    between atoms: C_4  and  C_5
REMARK    4  A    between atoms: C_5  and  C_6
REMARK    5  A    between atoms: C_6  and  C_7
REMARK    6  A    between atoms: N_9  and  C_10
REMARK    7  A    between atoms: C_12  and  C_13
REMARK    8  A    between atoms: C_13  and  N_14
REMARK    9  A    between atoms: N_25  and  C_26
REMARK   10  A    between atoms: C_26  and  C_27
REMARK   11  A    between atoms: N_29  and  C_30
REMARK   12  A    between atoms: C_30  and  C_31
REMARK   13  A    between atoms: C_30  and  C_40
REMARK   14  A    between atoms: C_31  and  C_32
REMARK                            x       y       z     vdW  Elec       q    Type
REMARK                         _______ _______ _______ _____ _____    ______ ____
ROOT
ATOM      1  C   UNL     1      -8.692   3.957 129.905  0.00  0.00    +0.000 C 
ATOM      2  N   UNL     1      -8.460   3.701 131.331  0.00  0.00    +0.000 NA
ATOM      3  C   UNL     1      -8.187   2.495 131.704  0.00  0.00    +0.000 C 
ATOM      4  C   UNL     1      -8.022   1.429 130.770  0.00  0.00    +0.000 A 
ATOM      5  C   UNL     1      -8.497   0.177 131.172  0.00  0.00    +0.000 A 
ATOM      6  C   UNL     1      -8.153  -0.833 130.381  0.00  0.00    +0.000 A 
ATOM      7  C   UNL     1      -7.608  -0.441 129.177  0.00  0.00    +0.000 A 
ATOM      8  C   UNL     1      -7.421   0.766 128.601  0.00  0.00    +0.000 A 
ATOM      9  C   UNL     1      -7.355   1.693 129.548  0.00  0.00    +0.000 A 
ATOM     10  N   UNL     1      -6.596   2.831 129.234  0.00  0.00    +0.000 N 
ATOM     11  C   UNL     1      -7.292   4.028 129.213  0.00  0.00    +0.000 C 
ATOM     12  O   UNL     1      -6.849   5.039 128.669  0.00  0.00    +0.000 OA
ENDROOT
BRANCH   1  15
ATOM     13  C   UNL     1     -10.677   5.345 129.935  0.00  0.00    +0.000 C 
ATOM     14  O   UNL     1     -11.422   4.377 130.061  0.00  0.00    +0.000 OA
ATOM     15  N   UNL     1      -9.322   5.229 129.794  0.00  0.00    +0.000 N 
ATOM     16  H   UNL     1      -8.701   6.022 129.740  0.00  0.00    +0.000 HD
BRANCH  13  17
ATOM     17  C   UNL     1     -11.168   6.778 129.887  0.00  0.00    +0.000 C 
BRANCH  17  18
ATOM     18  C   UNL     1     -10.112   7.664 129.235  0.00  0.00    +0.000 C 
BRANCH  18  19
ATOM     19  C   UNL     1     -10.594   8.341 127.958  0.00  0.00    +0.000 C 
BRANCH  19  21
ATOM     20  C   UNL     1     -12.230   7.181 126.332  0.00  0.00    +0.000 C 
ATOM     21  C   UNL     1     -10.828   7.311 126.862  0.00  0.00    +0.000 C 
ATOM     22  O   UNL     1      -9.928   6.605 126.409  0.00  0.00    +0.000 OA
ENDBRANCH  19  21
ENDBRANCH  18  19
ENDBRANCH  17  18
ENDBRANCH  13  17
ENDBRANCH   1  15
BRANCH   3  23
ATOM     23  C   UNL     1      -8.008   2.064 133.144  0.00  0.00    +0.000 C 
BRANCH  23  24
ATOM     24  N   UNL     1      -6.627   2.107 133.483  0.00  0.00    +0.000 N 
ATOM     25  C   UNL     1      -5.874   1.011 133.780  0.00  0.00    +0.000 A 
ATOM     26  C   UNL     1      -4.692   1.544 134.213  0.00  0.00    +0.000 A 
ATOM     27  N   UNL     1      -4.710   2.919 134.145  0.00  0.00    +0.000 NA
ATOM     28  C   UNL     1      -5.909   3.230 133.713  0.00  0.00    +0.000 A 
ENDBRANCH  23  24
ENDBRANCH   3  23
BRANCH  10  29
ATOM     29  C   UNL     1      -5.301   2.687 128.507  0.00  0.00    +0.000 C 
BRANCH  29  30
ATOM     30  C   UNL     1      -5.329   2.343 126.983  0.00  0.00    +0.000 C 
ATOM     31  O   UNL     1      -4.671   1.409 126.478  0.00  0.00    +0.000 OA
ATOM     32  N   UNL     1      -6.119   3.119 126.172  0.00  0.00    +0.000 N 
ATOM     33  H   UNL     1      -6.220   4.088 126.443  0.00  0.00    +0.000 HD
BRANCH  32  34
ATOM     34  C   UNL     1      -6.327   2.729 124.760  0.00  0.00    +0.000 C 
BRANCH  34  35
ATOM     35  C   UNL     1      -6.328   3.925 123.767  0.00  0.00    +0.000 C 
ATOM     36  N   UNL     1      -6.908   3.760 122.542  0.00  0.00    +0.000 N 
ATOM     37  O   UNL     1      -5.826   5.015 124.038  0.00  0.00    +0.000 OA
ATOM     38  H   UNL     1      -7.379   2.939 122.207  0.00  0.00    +0.000 HD
ATOM     39  H   UNL     1      -6.887   4.557 121.915  0.00  0.00    +0.000 HD
ENDBRANCH  34  35
BRANCH  34  40
ATOM     40  C   UNL     1      -7.669   1.962 124.556  0.00  0.00    +0.000 C 
BRANCH  40  41
ATOM     41  C   UNL     1      -7.780   0.449 124.646  0.00  0.00    +0.000 A 
ATOM     42  C   UNL     1      -8.908  -0.151 125.239  0.00  0.00    +0.000 A 
ATOM     43  C   UNL     1      -8.966  -1.562 125.422  0.00  0.00    +0.000 A 
ATOM     44  C   UNL     1      -7.865  -2.401 125.027  0.00  0.00    +0.000 A 
ATOM     45 CL   UNL     1      -8.116  -4.137 124.893  0.00  0.00    +0.000 Cl
ATOM     46  C   UNL     1      -6.776  -1.802 124.339  0.00  0.00    +0.000 A 
ATOM     47 CL   UNL     1      -5.711  -2.735 123.309  0.00  0.00    +0.000 Cl
ATOM     48  C   UNL     1      -6.748  -0.393 124.151  0.00  0.00    +0.000 A 
ENDBRANCH  40  41
ENDBRANCH  34  40
ENDBRANCH  32  34
ENDBRANCH  29  30
ENDBRANCH  10  29
TORSDOF 13
ENDMDL
MODEL 5
REMARK VINA RESULT:      -8.6      2.365      3.148
REMARK  Name = CHEMBL278619
REMARK  14 active torsions:
REMARK  status: ('A' for Active; 'I' for Inactive)
REMARK    1  A    between atoms: C_1  and  C_2
REMARK    2  A    between atoms: C_2  and  C_4
REMARK    3  A    between atoms: C_4  and  C_5
REMARK    4  A    between atoms: C_5  and  C_6
REMARK    5  A    between atoms: C_6  and  C_7
REMARK    6  A    between atoms: N_9  and  C_10
REMARK    7  A    between atoms: C_12  and  C_13
REMARK    8  A    between atoms: C_13  and  N_14
REMARK    9  A    between atoms: N_25  and  C_26
REMARK   10  A    between atoms: C_26  and  C_27
REMARK   11  A    between atoms: N_29  and  C_30
REMARK   12  A    between atoms: C_30  and  C_31
REMARK   13  A    between atoms: C_30  and  C_40
REMARK   14  A    between atoms: C_31  and  C_32
REMARK                            x       y       z     vdW  Elec       q    Type
REMARK                         _______ _______ _______ _____ _____    ______ ____
ROOT
ATOM      1  C   UNL     1     -10.086   5.385 130.797  0.00  0.00    +0.000 C 
ATOM      2  N   UNL     1      -8.746   5.705 130.293  0.00  0.00    +0.000 NA
ATOM      3  C   UNL     1      -7.750   5.649 131.114  0.00  0.00    +0.000 C 
ATOM      4  C   UNL     1      -7.899   5.207 132.462  0.00  0.00    +0.000 A 
ATOM      5  C   UNL     1      -7.112   5.859 133.416  0.00  0.00    +0.000 A 
ATOM      6  C   UNL     1      -7.114   5.300 134.621  0.00  0.00    +0.000 A 
ATOM      7  C   UNL     1      -8.082   4.333 134.787  0.00  0.00    +0.000 A 
ATOM      8  C   UNL     1      -9.083   3.887 133.998  0.00  0.00    +0.000 A 
ATOM      9  C   UNL     1      -8.774   4.126 132.730  0.00  0.00    +0.000 A 
ATOM     10  N   UNL     1      -9.338   3.248 131.792  0.00  0.00    +0.000 N 
ATOM     11  C   UNL     1     -10.194   3.827 130.869  0.00  0.00    +0.000 C 
ATOM     12  O   UNL     1     -10.984   3.165 130.197  0.00  0.00    +0.000 OA
ENDROOT
BRANCH   1  15
ATOM     13  C   UNL     1     -12.141   6.545 130.254  0.00  0.00    +0.000 C 
ATOM     14  O   UNL     1     -12.438   6.693 131.437  0.00  0.00    +0.000 OA
ATOM     15  N   UNL     1     -11.029   5.865 129.844  0.00  0.00    +0.000 N 
ATOM     16  H   UNL     1     -10.754   5.783 128.877  0.00  0.00    +0.000 HD
BRANCH  13  17
ATOM     17  C   UNL     1     -12.983   7.070 129.109  0.00  0.00    +0.000 C 
BRANCH  17  18
ATOM     18  C   UNL     1     -12.527   8.475 128.734  0.00  0.00    +0.000 C 
BRANCH  18  19
ATOM     19  C   UNL     1     -11.097   8.528 128.210  0.00  0.00    +0.000 C 
BRANCH  19  21
ATOM     20  C   UNL     1     -11.870   7.566 125.942  0.00  0.00    +0.000 C 
ATOM     21  C   UNL     1     -10.899   7.516 127.090  0.00  0.00    +0.000 C 
ATOM     22  O   UNL     1      -9.993   6.683 127.098  0.00  0.00    +0.000 OA
ENDBRANCH  19  21
ENDBRANCH  18  19
ENDBRANCH  17  18
ENDBRANCH  13  17
ENDBRANCH   1  15
BRANCH   3  23
ATOM     23  C   UNL     1      -6.329   6.033 130.762  0.00  0.00    +0.000 C 
BRANCH  23  24
ATOM     24  N   UNL     1      -5.622   4.880 130.318  0.00  0.00    +0.000 N 
ATOM     25  C   UNL     1      -4.680   4.226 131.054  0.00  0.00    +0.000 A 
ATOM     26  C   UNL     1      -4.158   3.321 130.172  0.00  0.00    +0.000 A 
ATOM     27  N   UNL     1      -4.789   3.395 128.950  0.00  0.00    +0.000 NA
ATOM     28  C   UNL     1      -5.663   4.366 129.068  0.00  0.00    +0.000 A 
ENDBRANCH  23  24
ENDBRANCH   3  23
BRANCH  10  29
ATOM     29  C   UNL     1      -9.401   1.786 132.081  0.00  0.00    +0.000 C 
BRANCH  29  30
ATOM     30  C   UNL     1      -8.667   0.798 131.120  0.00  0.00    +0.000 C 
ATOM     31  O   UNL     1      -8.801  -0.443 131.178  0.00  0.00    +0.000 OA
ATOM     32  N   UNL     1      -7.831   1.336 130.173  0.00  0.00    +0.000 N 
ATOM     33  H   UNL     1      -7.355   2.190 130.431  0.00  0.00    +0.000 HD
BRANCH  32  34
ATOM     34  C   UNL     1      -7.254   0.466 129.124  0.00  0.00    +0.000 C 
BRANCH  34  35
ATOM     35  C   UNL     1      -5.780   0.052 129.387  0.00  0.00    +0.000 C 
ATOM     36  N   UNL     1      -4.846   0.304 128.423  0.00  0.00    +0.000 N 
ATOM     37  O   UNL     1      -5.418  -0.495 130.428  0.00  0.00    +0.000 OA
ATOM     38  H   UNL     1      -4.998   0.770 127.547  0.00  0.00    +0.000 HD
ATOM     39  H   UNL     1      -3.894   0.016 128.622  0.00  0.00    +0.000 HD
ENDBRANCH  34  35
BRANCH  34  40
ATOM     40  C   UNL     1      -7.298   1.139 127.717  0.00  0.00    +0.000 C 
BRANCH  40  41
ATOM     41  C   UNL     1      -7.581   0.366 126.439  0.00  0.00    +0.000 A 
ATOM     42  C   UNL     1      -7.015   0.778 125.216  0.00  0.00    +0.000 A 
ATOM     43  C   UNL     1      -7.363   0.122 124.001  0.00  0.00    +0.000 A 
ATOM     44  C   UNL     1      -8.316  -0.956 123.993  0.00  0.00    +0.000 A 
ATOM     45 CL   UNL     1      -8.425  -1.993 122.576  0.00  0.00    +0.000 Cl
ATOM     46  C   UNL     1      -8.805  -1.432 125.240  0.00  0.00    +0.000 A 
ATOM     47 CL   UNL     1      -9.457  -3.047 125.420  0.00  0.00    +0.000 Cl
ATOM     48  C   UNL     1      -8.429  -0.774 126.442  0.00  0.00    +0.000 A 
ENDBRANCH  40  41
ENDBRANCH  34  40
ENDBRANCH  32  34
ENDBRANCH  29  30
ENDBRANCH  10  29
TORSDOF 13
ENDMDL
MODEL 6
REMARK VINA RESULT:      -8.5      3.339      4.563
REMARK  Name = CHEMBL278619
REMARK  14 active torsions:
REMARK  status: ('A' for Active; 'I' for Inactive)
REMARK    1  A    between atoms: C_1  and  C_2
REMARK    2  A    between atoms: C_2  and  C_4
REMARK    3  A    between atoms: C_4  and  C_5
REMARK    4  A    between atoms: C_5  and  C_6
REMARK    5  A    between atoms: C_6  and  C_7
REMARK    6  A    between atoms: N_9  and  C_10
REMARK    7  A    between atoms: C_12  and  C_13
REMARK    8  A    between atoms: C_13  and  N_14
REMARK    9  A    between atoms: N_25  and  C_26
REMARK   10  A    between atoms: C_26  and  C_27
REMARK   11  A    between atoms: N_29  and  C_30
REMARK   12  A    between atoms: C_30  and  C_31
REMARK   13  A    between atoms: C_30  and  C_40
REMARK   14  A    between atoms: C_31  and  C_32
REMARK                            x       y       z     vdW  Elec       q    Type
REMARK                         _______ _______ _______ _____ _____    ______ ____
ROOT
ATOM      1  C   UNL     1      -9.295   4.729 131.177  0.00  0.00    +0.000 C 
ATOM      2  N   UNL     1      -8.065   5.433 130.798  0.00  0.00    +0.000 NA
ATOM      3  C   UNL     1      -6.961   5.098 131.378  0.00  0.00    +0.000 C 
ATOM      4  C   UNL     1      -6.886   4.016 132.304  0.00  0.00    +0.000 A 
ATOM      5  C   UNL     1      -6.015   4.188 133.385  0.00  0.00    +0.000 A 
ATOM      6  C   UNL     1      -5.808   3.098 134.116  0.00  0.00    +0.000 A 
ATOM      7  C   UNL     1      -6.676   2.063 133.837  0.00  0.00    +0.000 A 
ATOM      8  C   UNL     1      -7.747   1.956 133.023  0.00  0.00    +0.000 A 
ATOM      9  C   UNL     1      -7.640   2.845 132.045  0.00  0.00    +0.000 A 
ATOM     10  N   UNL     1      -8.272   2.503 130.840  0.00  0.00    +0.000 N 
ATOM     11  C   UNL     1      -9.288   3.353 130.434  0.00  0.00    +0.000 C 
ATOM     12  O   UNL     1     -10.120   3.029 129.588  0.00  0.00    +0.000 OA
ENDROOT
BRANCH   1  15
ATOM     13  C   UNL     1     -11.036   6.376 131.532  0.00  0.00    +0.000 C 
ATOM     14  O   UNL     1     -10.775   6.477 132.728  0.00  0.00    +0.000 OA
ATOM     15  N   UNL     1     -10.395   5.499 130.702  0.00  0.00    +0.000 N 
ATOM     16  H   UNL     1     -10.570   5.446 129.710  0.00  0.00    +0.000 HD
BRANCH  13  17
ATOM     17  C   UNL     1     -12.114   7.184 130.839  0.00  0.00    +0.000 C 
BRANCH  17  18
ATOM     18  C   UNL     1     -12.285   6.694 129.405  0.00  0.00    +0.000 C 
BRANCH  18  19
ATOM     19  C   UNL     1     -12.370   7.823 128.386  0.00  0.00    +0.000 C 
BRANCH  19  21
ATOM     20  C   UNL     1     -10.892   7.607 126.281  0.00  0.00    +0.000 C 
ATOM     21  C   UNL     1     -11.021   8.042 127.714  0.00  0.00    +0.000 C 
ATOM     22  O   UNL     1     -10.064   8.551 128.295  0.00  0.00    +0.000 OA
ENDBRANCH  19  21
ENDBRANCH  18  19
ENDBRANCH  17  18
ENDBRANCH  13  17
ENDBRANCH   1  15
BRANCH   3  23
ATOM     23  C   UNL     1      -5.633   5.790 131.155  0.00  0.00    +0.000 C 
BRANCH  23  24
ATOM     24  N   UNL     1      -4.991   5.228 130.017  0.00  0.00    +0.000 N 
ATOM     25  C   UNL     1      -4.417   5.957 129.019  0.00  0.00    +0.000 A 
ATOM     26  C   UNL     1      -4.103   5.017 128.077  0.00  0.00    +0.000 A 
ATOM     27  N   UNL     1      -4.439   3.752 128.504  0.00  0.00    +0.000 NA
ATOM     28  C   UNL     1      -4.993   3.918 129.680  0.00  0.00    +0.000 A 
ENDBRANCH  23  24
ENDBRANCH   3  23
BRANCH  10  29
ATOM     29  C   UNL     1      -8.197   1.104 130.327  0.00  0.00    +0.000 C 
BRANCH  29  30
ATOM     30  C   UNL     1      -7.797   0.871 128.836  0.00  0.00    +0.000 C 
ATOM     31  O   UNL     1      -7.890  -0.237 128.265  0.00  0.00    +0.000 OA
ATOM     32  N   UNL     1      -7.316   1.947 128.132  0.00  0.00    +0.000 N 
ATOM     33  H   UNL     1      -6.792   2.630 128.663  0.00  0.00    +0.000 HD
BRANCH  32  34
ATOM     34  C   UNL     1      -7.094   1.830 126.673  0.00  0.00    +0.000 C 
BRANCH  34  35
ATOM     35  C   UNL     1      -5.827   1.018 126.289  0.00  0.00    +0.000 C 
ATOM     36  N   UNL     1      -4.644   1.320 126.899  0.00  0.00    +0.000 N 
ATOM     37  O   UNL     1      -5.844   0.114 125.454  0.00  0.00    +0.000 OA
ATOM     38  H   UNL     1      -4.497   2.008 127.616  0.00  0.00    +0.000 HD
ATOM     39  H   UNL     1      -3.833   0.777 126.622  0.00  0.00    +0.000 HD
ENDBRANCH  34  35
BRANCH  34  40
ATOM     40  C   UNL     1      -6.972   3.225 125.987  0.00  0.00    +0.000 C 
BRANCH  40  41
ATOM     41  C   UNL     1      -6.975   3.409 124.478  0.00  0.00    +0.000 A 
ATOM     42  C   UNL     1      -8.126   3.106 123.724  0.00  0.00    +0.000 A 
ATOM     43  C   UNL     1      -8.098   3.174 122.302  0.00  0.00    +0.000 A 
ATOM     44  C   UNL     1      -6.890   3.529 121.605  0.00  0.00    +0.000 A 
ATOM     45 CL   UNL     1      -6.981   3.991 119.910  0.00  0.00    +0.000 Cl
ATOM     46  C   UNL     1      -5.763   3.931 122.373  0.00  0.00    +0.000 A 
ATOM     47 CL   UNL     1      -4.492   4.927 121.696  0.00  0.00    +0.000 Cl
ATOM     48  C   UNL     1      -5.820   3.874 123.793  0.00  0.00    +0.000 A 
ENDBRANCH  40  41
ENDBRANCH  34  40
ENDBRANCH  32  34
ENDBRANCH  29  30
ENDBRANCH  10  29
TORSDOF 13
ENDMDL
MODEL 7
REMARK VINA RESULT:      -8.5      3.065      5.407
REMARK  Name = CHEMBL278619
REMARK  14 active torsions:
REMARK  status: ('A' for Active; 'I' for Inactive)
REMARK    1  A    between atoms: C_1  and  C_2
REMARK    2  A    between atoms: C_2  and  C_4
REMARK    3  A    between atoms: C_4  and  C_5
REMARK    4  A    between atoms: C_5  and  C_6
REMARK    5  A    between atoms: C_6  and  C_7
REMARK    6  A    between atoms: N_9  and  C_10
REMARK    7  A    between atoms: C_12  and  C_13
REMARK    8  A    between atoms: C_13  and  N_14
REMARK    9  A    between atoms: N_25  and  C_26
REMARK   10  A    between atoms: C_26  and  C_27
REMARK   11  A    between atoms: N_29  and  C_30
REMARK   12  A    between atoms: C_30  and  C_31
REMARK   13  A    between atoms: C_30  and  C_40
REMARK   14  A    between atoms: C_31  and  C_32
REMARK                            x       y       z     vdW  Elec       q    Type
REMARK                         _______ _______ _______ _____ _____    ______ ____
ROOT
ATOM      1  C   UNL     1      -7.343   4.482 129.202  0.00  0.00    +0.000 C 
ATOM      2  N   UNL     1      -7.637   4.046 127.832  0.00  0.00    +0.000 NA
ATOM      3  C   UNL     1      -6.648   3.769 127.049  0.00  0.00    +0.000 C 
ATOM      4  C   UNL     1      -5.293   3.790 127.498  0.00  0.00    +0.000 A 
ATOM      5  C   UNL     1      -4.346   4.249 126.577  0.00  0.00    +0.000 A 
ATOM      6  C   UNL     1      -3.080   4.070 126.940  0.00  0.00    +0.000 A 
ATOM      7  C   UNL     1      -2.923   3.698 128.258  0.00  0.00    +0.000 A 
ATOM      8  C   UNL     1      -3.790   3.553 129.283  0.00  0.00    +0.000 A 
ATOM      9  C   UNL     1      -4.999   3.306 128.796  0.00  0.00    +0.000 A 
ATOM     10  N   UNL     1      -5.848   2.558 129.626  0.00  0.00    +0.000 N 
ATOM     11  C   UNL     1      -7.006   3.201 130.032  0.00  0.00    +0.000 C 
ATOM     12  O   UNL     1      -7.681   2.805 130.983  0.00  0.00    +0.000 OA
ENDROOT
BRANCH   1  15
ATOM     13  C   UNL     1      -8.481   6.286 130.350  0.00  0.00    +0.000 C 
ATOM     14  O   UNL     1      -7.430   6.882 130.573  0.00  0.00    +0.000 OA
ATOM     15  N   UNL     1      -8.529   5.069 129.729  0.00  0.00    +0.000 N 
ATOM     16  H   UNL     1      -9.390   4.598 129.499  0.00  0.00    +0.000 HD
BRANCH  13  17
ATOM     17  C   UNL     1      -9.843   6.807 130.760  0.00  0.00    +0.000 C 
BRANCH  17  18
ATOM     18  C   UNL     1     -10.908   5.757 130.465  0.00  0.00    +0.000 C 
BRANCH  18  19
ATOM     19  C   UNL     1     -12.102   6.305 129.694  0.00  0.00    +0.000 C 
BRANCH  19  21
ATOM     20  C   UNL     1     -12.687   8.815 129.846  0.00  0.00    +0.000 C 
ATOM     21  C   UNL     1     -12.758   7.445 130.461  0.00  0.00    +0.000 C 
ATOM     22  O   UNL     1     -13.329   7.279 131.539  0.00  0.00    +0.000 OA
ENDBRANCH  19  21
ENDBRANCH  18  19
ENDBRANCH  17  18
ENDBRANCH  13  17
ENDBRANCH   1  15
BRANCH   3  23
ATOM     23  C   UNL     1      -6.791   3.391 125.590  0.00  0.00    +0.000 C 
BRANCH  23  24
ATOM     24  N   UNL     1      -7.789   2.385 125.457  0.00  0.00    +0.000 N 
ATOM     25  C   UNL     1      -7.619   1.082 125.816  0.00  0.00    +0.000 A 
ATOM     26  C   UNL     1      -8.747   0.471 125.343  0.00  0.00    +0.000 A 
ATOM     27  N   UNL     1      -9.594   1.380 124.749  0.00  0.00    +0.000 NA
ATOM     28  C   UNL     1      -8.973   2.532 124.820  0.00  0.00    +0.000 A 
ENDBRANCH  23  24
ENDBRANCH   3  23
BRANCH  10  29
ATOM     29  C   UNL     1      -5.311   1.395 130.391  0.00  0.00    +0.000 C 
BRANCH  29  30
ATOM     30  C   UNL     1      -5.739  -0.046 129.966  0.00  0.00    +0.000 C 
ATOM     31  O   UNL     1      -6.886  -0.503 130.152  0.00  0.00    +0.000 OA
ATOM     32  N   UNL     1      -4.793  -0.837 129.363  0.00  0.00    +0.000 N 
ATOM     33  H   UNL     1      -3.837  -0.693 129.658  0.00  0.00    +0.000 HD
BRANCH  32  34
ATOM     34  C   UNL     1      -5.189  -2.137 128.778  0.00  0.00    +0.000 C 
BRANCH  34  35
ATOM     35  C   UNL     1      -4.392  -3.350 129.333  0.00  0.00    +0.000 C 
ATOM     36  N   UNL     1      -4.748  -3.870 130.544  0.00  0.00    +0.000 N 
ATOM     37  O   UNL     1      -3.452  -3.861 128.726  0.00  0.00    +0.000 OA
ATOM     38  H   UNL     1      -5.511  -3.572 131.124  0.00  0.00    +0.000 HD
ATOM     39  H   UNL     1      -4.205  -4.657 130.882  0.00  0.00    +0.000 HD
ENDBRANCH  34  35
BRANCH  34  40
ATOM     40  C   UNL     1      -5.028  -2.154 127.226  0.00  0.00    +0.000 C 
BRANCH  40  41
ATOM     41  C   UNL     1      -6.184  -2.422 126.277  0.00  0.00    +0.000 A 
ATOM     42  C   UNL     1      -7.436  -2.835 126.774  0.00  0.00    +0.000 A 
ATOM     43  C   UNL     1      -8.488  -3.191 125.883  0.00  0.00    +0.000 A 
ATOM     44  C   UNL     1      -8.287  -3.161 124.458  0.00  0.00    +0.000 A 
ATOM     45 CL   UNL     1      -9.686  -3.213 123.393  0.00  0.00    +0.000 Cl
ATOM     46  C   UNL     1      -7.057  -2.648 123.962  0.00  0.00    +0.000 A 
ATOM     47 CL   UNL     1      -6.912  -2.009 122.339  0.00  0.00    +0.000 Cl
ATOM     48  C   UNL     1      -6.028  -2.281 124.871  0.00  0.00    +0.000 A 
ENDBRANCH  40  41
ENDBRANCH  34  40
ENDBRANCH  32  34
ENDBRANCH  29  30
ENDBRANCH  10  29
TORSDOF 13
ENDMDL
MODEL 8
REMARK VINA RESULT:      -8.4      3.004      3.977
REMARK  Name = CHEMBL278619
REMARK  14 active torsions:
REMARK  status: ('A' for Active; 'I' for Inactive)
REMARK    1  A    between atoms: C_1  and  C_2
REMARK    2  A    between atoms: C_2  and  C_4
REMARK    3  A    between atoms: C_4  and  C_5
REMARK    4  A    between atoms: C_5  and  C_6
REMARK    5  A    between atoms: C_6  and  C_7
REMARK    6  A    between atoms: N_9  and  C_10
REMARK    7  A    between atoms: C_12  and  C_13
REMARK    8  A    between atoms: C_13  and  N_14
REMARK    9  A    between atoms: N_25  and  C_26
REMARK   10  A    between atoms: C_26  and  C_27
REMARK   11  A    between atoms: N_29  and  C_30
REMARK   12  A    between atoms: C_30  and  C_31
REMARK   13  A    between atoms: C_30  and  C_40
REMARK   14  A    between atoms: C_31  and  C_32
REMARK                            x       y       z     vdW  Elec       q    Type
REMARK                         _______ _______ _______ _____ _____    ______ ____
ROOT
ATOM      1  C   UNL     1      -8.204   4.751 130.115  0.00  0.00    +0.000 C 
ATOM      2  N   UNL     1      -6.989   5.555 130.292  0.00  0.00    +0.000 NA
ATOM      3  C   UNL     1      -5.971   5.011 130.869  0.00  0.00    +0.000 C 
ATOM      4  C   UNL     1      -5.960   3.638 131.260  0.00  0.00    +0.000 A 
ATOM      5  C   UNL     1      -5.293   3.341 132.453  0.00  0.00    +0.000 A 
ATOM      6  C   UNL     1      -5.121   2.046 132.690  0.00  0.00    +0.000 A 
ATOM      7  C   UNL     1      -5.846   1.222 131.856  0.00  0.00    +0.000 A 
ATOM      8  C   UNL     1      -6.759   1.464 130.891  0.00  0.00    +0.000 A 
ATOM      9  C   UNL     1      -6.566   2.684 130.407  0.00  0.00    +0.000 A 
ATOM     10  N   UNL     1      -6.965   2.880 129.076  0.00  0.00    +0.000 N 
ATOM     11  C   UNL     1      -7.966   3.818 128.883  0.00  0.00    +0.000 C 
ATOM     12  O   UNL     1      -8.621   3.879 127.843  0.00  0.00    +0.000 OA
ENDROOT
BRANCH   1  15
ATOM     13  C   UNL     1      -9.718   6.532 130.750  0.00  0.00    +0.000 C 
ATOM     14  O   UNL     1      -9.310   6.543 131.909  0.00  0.00    +0.000 OA
ATOM     15  N   UNL     1      -9.270   5.646 129.811  0.00  0.00    +0.000 N 
ATOM     16  H   UNL     1      -9.565   5.664 128.847  0.00  0.00    +0.000 HD
BRANCH  13  17
ATOM     17  C   UNL     1     -10.785   7.473 130.230  0.00  0.00    +0.000 C 
BRANCH  17  18
ATOM     18  C   UNL     1     -11.160   7.091 128.803  0.00  0.00    +0.000 C 
BRANCH  18  19
ATOM     19  C   UNL     1     -10.837   8.174 127.781  0.00  0.00    +0.000 C 
BRANCH  19  21
ATOM     20  C   UNL     1     -12.621   7.013 126.320  0.00  0.00    +0.000 C 
ATOM     21  C   UNL     1     -11.321   7.765 126.396  0.00  0.00    +0.000 C 
ATOM     22  O   UNL     1     -10.696   8.027 125.369  0.00  0.00    +0.000 OA
ENDBRANCH  19  21
ENDBRANCH  18  19
ENDBRANCH  17  18
ENDBRANCH  13  17
ENDBRANCH   1  15
BRANCH   3  23
ATOM     23  C   UNL     1      -4.684   5.738 131.198  0.00  0.00    +0.000 C 
BRANCH  23  24
ATOM     24  N   UNL     1      -4.235   6.448 130.050  0.00  0.00    +0.000 N 
ATOM     25  C   UNL     1      -3.655   5.865 128.963  0.00  0.00    +0.000 A 
ATOM     26  C   UNL     1      -3.232   6.931 128.218  0.00  0.00    +0.000 A 
ATOM     27  N   UNL     1      -3.577   8.124 128.812  0.00  0.00    +0.000 NA
ATOM     28  C   UNL     1      -4.170   7.794 129.934  0.00  0.00    +0.000 A 
ENDBRANCH  23  24
ENDBRANCH   3  23
BRANCH  10  29
ATOM     29  C   UNL     1      -6.695   1.829 128.052  0.00  0.00    +0.000 C 
BRANCH  29  30
ATOM     30  C   UNL     1      -5.964   2.235 126.733  0.00  0.00    +0.000 C 
ATOM     31  O   UNL     1      -4.729   2.135 126.574  0.00  0.00    +0.000 OA
ATOM     32  N   UNL     1      -6.732   2.727 125.707  0.00  0.00    +0.000 N 
ATOM     33  H   UNL     1      -7.553   3.253 125.978  0.00  0.00    +0.000 HD
BRANCH  32  34
ATOM     34  C   UNL     1      -6.123   2.956 124.378  0.00  0.00    +0.000 C 
BRANCH  34  35
ATOM     35  C   UNL     1      -5.878   4.453 124.043  0.00  0.00    +0.000 C 
ATOM     36  N   UNL     1      -6.324   5.402 124.917  0.00  0.00    +0.000 N 
ATOM     37  O   UNL     1      -5.299   4.819 123.021  0.00  0.00    +0.000 OA
ATOM     38  H   UNL     1      -6.779   5.241 125.797  0.00  0.00    +0.000 HD
ATOM     39  H   UNL     1      -6.154   6.370 124.667  0.00  0.00    +0.000 HD
ENDBRANCH  34  35
BRANCH  34  40
ATOM     40  C   UNL     1      -6.993   2.364 123.227  0.00  0.00    +0.000 C 
BRANCH  40  41
ATOM     41  C   UNL     1      -7.613   0.977 123.287  0.00  0.00    +0.000 A 
ATOM     42  C   UNL     1      -8.994   0.801 123.069  0.00  0.00    +0.000 A 
ATOM     43  C   UNL     1      -9.595  -0.480 123.229  0.00  0.00    +0.000 A 
ATOM     44  C   UNL     1      -8.811  -1.614 123.642  0.00  0.00    +0.000 A 
ATOM     45 CL   UNL     1      -9.475  -3.231 123.447  0.00  0.00    +0.000 Cl
ATOM     46  C   UNL     1      -7.404  -1.452 123.761  0.00  0.00    +0.000 A 
ATOM     47 CL   UNL     1      -6.307  -2.813 123.659  0.00  0.00    +0.000 Cl
ATOM     48  C   UNL     1      -6.823  -0.168 123.577  0.00  0.00    +0.000 A 
ENDBRANCH  40  41
ENDBRANCH  34  40
ENDBRANCH  32  34
ENDBRANCH  29  30
ENDBRANCH  10  29
TORSDOF 13
ENDMDL
MODEL 9
REMARK VINA RESULT:      -8.3      2.835      5.538
REMARK  Name = CHEMBL278619
REMARK  14 active torsions:
REMARK  status: ('A' for Active; 'I' for Inactive)
REMARK    1  A    between atoms: C_1  and  C_2
REMARK    2  A    between atoms: C_2  and  C_4
REMARK    3  A    between atoms: C_4  and  C_5
REMARK    4  A    between atoms: C_5  and  C_6
REMARK    5  A    between atoms: C_6  and  C_7
REMARK    6  A    between atoms: N_9  and  C_10
REMARK    7  A    between atoms: C_12  and  C_13
REMARK    8  A    between atoms: C_13  and  N_14
REMARK    9  A    between atoms: N_25  and  C_26
REMARK   10  A    between atoms: C_26  and  C_27
REMARK   11  A    between atoms: N_29  and  C_30
REMARK   12  A    between atoms: C_30  and  C_31
REMARK   13  A    between atoms: C_30  and  C_40
REMARK   14  A    between atoms: C_31  and  C_32
REMARK                            x       y       z     vdW  Elec       q    Type
REMARK                         _______ _______ _______ _____ _____    ______ ____
ROOT
ATOM      1  C   UNL     1      -7.897   3.114 128.220  0.00  0.00    +0.000 C 
ATOM      2  N   UNL     1      -8.497   3.039 126.884  0.00  0.00    +0.000 NA
ATOM      3  C   UNL     1      -7.730   3.185 125.856  0.00  0.00    +0.000 C 
ATOM      4  C   UNL     1      -6.315   3.329 125.976  0.00  0.00    +0.000 A 
ATOM      5  C   UNL     1      -5.704   4.198 125.068  0.00  0.00    +0.000 A 
ATOM      6  C   UNL     1      -4.376   4.162 125.064  0.00  0.00    +0.000 A 
ATOM      7  C   UNL     1      -3.832   3.466 126.123  0.00  0.00    +0.000 A 
ATOM      8  C   UNL     1      -4.372   2.877 127.211  0.00  0.00    +0.000 A 
ATOM      9  C   UNL     1      -5.634   2.559 126.950  0.00  0.00    +0.000 A 
ATOM     10  N   UNL     1      -6.144   1.462 127.661  0.00  0.00    +0.000 N 
ATOM     11  C   UNL     1      -7.213   1.735 128.498  0.00  0.00    +0.000 C 
ATOM     12  O   UNL     1      -7.562   0.967 129.394  0.00  0.00    +0.000 OA
ENDROOT
BRANCH   1  15
ATOM     13  C   UNL     1      -8.766   4.064 130.272  0.00  0.00    +0.000 C 
ATOM     14  O   UNL     1      -7.678   4.546 130.577  0.00  0.00    +0.000 OA
ATOM     15  N   UNL     1      -8.954   3.296 129.157  0.00  0.00    +0.000 N 
ATOM     16  H   UNL     1      -9.854   2.939 128.875  0.00  0.00    +0.000 HD
BRANCH  13  17
ATOM     17  C   UNL     1     -10.019   4.233 131.106  0.00  0.00    +0.000 C 
BRANCH  17  18
ATOM     18  C   UNL     1     -11.002   5.145 130.380  0.00  0.00    +0.000 C 
BRANCH  18  19
ATOM     19  C   UNL     1     -10.517   6.584 130.259  0.00  0.00    +0.000 C 
BRANCH  19  21
ATOM     20  C   UNL     1     -10.658   8.345 128.377  0.00  0.00    +0.000 C 
ATOM     21  C   UNL     1     -10.286   6.951 128.800  0.00  0.00    +0.000 C 
ATOM     22  O   UNL     1      -9.814   6.161 127.982  0.00  0.00    +0.000 OA
ENDBRANCH  19  21
ENDBRANCH  18  19
ENDBRANCH  17  18
ENDBRANCH  13  17
ENDBRANCH   1  15
BRANCH   3  23
ATOM     23  C   UNL     1      -8.216   3.218 124.423  0.00  0.00    +0.000 C 
BRANCH  23  24
ATOM     24  N   UNL     1      -8.681   1.926 124.050  0.00  0.00    +0.000 N 
ATOM     25  C   UNL     1      -7.877   0.920 123.604  0.00  0.00    +0.000 A 
ATOM     26  C   UNL     1      -8.763  -0.041 123.201  0.00  0.00    +0.000 A 
ATOM     27  N   UNL     1     -10.063   0.352 123.430  0.00  0.00    +0.000 NA
ATOM     28  C   UNL     1      -9.977   1.561 123.931  0.00  0.00    +0.000 A 
ENDBRANCH  23  24
ENDBRANCH   3  23
BRANCH  10  29
ATOM     29  C   UNL     1      -5.299   0.250 127.872  0.00  0.00    +0.000 C 
BRANCH  29  30
ATOM     30  C   UNL     1      -5.838  -1.135 127.391  0.00  0.00    +0.000 C 
ATOM     31  O   UNL     1      -5.105  -2.129 127.204  0.00  0.00    +0.000 OA
ATOM     32  N   UNL     1      -7.187  -1.246 127.162  0.00  0.00    +0.000 N 
ATOM     33  H   UNL     1      -7.653  -0.412 126.829  0.00  0.00    +0.000 HD
BRANCH  32  34
ATOM     34  C   UNL     1      -7.777  -2.574 126.882  0.00  0.00    +0.000 C 
BRANCH  34  35
ATOM     35  C   UNL     1      -8.876  -2.560 125.784  0.00  0.00    +0.000 C 
ATOM     36  N   UNL     1      -8.688  -3.309 124.659  0.00  0.00    +0.000 N 
ATOM     37  O   UNL     1      -9.909  -1.900 125.886  0.00  0.00    +0.000 OA
ATOM     38  H   UNL     1      -7.911  -3.915 124.464  0.00  0.00    +0.000 HD
ATOM     39  H   UNL     1      -9.420  -3.274 123.958  0.00  0.00    +0.000 HD
ENDBRANCH  34  35
BRANCH  34  40
ATOM     40  C   UNL     1      -8.410  -3.212 128.157  0.00  0.00    +0.000 C 
BRANCH  40  41
ATOM     41  C   UNL     1      -7.764  -3.132 129.531  0.00  0.00    +0.000 A 
ATOM     42  C   UNL     1      -8.144  -2.127 130.442  0.00  0.00    +0.000 A 
ATOM     43  C   UNL     1      -7.466  -1.984 131.686  0.00  0.00    +0.000 A 
ATOM     44  C   UNL     1      -6.364  -2.845 132.028  0.00  0.00    +0.000 A 
ATOM     45 CL   UNL     1      -5.816  -2.914 133.698  0.00  0.00    +0.000 Cl
ATOM     46  C   UNL     1      -6.053  -3.919 131.151  0.00  0.00    +0.000 A 
ATOM     47 CL   UNL     1      -5.191  -5.340 131.702  0.00  0.00    +0.000 Cl
ATOM     48  C   UNL     1      -6.756  -4.055 129.923  0.00  0.00    +0.000 A 
ENDBRANCH  40  41
ENDBRANCH  34  40
ENDBRANCH  32  34
ENDBRANCH  29  30
ENDBRANCH  10  29
TORSDOF 13
ENDMDL
