MODEL 1
REMARK VINA RESULT:     -10.0      0.000      0.000
REMARK  Name = CHEMBL590175
REMARK  7 active torsions:
REMARK  status: ('A' for Active; 'I' for Inactive)
REMARK    1  A    between atoms: C_1  and  C_2
REMARK    2  A    between atoms: C_4  and  C_5
REMARK    3  A    between atoms: C_23  and  C_24
REMARK    4  A    between atoms: C_24  and  N_25
REMARK    5  A    between atoms: C_32  and  C_33
REMARK    6  A    between atoms: C_33  and  N_35
REMARK    7  A    between atoms: N_39  and  C_40
REMARK                            x       y       z     vdW  Elec       q    Type
REMARK                         _______ _______ _______ _____ _____    ______ ____
ROOT
ATOM      1  C   UNL     1      -5.258   2.239 131.166  0.00  0.00    +0.000 C 
ATOM      2  C   UNL     1      -6.730   2.359 130.930  0.00  0.00    +0.000 A 
ATOM      3  C   UNL     1      -7.131   3.422 130.068  0.00  0.00    +0.000 A 
ATOM      4  C   UNL     1      -8.466   3.684 129.751  0.00  0.00    +0.000 A 
ATOM      5  C   UNL     1      -9.356   2.703 130.169  0.00  0.00    +0.000 A 
ATOM      6  C   UNL     1      -9.007   1.698 131.110  0.00  0.00    +0.000 A 
ATOM      7  C   UNL     1      -7.678   1.507 131.537  0.00  0.00    +0.000 A 
ENDROOT
BRANCH   4   8
ATOM      8  C   UNL     1      -8.805   4.880 128.866  0.00  0.00    +0.000 C 
ATOM      9  O   UNL     1      -8.601   4.726 127.656  0.00  0.00    +0.000 OA
ATOM     10  N   UNL     1      -9.436   6.063 129.335  0.00  0.00    +0.000 N 
ATOM     11  C   UNL     1     -10.242   6.811 128.385  0.00  0.00    +0.000 C 
ATOM     12  C   UNL     1     -11.344   7.607 129.037  0.00  0.00    +0.000 A 
ATOM     13  C   UNL     1     -11.995   8.713 128.517  0.00  0.00    +0.000 A 
ATOM     14  C   UNL     1     -12.862   9.218 129.509  0.00  0.00    +0.000 A 
ATOM     15  C   UNL     1     -12.751   8.396 130.607  0.00  0.00    +0.000 A 
ATOM     16  N   UNL     1     -11.845   7.401 130.317  0.00  0.00    +0.000 N 
ATOM     17  C   UNL     1     -11.436   6.352 131.271  0.00  0.00    +0.000 C 
ATOM     18  C   UNL     1      -9.957   6.410 131.569  0.00  0.00    +0.000 A 
ATOM     19  C   UNL     1      -9.332   5.773 132.640  0.00  0.00    +0.000 A 
ATOM     20  C   UNL     1      -7.930   5.773 132.739  0.00  0.00    +0.000 A 
ATOM     21  C   UNL     1      -7.189   6.627 131.936  0.00  0.00    +0.000 A 
ATOM     22  C   UNL     1      -7.813   7.176 130.833  0.00  0.00    +0.000 A 
ATOM     23  C   UNL     1      -9.108   6.766 130.539  0.00  0.00    +0.000 A 
ENDBRANCH   4   8
BRANCH   7  24
ATOM     24  C   UNL     1      -7.397   0.382 132.567  0.00  0.00    +0.000 C 
BRANCH  24  25
ATOM     25  N   UNL     1      -6.620  -0.781 132.105  0.00  0.00    +0.000 N 
ATOM     26  C   UNL     1      -6.207  -1.836 132.885  0.00  0.00    +0.000 C 
ATOM     27  O   UNL     1      -6.353  -1.854 134.083  0.00  0.00    +0.000 OA
ATOM     28  N   UNL     1      -5.734  -2.915 132.116  0.00  0.00    +0.000 N 
ATOM     29  C   UNL     1      -5.051  -2.893 130.822  0.00  0.00    +0.000 C 
ATOM     30  C   UNL     1      -5.469  -4.201 130.174  0.00  0.00    +0.000 C 
ATOM     31  C   UNL     1      -5.463  -5.154 131.357  0.00  0.00    +0.000 C 
ATOM     32  C   UNL     1      -5.767  -4.304 132.618  0.00  0.00    +0.000 C 
ATOM     33  H   UNL     1      -6.887  -1.179 131.242  0.00  0.00    +0.000 HD
BRANCH  32  34
ATOM     34  C   UNL     1      -4.776  -4.688 133.772  0.00  0.00    +0.000 C 
ATOM     35  S   UNL     1      -3.104  -4.485 133.641  0.00  0.00    +0.000 S 
BRANCH  34  36
ATOM     36  N   UNL     1      -5.376  -5.192 134.943  0.00  0.00    +0.000 N 
ATOM     37  C   UNL     1      -6.770  -5.639 134.890  0.00  0.00    +0.000 C 
ATOM     38  C   UNL     1      -7.780  -4.728 135.589  0.00  0.00    +0.000 C 
ATOM     39  C   UNL     1      -7.630  -4.796 137.112  0.00  0.00    +0.000 C 
ATOM     40  N   UNL     1      -6.715  -3.798 137.683  0.00  0.00    +0.000 NA
ATOM     41  C   UNL     1      -7.421  -2.527 137.873  0.00  0.00    +0.000 C 
ATOM     42  C   UNL     1      -5.492  -3.579 136.883  0.00  0.00    +0.000 C 
ATOM     43  C   UNL     1      -4.868  -4.867 136.295  0.00  0.00    +0.000 C 
ENDBRANCH  34  36
ENDBRANCH  32  34
ENDBRANCH  24  25
ENDBRANCH   7  24
TORSDOF 5
ENDMDL
MODEL 2
REMARK VINA RESULT:      -9.8      1.614      2.182
REMARK  Name = CHEMBL590175
REMARK  7 active torsions:
REMARK  status: ('A' for Active; 'I' for Inactive)
REMARK    1  A    between atoms: C_1  and  C_2
REMARK    2  A    between atoms: C_4  and  C_5
REMARK    3  A    between atoms: C_23  and  C_24
REMARK    4  A    between atoms: C_24  and  N_25
REMARK    5  A    between atoms: C_32  and  C_33
REMARK    6  A    between atoms: C_33  and  N_35
REMARK    7  A    between atoms: N_39  and  C_40
REMARK                            x       y       z     vdW  Elec       q    Type
REMARK                         _______ _______ _______ _____ _____    ______ ____
ROOT
ATOM      1  C   UNL     1      -5.379   2.029 131.349  0.00  0.00    +0.000 C 
ATOM      2  C   UNL     1      -6.837   2.193 131.063  0.00  0.00    +0.000 A 
ATOM      3  C   UNL     1      -7.178   3.279 130.203  0.00  0.00    +0.000 A 
ATOM      4  C   UNL     1      -8.493   3.581 129.843  0.00  0.00    +0.000 A 
ATOM      5  C   UNL     1      -9.424   2.619 130.214  0.00  0.00    +0.000 A 
ATOM      6  C   UNL     1      -9.136   1.591 131.151  0.00  0.00    +0.000 A 
ATOM      7  C   UNL     1      -7.829   1.358 131.623  0.00  0.00    +0.000 A 
ENDROOT
BRANCH   4   8
ATOM      8  C   UNL     1      -8.768   4.799 128.964  0.00  0.00    +0.000 C 
ATOM      9  O   UNL     1      -8.511   4.661 127.762  0.00  0.00    +0.000 OA
ATOM     10  N   UNL     1      -9.397   5.986 129.425  0.00  0.00    +0.000 N 
ATOM     11  C   UNL     1     -10.144   6.766 128.452  0.00  0.00    +0.000 C 
ATOM     12  C   UNL     1     -11.260   7.572 129.066  0.00  0.00    +0.000 A 
ATOM     13  C   UNL     1     -11.864   8.700 128.535  0.00  0.00    +0.000 A 
ATOM     14  C   UNL     1     -12.767   9.205 129.496  0.00  0.00    +0.000 A 
ATOM     15  C   UNL     1     -12.723   8.362 130.582  0.00  0.00    +0.000 A 
ATOM     16  N   UNL     1     -11.824   7.355 130.317  0.00  0.00    +0.000 N 
ATOM     17  C   UNL     1     -11.479   6.282 131.271  0.00  0.00    +0.000 C 
ATOM     18  C   UNL     1     -10.015   6.306 131.638  0.00  0.00    +0.000 A 
ATOM     19  C   UNL     1      -9.453   5.638 132.725  0.00  0.00    +0.000 A 
ATOM     20  C   UNL     1      -8.058   5.608 132.889  0.00  0.00    +0.000 A 
ATOM     21  C   UNL     1      -7.264   6.461 132.136  0.00  0.00    +0.000 A 
ATOM     22  C   UNL     1      -7.825   7.041 131.016  0.00  0.00    +0.000 A 
ATOM     23  C   UNL     1      -9.112   6.662 130.654  0.00  0.00    +0.000 A 
ENDBRANCH   4   8
BRANCH   7  24
ATOM     24  C   UNL     1      -7.616   0.212 132.645  0.00  0.00    +0.000 C 
BRANCH  24  25
ATOM     25  N   UNL     1      -6.752  -0.908 132.236  0.00  0.00    +0.000 N 
ATOM     26  C   UNL     1      -6.441  -2.008 133.001  0.00  0.00    +0.000 C 
ATOM     27  O   UNL     1      -6.767  -2.106 134.160  0.00  0.00    +0.000 OA
ATOM     28  N   UNL     1      -5.832  -3.028 132.249  0.00  0.00    +0.000 N 
ATOM     29  C   UNL     1      -4.960  -2.914 131.079  0.00  0.00    +0.000 C 
ATOM     30  C   UNL     1      -5.246  -4.181 130.293  0.00  0.00    +0.000 C 
ATOM     31  C   UNL     1      -5.399  -5.209 131.400  0.00  0.00    +0.000 C 
ATOM     32  C   UNL     1      -5.911  -4.448 132.651  0.00  0.00    +0.000 C 
ATOM     33  H   UNL     1      -6.876  -1.253 131.318  0.00  0.00    +0.000 HD
BRANCH  32  34
ATOM     34  C   UNL     1      -5.100  -4.894 133.917  0.00  0.00    +0.000 C 
ATOM     35  S   UNL     1      -5.802  -5.753 135.192  0.00  0.00    +0.000 S 
BRANCH  34  36
ATOM     36  N   UNL     1      -3.732  -4.554 133.912  0.00  0.00    +0.000 N 
ATOM     37  C   UNL     1      -2.735  -5.627 133.861  0.00  0.00    +0.000 C 
ATOM     38  C   UNL     1      -1.965  -5.869 135.159  0.00  0.00    +0.000 C 
ATOM     39  C   UNL     1      -0.983  -4.728 135.445  0.00  0.00    +0.000 C 
ATOM     40  N   UNL     1      -1.530  -3.641 136.270  0.00  0.00    +0.000 NA
ATOM     41  C   UNL     1      -1.433  -3.996 137.689  0.00  0.00    +0.000 C 
ATOM     42  C   UNL     1      -2.924  -3.280 135.936  0.00  0.00    +0.000 C 
ATOM     43  C   UNL     1      -3.238  -3.256 134.421  0.00  0.00    +0.000 C 
ENDBRANCH  34  36
ENDBRANCH  32  34
ENDBRANCH  24  25
ENDBRANCH   7  24
TORSDOF 5
ENDMDL
MODEL 3
REMARK VINA RESULT:      -9.6      2.652     10.972
REMARK  Name = CHEMBL590175
REMARK  7 active torsions:
REMARK  status: ('A' for Active; 'I' for Inactive)
REMARK    1  A    between atoms: C_1  and  C_2
REMARK    2  A    between atoms: C_4  and  C_5
REMARK    3  A    between atoms: C_23  and  C_24
REMARK    4  A    between atoms: C_24  and  N_25
REMARK    5  A    between atoms: C_32  and  C_33
REMARK    6  A    between atoms: C_33  and  N_35
REMARK    7  A    between atoms: N_39  and  C_40
REMARK                            x       y       z     vdW  Elec       q    Type
REMARK                         _______ _______ _______ _____ _____    ______ ____
ROOT
ATOM      1  C   UNL     1      -4.562   2.118 133.004  0.00  0.00    +0.000 C 
ATOM      2  C   UNL     1      -4.489   1.255 131.784  0.00  0.00    +0.000 A 
ATOM      3  C   UNL     1      -4.364  -0.145 132.027  0.00  0.00    +0.000 A 
ATOM      4  C   UNL     1      -4.271  -1.090 131.003  0.00  0.00    +0.000 A 
ATOM      5  C   UNL     1      -4.522  -0.585 129.734  0.00  0.00    +0.000 A 
ATOM      6  C   UNL     1      -4.545   0.807 129.450  0.00  0.00    +0.000 A 
ATOM      7  C   UNL     1      -4.509   1.776 130.472  0.00  0.00    +0.000 A 
ENDROOT
BRANCH   4   8
ATOM      8  C   UNL     1      -4.080  -2.562 131.357  0.00  0.00    +0.000 C 
ATOM      9  O   UNL     1      -2.952  -3.023 131.142  0.00  0.00    +0.000 OA
ATOM     10  N   UNL     1      -5.059  -3.356 132.012  0.00  0.00    +0.000 N 
ATOM     11  C   UNL     1      -4.585  -4.464 132.825  0.00  0.00    +0.000 C 
ATOM     12  C   UNL     1      -5.527  -4.826 133.945  0.00  0.00    +0.000 A 
ATOM     13  C   UNL     1      -5.605  -6.037 134.611  0.00  0.00    +0.000 A 
ATOM     14  C   UNL     1      -6.705  -5.981 135.494  0.00  0.00    +0.000 A 
ATOM     15  C   UNL     1      -7.261  -4.728 135.376  0.00  0.00    +0.000 A 
ATOM     16  N   UNL     1      -6.534  -4.014 134.451  0.00  0.00    +0.000 N 
ATOM     17  C   UNL     1      -6.859  -2.636 134.030  0.00  0.00    +0.000 C 
ATOM     18  C   UNL     1      -7.169  -2.559 132.554  0.00  0.00    +0.000 A 
ATOM     19  C   UNL     1      -7.799  -1.486 131.926  0.00  0.00    +0.000 A 
ATOM     20  C   UNL     1      -7.906  -1.454 130.525  0.00  0.00    +0.000 A 
ATOM     21  C   UNL     1      -7.635  -2.601 129.794  0.00  0.00    +0.000 A 
ATOM     22  C   UNL     1      -6.933  -3.613 130.419  0.00  0.00    +0.000 A 
ATOM     23  C   UNL     1      -6.457  -3.384 131.704  0.00  0.00    +0.000 A 
ENDBRANCH   4   8
BRANCH   7  24
ATOM     24  C   UNL     1      -4.539   3.271 130.062  0.00  0.00    +0.000 C 
BRANCH  24  25
ATOM     25  N   UNL     1      -5.463   4.155 130.792  0.00  0.00    +0.000 N 
ATOM     26  C   UNL     1      -6.836   4.124 130.717  0.00  0.00    +0.000 C 
ATOM     27  O   UNL     1      -7.428   3.421 129.934  0.00  0.00    +0.000 OA
ATOM     28  N   UNL     1      -7.444   4.890 131.728  0.00  0.00    +0.000 N 
ATOM     29  C   UNL     1      -6.960   6.111 132.374  0.00  0.00    +0.000 C 
ATOM     30  C   UNL     1      -7.546   6.033 133.772  0.00  0.00    +0.000 C 
ATOM     31  C   UNL     1      -8.925   5.455 133.503  0.00  0.00    +0.000 C 
ATOM     32  C   UNL     1      -8.807   4.597 132.216  0.00  0.00    +0.000 C 
ATOM     33  H   UNL     1      -5.255   4.327 131.742  0.00  0.00    +0.000 HD
BRANCH  32  34
ATOM     34  C   UNL     1     -10.009   4.906 131.256  0.00  0.00    +0.000 C 
ATOM     35  S   UNL     1     -10.839   3.695 130.419  0.00  0.00    +0.000 S 
BRANCH  34  36
ATOM     36  N   UNL     1     -10.372   6.264 131.157  0.00  0.00    +0.000 N 
ATOM     37  C   UNL     1     -11.688   6.684 131.645  0.00  0.00    +0.000 C 
ATOM     38  C   UNL     1     -12.707   7.042 130.563  0.00  0.00    +0.000 C 
ATOM     39  C   UNL     1     -12.344   8.361 129.873  0.00  0.00    +0.000 C 
ATOM     40  N   UNL     1     -11.503   8.217 128.677  0.00  0.00    +0.000 NA
ATOM     41  C   UNL     1     -12.341   7.910 127.513  0.00  0.00    +0.000 C 
ATOM     42  C   UNL     1     -10.440   7.199 128.812  0.00  0.00    +0.000 C 
ATOM     43  C   UNL     1      -9.734   7.184 130.189  0.00  0.00    +0.000 C 
ENDBRANCH  34  36
ENDBRANCH  32  34
ENDBRANCH  24  25
ENDBRANCH   7  24
TORSDOF 5
ENDMDL
MODEL 4
REMARK VINA RESULT:      -9.6      5.871      9.073
REMARK  Name = CHEMBL590175
REMARK  7 active torsions:
REMARK  status: ('A' for Active; 'I' for Inactive)
REMARK    1  A    between atoms: C_1  and  C_2
REMARK    2  A    between atoms: C_4  and  C_5
REMARK    3  A    between atoms: C_23  and  C_24
REMARK    4  A    between atoms: C_24  and  N_25
REMARK    5  A    between atoms: C_32  and  C_33
REMARK    6  A    between atoms: C_33  and  N_35
REMARK    7  A    between atoms: N_39  and  C_40
REMARK                            x       y       z     vdW  Elec       q    Type
REMARK                         _______ _______ _______ _____ _____    ______ ____
ROOT
ATOM      1  C   UNL     1      -1.749   2.883 126.727  0.00  0.00    +0.000 C 
ATOM      2  C   UNL     1      -3.053   3.611 126.647  0.00  0.00    +0.000 A 
ATOM      3  C   UNL     1      -4.057   2.989 125.847  0.00  0.00    +0.000 A 
ATOM      4  C   UNL     1      -5.326   3.539 125.655  0.00  0.00    +0.000 A 
ATOM      5  C   UNL     1      -5.608   4.627 126.471  0.00  0.00    +0.000 A 
ATOM      6  C   UNL     1      -4.606   5.327 127.194  0.00  0.00    +0.000 A 
ATOM      7  C   UNL     1      -3.284   4.848 127.288  0.00  0.00    +0.000 A 
ENDROOT
BRANCH   4   8
ATOM      8  C   UNL     1      -6.317   2.833 124.733  0.00  0.00    +0.000 C 
ATOM      9  O   UNL     1      -6.616   3.443 123.700  0.00  0.00    +0.000 OA
ATOM     10  N   UNL     1      -6.790   1.509 124.939  0.00  0.00    +0.000 N 
ATOM     11  C   UNL     1      -7.184   0.751 123.764  0.00  0.00    +0.000 C 
ATOM     12  C   UNL     1      -7.044  -0.739 123.942  0.00  0.00    +0.000 A 
ATOM     13  C   UNL     1      -7.699  -1.730 123.230  0.00  0.00    +0.000 A 
ATOM     14  C   UNL     1      -7.369  -2.975 123.808  0.00  0.00    +0.000 A 
ATOM     15  C   UNL     1      -6.496  -2.728 124.842  0.00  0.00    +0.000 A 
ATOM     16  N   UNL     1      -6.278  -1.371 124.913  0.00  0.00    +0.000 N 
ATOM     17  C   UNL     1      -5.425  -0.724 125.930  0.00  0.00    +0.000 C 
ATOM     18  C   UNL     1      -6.208   0.238 126.791  0.00  0.00    +0.000 A 
ATOM     19  C   UNL     1      -5.771   0.759 128.007  0.00  0.00    +0.000 A 
ATOM     20  C   UNL     1      -6.517   1.759 128.654  0.00  0.00    +0.000 A 
ATOM     21  C   UNL     1      -7.809   2.029 128.229  0.00  0.00    +0.000 A 
ATOM     22  C   UNL     1      -8.185   1.573 126.981  0.00  0.00    +0.000 A 
ATOM     23  C   UNL     1      -7.222   0.959 126.189  0.00  0.00    +0.000 A 
ENDBRANCH   4   8
BRANCH   7  24
ATOM     24  C   UNL     1      -2.261   5.683 128.101  0.00  0.00    +0.000 C 
BRANCH  24  25
ATOM     25  N   UNL     1      -2.695   6.194 129.413  0.00  0.00    +0.000 N 
ATOM     26  C   UNL     1      -3.124   5.431 130.473  0.00  0.00    +0.000 C 
ATOM     27  O   UNL     1      -3.299   4.239 130.387  0.00  0.00    +0.000 OA
ATOM     28  N   UNL     1      -3.201   6.170 131.667  0.00  0.00    +0.000 N 
ATOM     29  C   UNL     1      -3.513   7.588 131.853  0.00  0.00    +0.000 C 
ATOM     30  C   UNL     1      -2.737   7.965 133.102  0.00  0.00    +0.000 C 
ATOM     31  C   UNL     1      -2.903   6.725 133.963  0.00  0.00    +0.000 C 
ATOM     32  C   UNL     1      -3.081   5.528 132.992  0.00  0.00    +0.000 C 
ATOM     33  H   UNL     1      -2.149   6.915 129.810  0.00  0.00    +0.000 HD
BRANCH  32  34
ATOM     34  C   UNL     1      -4.267   4.621 133.475  0.00  0.00    +0.000 C 
ATOM     35  S   UNL     1      -4.028   3.083 134.132  0.00  0.00    +0.000 S 
BRANCH  34  36
ATOM     36  N   UNL     1      -5.552   5.186 133.348  0.00  0.00    +0.000 N 
ATOM     37  C   UNL     1      -6.309   5.504 134.561  0.00  0.00    +0.000 C 
ATOM     38  C   UNL     1      -7.494   4.583 134.856  0.00  0.00    +0.000 C 
ATOM     39  C   UNL     1      -8.639   4.815 133.866  0.00  0.00    +0.000 C 
ATOM     40  N   UNL     1      -8.599   3.961 132.670  0.00  0.00    +0.000 NA
ATOM     41  C   UNL     1      -9.203   2.659 132.968  0.00  0.00    +0.000 C 
ATOM     42  C   UNL     1      -7.242   3.770 132.117  0.00  0.00    +0.000 C 
ATOM     43  C   UNL     1      -6.361   5.042 132.117  0.00  0.00    +0.000 C 
ENDBRANCH  34  36
ENDBRANCH  32  34
ENDBRANCH  24  25
ENDBRANCH   7  24
TORSDOF 5
ENDMDL
MODEL 5
REMARK VINA RESULT:      -9.5      2.788      5.208
REMARK  Name = CHEMBL590175
REMARK  7 active torsions:
REMARK  status: ('A' for Active; 'I' for Inactive)
REMARK    1  A    between atoms: C_1  and  C_2
REMARK    2  A    between atoms: C_4  and  C_5
REMARK    3  A    between atoms: C_23  and  C_24
REMARK    4  A    between atoms: C_24  and  N_25
REMARK    5  A    between atoms: C_32  and  C_33
REMARK    6  A    between atoms: C_33  and  N_35
REMARK    7  A    between atoms: N_39  and  C_40
REMARK                            x       y       z     vdW  Elec       q    Type
REMARK                         _______ _______ _______ _____ _____    ______ ____
ROOT
ATOM      1  C   UNL     1      -5.347   2.424 131.330  0.00  0.00    +0.000 C 
ATOM      2  C   UNL     1      -6.816   2.522 131.066  0.00  0.00    +0.000 A 
ATOM      3  C   UNL     1      -7.211   3.550 130.160  0.00  0.00    +0.000 A 
ATOM      4  C   UNL     1      -8.543   3.787 129.813  0.00  0.00    +0.000 A 
ATOM      5  C   UNL     1      -9.431   2.814 130.251  0.00  0.00    +0.000 A 
ATOM      6  C   UNL     1      -9.090   1.846 131.232  0.00  0.00    +0.000 A 
ATOM      7  C   UNL     1      -7.766   1.682 131.687  0.00  0.00    +0.000 A 
ENDROOT
BRANCH   4   8
ATOM      8  C   UNL     1      -8.878   4.949 128.880  0.00  0.00    +0.000 C 
ATOM      9  O   UNL     1      -8.675   4.746 127.677  0.00  0.00    +0.000 OA
ATOM     10  N   UNL     1      -9.505   6.152 129.302  0.00  0.00    +0.000 N 
ATOM     11  C   UNL     1     -10.309   6.864 128.323  0.00  0.00    +0.000 C 
ATOM     12  C   UNL     1     -11.408   7.689 128.941  0.00  0.00    +0.000 A 
ATOM     13  C   UNL     1     -12.055   8.776 128.377  0.00  0.00    +0.000 A 
ATOM     14  C   UNL     1     -12.921   9.323 129.348  0.00  0.00    +0.000 A 
ATOM     15  C   UNL     1     -12.813   8.544 130.478  0.00  0.00    +0.000 A 
ATOM     16  N   UNL     1     -11.911   7.536 130.228  0.00  0.00    +0.000 N 
ATOM     17  C   UNL     1     -11.505   6.525 131.224  0.00  0.00    +0.000 C 
ATOM     18  C   UNL     1     -10.026   6.590 131.520  0.00  0.00    +0.000 A 
ATOM     19  C   UNL     1      -9.404   5.993 132.616  0.00  0.00    +0.000 A 
ATOM     20  C   UNL     1      -8.002   5.992 132.715  0.00  0.00    +0.000 A 
ATOM     21  C   UNL     1      -7.258   6.812 131.879  0.00  0.00    +0.000 A 
ATOM     22  C   UNL     1      -7.879   7.318 130.755  0.00  0.00    +0.000 A 
ATOM     23  C   UNL     1      -9.175   6.901 130.477  0.00  0.00    +0.000 A 
ENDBRANCH   4   8
BRANCH   7  24
ATOM     24  C   UNL     1      -7.493   0.597 132.761  0.00  0.00    +0.000 C 
BRANCH  24  25
ATOM     25  N   UNL     1      -7.289  -0.784 132.291  0.00  0.00    +0.000 N 
ATOM     26  C   UNL     1      -7.296  -1.198 130.979  0.00  0.00    +0.000 C 
ATOM     27  O   UNL     1      -7.589  -0.463 130.068  0.00  0.00    +0.000 OA
ATOM     28  N   UNL     1      -6.801  -2.506 130.830  0.00  0.00    +0.000 N 
ATOM     29  C   UNL     1      -6.885  -3.634 131.759  0.00  0.00    +0.000 C 
ATOM     30  C   UNL     1      -5.627  -4.432 131.470  0.00  0.00    +0.000 C 
ATOM     31  C   UNL     1      -5.519  -4.313 129.959  0.00  0.00    +0.000 C 
ATOM     32  C   UNL     1      -6.189  -2.970 129.568  0.00  0.00    +0.000 C 
ATOM     33  H   UNL     1      -6.569  -1.299 132.727  0.00  0.00    +0.000 HD
BRANCH  32  34
ATOM     34  C   UNL     1      -7.133  -3.184 128.334  0.00  0.00    +0.000 C 
ATOM     35  S   UNL     1      -8.602  -4.012 128.444  0.00  0.00    +0.000 S 
BRANCH  34  36
ATOM     36  N   UNL     1      -6.687  -2.615 127.124  0.00  0.00    +0.000 N 
ATOM     37  C   UNL     1      -5.516  -1.735 127.143  0.00  0.00    +0.000 C 
ATOM     38  C   UNL     1      -5.807  -0.248 126.938  0.00  0.00    +0.000 C 
ATOM     39  C   UNL     1      -6.224   0.043 125.493  0.00  0.00    +0.000 C 
ATOM     40  N   UNL     1      -7.671  -0.015 125.248  0.00  0.00    +0.000 NA
ATOM     41  C   UNL     1      -8.291   1.261 125.618  0.00  0.00    +0.000 C 
ATOM     42  C   UNL     1      -8.353  -1.125 125.948  0.00  0.00    +0.000 C 
ATOM     43  C   UNL     1      -7.573  -2.461 125.949  0.00  0.00    +0.000 C 
ENDBRANCH  34  36
ENDBRANCH  32  34
ENDBRANCH  24  25
ENDBRANCH   7  24
TORSDOF 5
ENDMDL
MODEL 6
REMARK VINA RESULT:      -9.5      6.474     10.517
REMARK  Name = CHEMBL590175
REMARK  7 active torsions:
REMARK  status: ('A' for Active; 'I' for Inactive)
REMARK    1  A    between atoms: C_1  and  C_2
REMARK    2  A    between atoms: C_4  and  C_5
REMARK    3  A    between atoms: C_23  and  C_24
REMARK    4  A    between atoms: C_24  and  N_25
REMARK    5  A    between atoms: C_32  and  C_33
REMARK    6  A    between atoms: C_33  and  N_35
REMARK    7  A    between atoms: N_39  and  C_40
REMARK                            x       y       z     vdW  Elec       q    Type
REMARK                         _______ _______ _______ _____ _____    ______ ____
ROOT
ATOM      1  C   UNL     1      -5.159   7.582 130.549  0.00  0.00    +0.000 C 
ATOM      2  C   UNL     1      -5.865   6.645 131.477  0.00  0.00    +0.000 A 
ATOM      3  C   UNL     1      -7.289   6.724 131.467  0.00  0.00    +0.000 A 
ATOM      4  C   UNL     1      -8.101   5.930 132.279  0.00  0.00    +0.000 A 
ATOM      5  C   UNL     1      -7.428   4.912 132.942  0.00  0.00    +0.000 A 
ATOM      6  C   UNL     1      -6.013   4.872 133.055  0.00  0.00    +0.000 A 
ATOM      7  C   UNL     1      -5.183   5.756 132.337  0.00  0.00    +0.000 A 
ENDROOT
BRANCH   4   8
ATOM      8  C   UNL     1      -9.615   6.125 132.243  0.00  0.00    +0.000 C 
ATOM      9  O   UNL     1     -10.124   6.553 133.286  0.00  0.00    +0.000 OA
ATOM     10  N   UNL     1     -10.410   5.965 131.077  0.00  0.00    +0.000 N 
ATOM     11  C   UNL     1     -11.636   6.741 130.994  0.00  0.00    +0.000 C 
ATOM     12  C   UNL     1     -12.060   7.032 129.577  0.00  0.00    +0.000 A 
ATOM     13  C   UNL     1     -13.333   7.354 129.136  0.00  0.00    +0.000 A 
ATOM     14  C   UNL     1     -13.305   7.420 127.727  0.00  0.00    +0.000 A 
ATOM     15  C   UNL     1     -12.011   7.169 127.331  0.00  0.00    +0.000 A 
ATOM     16  N   UNL     1     -11.246   6.955 128.454  0.00  0.00    +0.000 N 
ATOM     17  C   UNL     1      -9.809   6.615 128.423  0.00  0.00    +0.000 C 
ATOM     18  C   UNL     1      -9.537   5.266 129.044  0.00  0.00    +0.000 A 
ATOM     19  C   UNL     1      -8.357   4.540 128.893  0.00  0.00    +0.000 A 
ATOM     20  C   UNL     1      -8.154   3.364 129.635  0.00  0.00    +0.000 A 
ATOM     21  C   UNL     1      -9.223   2.784 130.301  0.00  0.00    +0.000 A 
ATOM     22  C   UNL     1     -10.347   3.558 130.511  0.00  0.00    +0.000 A 
ATOM     23  C   UNL     1     -10.304   4.894 130.132  0.00  0.00    +0.000 A 
ENDBRANCH   4   8
BRANCH   7  24
ATOM     24  C   UNL     1      -3.649   5.633 132.527  0.00  0.00    +0.000 C 
BRANCH  24  25
ATOM     25  N   UNL     1      -3.076   6.171 133.773  0.00  0.00    +0.000 N 
ATOM     26  C   UNL     1      -2.477   7.401 133.920  0.00  0.00    +0.000 C 
ATOM     27  O   UNL     1      -2.258   8.132 132.984  0.00  0.00    +0.000 OA
ATOM     28  N   UNL     1      -2.284   7.743 135.270  0.00  0.00    +0.000 N 
ATOM     29  C   UNL     1      -2.019   6.867 136.412  0.00  0.00    +0.000 C 
ATOM     30  C   UNL     1      -2.646   7.604 137.582  0.00  0.00    +0.000 C 
ATOM     31  C   UNL     1      -2.311   9.050 137.259  0.00  0.00    +0.000 C 
ATOM     32  C   UNL     1      -2.201   9.149 135.715  0.00  0.00    +0.000 C 
ATOM     33  H   UNL     1      -3.600   6.033 134.598  0.00  0.00    +0.000 HD
BRANCH  32  34
ATOM     34  C   UNL     1      -0.921   9.966 135.322  0.00  0.00    +0.000 C 
ATOM     35  S   UNL     1       0.638   9.323 135.431  0.00  0.00    +0.000 S 
BRANCH  34  36
ATOM     36  N   UNL     1      -1.157  11.270 134.844  0.00  0.00    +0.000 N 
ATOM     37  C   UNL     1      -2.307  11.507 133.967  0.00  0.00    +0.000 C 
ATOM     38  C   UNL     1      -1.970  11.770 132.499  0.00  0.00    +0.000 C 
ATOM     39  C   UNL     1      -1.320  13.145 132.315  0.00  0.00    +0.000 C 
ATOM     40  N   UNL     1       0.147  13.145 132.389  0.00  0.00    +0.000 NA
ATOM     41  C   UNL     1       0.712  12.774 131.088  0.00  0.00    +0.000 C 
ATOM     42  C   UNL     1       0.694  12.264 133.443  0.00  0.00    +0.000 C 
ATOM     43  C   UNL     1      -0.090  12.293 134.777  0.00  0.00    +0.000 C 
ENDBRANCH  34  36
ENDBRANCH  32  34
ENDBRANCH  24  25
ENDBRANCH   7  24
TORSDOF 5
ENDMDL
MODEL 7
REMARK VINA RESULT:      -9.4      5.064      8.971
REMARK  Name = CHEMBL590175
REMARK  7 active torsions:
REMARK  status: ('A' for Active; 'I' for Inactive)
REMARK    1  A    between atoms: C_1  and  C_2
REMARK    2  A    between atoms: C_4  and  C_5
REMARK    3  A    between atoms: C_23  and  C_24
REMARK    4  A    between atoms: C_24  and  N_25
REMARK    5  A    between atoms: C_32  and  C_33
REMARK    6  A    between atoms: C_33  and  N_35
REMARK    7  A    between atoms: N_39  and  C_40
REMARK                            x       y       z     vdW  Elec       q    Type
REMARK                         _______ _______ _______ _____ _____    ______ ____
ROOT
ATOM      1  C   UNL     1      -7.428  -2.427 129.142  0.00  0.00    +0.000 C 
ATOM      2  C   UNL     1      -7.715  -0.997 128.812  0.00  0.00    +0.000 A 
ATOM      3  C   UNL     1      -8.266  -0.763 127.517  0.00  0.00    +0.000 A 
ATOM      4  C   UNL     1      -8.582   0.512 127.044  0.00  0.00    +0.000 A 
ATOM      5  C   UNL     1      -8.516   1.513 128.005  0.00  0.00    +0.000 A 
ATOM      6  C   UNL     1      -7.876   1.333 129.260  0.00  0.00    +0.000 A 
ATOM      7  C   UNL     1      -7.435   0.068 129.696  0.00  0.00    +0.000 A 
ENDROOT
BRANCH   4   8
ATOM      8  C   UNL     1      -9.114   0.673 125.622  0.00  0.00    +0.000 C 
ATOM      9  O   UNL     1     -10.337   0.537 125.488  0.00  0.00    +0.000 OA
ATOM     10  N   UNL     1      -8.320   1.080 124.517  0.00  0.00    +0.000 N 
ATOM     11  C   UNL     1      -8.992   1.778 123.433  0.00  0.00    +0.000 C 
ATOM     12  C   UNL     1      -8.083   2.708 122.671  0.00  0.00    +0.000 A 
ATOM     13  C   UNL     1      -8.262   3.179 121.381  0.00  0.00    +0.000 A 
ATOM     14  C   UNL     1      -7.114   3.916 121.020  0.00  0.00    +0.000 A 
ATOM     15  C   UNL     1      -6.267   3.910 122.104  0.00  0.00    +0.000 A 
ATOM     16  N   UNL     1      -6.862   3.195 123.119  0.00  0.00    +0.000 N 
ATOM     17  C   UNL     1      -6.231   2.939 124.429  0.00  0.00    +0.000 C 
ATOM     18  C   UNL     1      -6.038   1.463 124.680  0.00  0.00    +0.000 A 
ATOM     19  C   UNL     1      -5.209   0.921 125.661  0.00  0.00    +0.000 A 
ATOM     20  C   UNL     1      -5.217  -0.463 125.904  0.00  0.00    +0.000 A 
ATOM     21  C   UNL     1      -5.834  -1.312 124.997  0.00  0.00    +0.000 A 
ATOM     22  C   UNL     1      -6.717  -0.756 124.093  0.00  0.00    +0.000 A 
ATOM     23  C   UNL     1      -7.007   0.599 124.207  0.00  0.00    +0.000 A 
ENDBRANCH   4   8
BRANCH   7  24
ATOM     24  C   UNL     1      -6.748  -0.027 131.083  0.00  0.00    +0.000 C 
BRANCH  24  25
ATOM     25  N   UNL     1      -6.828   1.153 131.960  0.00  0.00    +0.000 N 
ATOM     26  C   UNL     1      -5.878   2.141 132.072  0.00  0.00    +0.000 C 
ATOM     27  O   UNL     1      -4.803   2.073 131.526  0.00  0.00    +0.000 OA
ATOM     28  N   UNL     1      -6.355   3.265 132.769  0.00  0.00    +0.000 N 
ATOM     29  C   UNL     1      -7.337   3.328 133.853  0.00  0.00    +0.000 C 
ATOM     30  C   UNL     1      -7.988   4.687 133.669  0.00  0.00    +0.000 C 
ATOM     31  C   UNL     1      -6.806   5.550 133.262  0.00  0.00    +0.000 C 
ATOM     32  C   UNL     1      -5.792   4.614 132.554  0.00  0.00    +0.000 C 
ATOM     33  H   UNL     1      -7.698   1.619 131.999  0.00  0.00    +0.000 HD
BRANCH  32  34
ATOM     34  C   UNL     1      -4.344   4.895 133.088  0.00  0.00    +0.000 C 
ATOM     35  S   UNL     1      -3.792   4.310 134.575  0.00  0.00    +0.000 S 
BRANCH  34  36
ATOM     36  N   UNL     1      -3.517   5.649 132.231  0.00  0.00    +0.000 N 
ATOM     37  C   UNL     1      -3.897   7.028 131.913  0.00  0.00    +0.000 C 
ATOM     38  C   UNL     1      -4.411   7.256 130.491  0.00  0.00    +0.000 C 
ATOM     39  C   UNL     1      -3.279   7.142 129.465  0.00  0.00    +0.000 C 
ATOM     40  N   UNL     1      -3.089   5.795 128.909  0.00  0.00    +0.000 NA
ATOM     41  C   UNL     1      -4.027   5.575 127.805  0.00  0.00    +0.000 C 
ATOM     42  C   UNL     1      -3.222   4.711 129.905  0.00  0.00    +0.000 C 
ATOM     43  C   UNL     1      -2.578   5.016 131.279  0.00  0.00    +0.000 C 
ENDBRANCH  34  36
ENDBRANCH  32  34
ENDBRANCH  24  25
ENDBRANCH   7  24
TORSDOF 5
ENDMDL
MODEL 8
REMARK VINA RESULT:      -9.3      5.518      8.701
REMARK  Name = CHEMBL590175
REMARK  7 active torsions:
REMARK  status: ('A' for Active; 'I' for Inactive)
REMARK    1  A    between atoms: C_1  and  C_2
REMARK    2  A    between atoms: C_4  and  C_5
REMARK    3  A    between atoms: C_23  and  C_24
REMARK    4  A    between atoms: C_24  and  N_25
REMARK    5  A    between atoms: C_32  and  C_33
REMARK    6  A    between atoms: C_33  and  N_35
REMARK    7  A    between atoms: N_39  and  C_40
REMARK                            x       y       z     vdW  Elec       q    Type
REMARK                         _______ _______ _______ _____ _____    ______ ____
ROOT
ATOM      1  C   UNL     1      -7.776   5.934 135.987  0.00  0.00    +0.000 C 
ATOM      2  C   UNL     1      -7.480   4.768 135.097  0.00  0.00    +0.000 A 
ATOM      3  C   UNL     1      -8.411   4.550 134.039  0.00  0.00    +0.000 A 
ATOM      4  C   UNL     1      -8.292   3.501 133.125  0.00  0.00    +0.000 A 
ATOM      5  C   UNL     1      -7.087   2.814 133.195  0.00  0.00    +0.000 A 
ATOM      6  C   UNL     1      -6.195   2.936 134.294  0.00  0.00    +0.000 A 
ATOM      7  C   UNL     1      -6.376   3.910 135.296  0.00  0.00    +0.000 A 
ENDROOT
BRANCH   4   8
ATOM      8  C   UNL     1      -9.369   3.310 132.059  0.00  0.00    +0.000 C 
ATOM      9  O   UNL     1     -10.057   2.289 132.170  0.00  0.00    +0.000 OA
ATOM     10  N   UNL     1      -9.684   4.275 131.066  0.00  0.00    +0.000 N 
ATOM     11  C   UNL     1     -11.043   4.283 130.551  0.00  0.00    +0.000 C 
ATOM     12  C   UNL     1     -11.481   5.635 130.047  0.00  0.00    +0.000 A 
ATOM     13  C   UNL     1     -12.496   5.901 129.143  0.00  0.00    +0.000 A 
ATOM     14  C   UNL     1     -12.479   7.283 128.860  0.00  0.00    +0.000 A 
ATOM     15  C   UNL     1     -11.476   7.844 129.617  0.00  0.00    +0.000 A 
ATOM     16  N   UNL     1     -10.881   6.849 130.358  0.00  0.00    +0.000 N 
ATOM     17  C   UNL     1      -9.734   7.066 131.263  0.00  0.00    +0.000 C 
ATOM     18  C   UNL     1      -8.524   6.271 130.836  0.00  0.00    +0.000 A 
ATOM     19  C   UNL     1      -7.224   6.492 131.287  0.00  0.00    +0.000 A 
ATOM     20  C   UNL     1      -6.196   5.599 130.938  0.00  0.00    +0.000 A 
ATOM     21  C   UNL     1      -6.414   4.667 129.934  0.00  0.00    +0.000 A 
ATOM     22  C   UNL     1      -7.720   4.408 129.568  0.00  0.00    +0.000 A 
ATOM     23  C   UNL     1      -8.737   5.019 130.290  0.00  0.00    +0.000 A 
ENDBRANCH   4   8
BRANCH   7  24
ATOM     24  C   UNL     1      -5.348   3.965 136.454  0.00  0.00    +0.000 C 
BRANCH  24  25
ATOM     25  N   UNL     1      -4.697   5.260 136.721  0.00  0.00    +0.000 N 
ATOM     26  C   UNL     1      -3.763   5.873 135.919  0.00  0.00    +0.000 C 
ATOM     27  O   UNL     1      -3.291   5.336 134.946  0.00  0.00    +0.000 OA
ATOM     28  N   UNL     1      -3.537   7.211 136.288  0.00  0.00    +0.000 N 
ATOM     29  C   UNL     1      -3.601   7.822 137.616  0.00  0.00    +0.000 C 
ATOM     30  C   UNL     1      -4.029   9.251 137.333  0.00  0.00    +0.000 C 
ATOM     31  C   UNL     1      -3.260   9.564 136.062  0.00  0.00    +0.000 C 
ATOM     32  C   UNL     1      -3.055   8.217 135.320  0.00  0.00    +0.000 C 
ATOM     33  H   UNL     1      -5.276   5.987 137.055  0.00  0.00    +0.000 HD
BRANCH  32  34
ATOM     34  C   UNL     1      -1.572   8.101 134.823  0.00  0.00    +0.000 C 
ATOM     35  S   UNL     1      -0.262   7.991 135.886  0.00  0.00    +0.000 S 
BRANCH  34  36
ATOM     36  N   UNL     1      -1.401   8.068 133.425  0.00  0.00    +0.000 N 
ATOM     37  C   UNL     1      -2.443   8.644 132.570  0.00  0.00    +0.000 C 
ATOM     38  C   UNL     1      -3.293   7.633 131.800  0.00  0.00    +0.000 C 
ATOM     39  C   UNL     1      -2.489   6.969 130.678  0.00  0.00    +0.000 C 
ATOM     40  N   UNL     1      -1.811   5.724 131.063  0.00  0.00    +0.000 NA
ATOM     41  C   UNL     1      -2.746   4.599 130.973  0.00  0.00    +0.000 C 
ATOM     42  C   UNL     1      -1.203   5.764 132.410  0.00  0.00    +0.000 C 
ATOM     43  C   UNL     1      -0.502   7.099 132.761  0.00  0.00    +0.000 C 
ENDBRANCH  34  36
ENDBRANCH  32  34
ENDBRANCH  24  25
ENDBRANCH   7  24
TORSDOF 5
ENDMDL
MODEL 9
REMARK VINA RESULT:      -9.3      4.873      9.106
REMARK  Name = CHEMBL590175
REMARK  7 active torsions:
REMARK  status: ('A' for Active; 'I' for Inactive)
REMARK    1  A    between atoms: C_1  and  C_2
REMARK    2  A    between atoms: C_4  and  C_5
REMARK    3  A    between atoms: C_23  and  C_24
REMARK    4  A    between atoms: C_24  and  N_25
REMARK    5  A    between atoms: C_32  and  C_33
REMARK    6  A    between atoms: C_33  and  N_35
REMARK    7  A    between atoms: N_39  and  C_40
REMARK                            x       y       z     vdW  Elec       q    Type
REMARK                         _______ _______ _______ _____ _____    ______ ____
ROOT
ATOM      1  C   UNL     1      -4.192  -0.374 131.071  0.00  0.00    +0.000 C 
ATOM      2  C   UNL     1      -5.611  -0.458 130.605  0.00  0.00    +0.000 A 
ATOM      3  C   UNL     1      -5.798  -0.991 129.296  0.00  0.00    +0.000 A 
ATOM      4  C   UNL     1      -7.054  -1.129 128.701  0.00  0.00    +0.000 A 
ATOM      5  C   UNL     1      -8.122  -0.903 129.561  0.00  0.00    +0.000 A 
ATOM      6  C   UNL     1      -7.972  -0.275 130.826  0.00  0.00    +0.000 A 
ATOM      7  C   UNL     1      -6.703  -0.013 131.382  0.00  0.00    +0.000 A 
ENDROOT
BRANCH   4   8
ATOM      8  C   UNL     1      -7.154  -1.656 127.272  0.00  0.00    +0.000 C 
ATOM      9  O   UNL     1      -7.051  -2.882 127.145  0.00  0.00    +0.000 OA
ATOM     10  N   UNL     1      -7.472  -0.849 126.147  0.00  0.00    +0.000 N 
ATOM     11  C   UNL     1      -8.131  -1.497 125.026  0.00  0.00    +0.000 C 
ATOM     12  C   UNL     1      -8.987  -0.558 124.215  0.00  0.00    +0.000 A 
ATOM     13  C   UNL     1      -9.392  -0.722 122.901  0.00  0.00    +0.000 A 
ATOM     14  C   UNL     1     -10.069   0.450 122.502  0.00  0.00    +0.000 A 
ATOM     15  C   UNL     1     -10.095   1.297 123.586  0.00  0.00    +0.000 A 
ATOM     16  N   UNL     1      -9.458   0.679 124.637  0.00  0.00    +0.000 N 
ATOM     17  C   UNL     1      -9.253   1.302 125.960  0.00  0.00    +0.000 C 
ATOM     18  C   UNL     1      -7.788   1.445 126.292  0.00  0.00    +0.000 A 
ATOM     19  C   UNL     1      -7.273   2.256 127.303  0.00  0.00    +0.000 A 
ATOM     20  C   UNL     1      -5.905   2.202 127.622  0.00  0.00    +0.000 A 
ATOM     21  C   UNL     1      -5.029   1.556 126.763  0.00  0.00    +0.000 A 
ATOM     22  C   UNL     1      -5.564   0.692 125.828  0.00  0.00    +0.000 A 
ATOM     23  C   UNL     1      -6.931   0.447 125.866  0.00  0.00    +0.000 A 
ENDBRANCH   4   8
BRANCH   7  24
ATOM     24  C   UNL     1      -6.643   0.676 132.769  0.00  0.00    +0.000 C 
BRANCH  24  25
ATOM     25  N   UNL     1      -6.843   2.135 132.810  0.00  0.00    +0.000 N 
ATOM     26  C   UNL     1      -5.871   3.088 132.609  0.00  0.00    +0.000 C 
ATOM     27  O   UNL     1      -4.703   2.808 132.489  0.00  0.00    +0.000 OA
ATOM     28  N   UNL     1      -6.413   4.374 132.433  0.00  0.00    +0.000 N 
ATOM     29  C   UNL     1      -7.629   4.948 133.011  0.00  0.00    +0.000 C 
ATOM     30  C   UNL     1      -8.093   5.937 131.958  0.00  0.00    +0.000 C 
ATOM     31  C   UNL     1      -6.778   6.520 131.472  0.00  0.00    +0.000 C 
ATOM     32  C   UNL     1      -5.700   5.424 131.676  0.00  0.00    +0.000 C 
ATOM     33  H   UNL     1      -7.651   2.485 132.363  0.00  0.00    +0.000 HD
BRANCH  32  34
ATOM     34  C   UNL     1      -4.417   6.050 132.326  0.00  0.00    +0.000 C 
ATOM     35  S   UNL     1      -4.308   6.393 133.977  0.00  0.00    +0.000 S 
BRANCH  34  36
ATOM     36  N   UNL     1      -3.344   6.286 131.444  0.00  0.00    +0.000 N 
ATOM     37  C   UNL     1      -3.325   7.528 130.667  0.00  0.00    +0.000 C 
ATOM     38  C   UNL     1      -3.620   7.374 129.174  0.00  0.00    +0.000 C 
ATOM     39  C   UNL     1      -2.457   6.691 128.446  0.00  0.00    +0.000 C 
ATOM     40  N   UNL     1      -2.563   5.228 128.359  0.00  0.00    +0.000 NA
ATOM     41  C   UNL     1      -3.412   4.857 127.223  0.00  0.00    +0.000 C 
ATOM     42  C   UNL     1      -3.069   4.590 129.593  0.00  0.00    +0.000 C 
ATOM     43  C   UNL     1      -2.508   5.191 130.904  0.00  0.00    +0.000 C 
ENDBRANCH  34  36
ENDBRANCH  32  34
ENDBRANCH  24  25
ENDBRANCH   7  24
TORSDOF 5
ENDMDL
