MODEL 1
REMARK VINA RESULT:     -10.5      0.000      0.000
REMARK  Name = CHEMBL1779420
REMARK  12 active torsions:
REMARK  status: ('A' for Active; 'I' for Inactive)
REMARK    1  A    between atoms: C_1  and  O_2
REMARK    2  A    between atoms: O_2  and  C_3
REMARK    3  A    between atoms: C_6  and  S_7
REMARK    4  A    between atoms: S_7  and  N_10
REMARK    5  A    between atoms: C_13  and  C_14
REMARK    6  A    between atoms: C_13  and  N_30
REMARK    7  A    between atoms: C_16  and  C_17
REMARK    8  A    between atoms: C_17  and  N_18
REMARK    9  A    between atoms: N_21  and  C_22
REMARK   10  A    between atoms: C_27  and  O_28
REMARK   11  A    between atoms: O_28  and  C_29
REMARK   12  A    between atoms: C_34  and  C_35
REMARK                            x       y       z     vdW  Elec       q    Type
REMARK                         _______ _______ _______ _____ _____    ______ ____
ROOT
ATOM      1  N   UNL     1      -6.095   4.613 127.198  0.00  0.00    +0.000 N 
ATOM      2  C   UNL     1      -5.761   3.422 127.826  0.00  0.00    +0.000 C 
ATOM      3  O   UNL     1      -5.044   2.674 127.153  0.00  0.00    +0.000 OA
ATOM      4  C   UNL     1      -5.677   3.673 129.382  0.00  0.00    +0.000 C 
ATOM      5  C   UNL     1      -4.239   4.374 129.192  0.00  0.00    +0.000 A 
ATOM      6  C   UNL     1      -3.049   4.743 130.260  0.00  0.00    +0.000 A 
ATOM      7  C   UNL     1      -2.226   5.808 130.221  0.00  0.00    +0.000 A 
ATOM      8 CL   UNL     1      -1.615   6.603 131.647  0.00  0.00    +0.000 Cl
ATOM      9  C   UNL     1      -2.081   6.078 128.919  0.00  0.00    +0.000 A 
ATOM     10  C   UNL     1      -3.144   5.645 127.782  0.00  0.00    +0.000 A 
ATOM     11  C   UNL     1      -4.398   4.920 127.891  0.00  0.00    +0.000 A 
ENDROOT
BRANCH   4  12
ATOM     12  C   UNL     1      -6.762   4.767 130.037  0.00  0.00    +0.000 A 
ATOM     13  C   UNL     1      -8.136   4.593 129.905  0.00  0.00    +0.000 A 
ATOM     14  C   UNL     1      -9.024   5.547 130.455  0.00  0.00    +0.000 A 
ATOM     15  C   UNL     1      -8.590   6.715 131.108  0.00  0.00    +0.000 A 
ATOM     16  C   UNL     1      -7.265   6.946 131.239  0.00  0.00    +0.000 A 
ATOM     17  C   UNL     1      -6.438   5.897 130.912  0.00  0.00    +0.000 A 
BRANCH  17  18
ATOM     18  O   UNL     1      -5.381   5.998 131.840  0.00  0.00    +0.000 OA
ATOM     19  C   UNL     1      -5.985   5.764 133.028  0.00  0.00    +0.000 C 
ENDBRANCH  17  18
BRANCH  14  20
ATOM     20  C   UNL     1     -10.477   5.466 130.110  0.00  0.00    +0.000 C 
BRANCH  20  21
ATOM     21  N   UNL     1     -10.925   6.794 129.709  0.00  0.00    +0.000 NA
ATOM     22  C   UNL     1     -12.250   7.059 130.262  0.00  0.00    +0.000 C 
ATOM     23  C   UNL     1     -12.712   8.483 129.910  0.00  0.00    +0.000 C 
ATOM     24  N   UNL     1     -12.692   8.800 128.465  0.00  0.00    +0.000 NA
ATOM     25  C   UNL     1     -13.772   8.093 127.779  0.00  0.00    +0.000 C 
ATOM     26  C   UNL     1     -11.393   8.403 127.877  0.00  0.00    +0.000 C 
ATOM     27  C   UNL     1     -10.965   6.970 128.239  0.00  0.00    +0.000 C 
ENDBRANCH  20  21
ENDBRANCH  14  20
ENDBRANCH   4  12
BRANCH   4  28
ATOM     28  N   UNL     1      -5.770   2.340 130.015  0.00  0.00    +0.000 NA
ATOM     29  C   UNL     1      -6.265   2.345 131.391  0.00  0.00    +0.000 C 
ATOM     30  C   UNL     1      -4.980   2.461 132.198  0.00  0.00    +0.000 C 
ATOM     31  C   UNL     1      -4.030   1.558 131.459  0.00  0.00    +0.000 C 
ATOM     32  C   UNL     1      -4.508   1.552 130.014  0.00  0.00    +0.000 C 
BRANCH  32  33
ATOM     33  C   UNL     1      -4.737   0.165 129.511  0.00  0.00    +0.000 A 
ATOM     34  N   UNL     1      -5.565  -0.208 128.561  0.00  0.00    +0.000 NA
ATOM     35  C   UNL     1      -5.371  -1.553 128.477  0.00  0.00    +0.000 A 
ATOM     36  C   UNL     1      -4.430  -1.959 129.389  0.00  0.00    +0.000 A 
ATOM     37  O   UNL     1      -4.004  -0.856 130.070  0.00  0.00    +0.000 OA
ENDBRANCH  32  33
ENDBRANCH   4  28
BRANCH   1  38
ATOM     38  S   UNL     1      -7.338   3.470 125.822  0.00  0.00    +0.000 S 
ATOM     39  O   UNL     1      -6.819   3.593 124.422  0.00  0.00    +0.000 OA
ATOM     40  O   UNL     1      -8.636   3.928 126.154  0.00  0.00    +0.000 OA
BRANCH  38  44
ATOM     41  C   UNL     1      -8.313  -1.599 125.083  0.00  0.00    +0.000 A 
ATOM     42  C   UNL     1      -7.088  -0.974 124.872  0.00  0.00    +0.000 A 
ATOM     43  C   UNL     1      -6.872   0.443 125.215  0.00  0.00    +0.000 A 
ATOM     44  C   UNL     1      -7.911   1.366 125.682  0.00  0.00    +0.000 A 
ATOM     45  C   UNL     1      -9.112   0.668 125.946  0.00  0.00    +0.000 A 
ATOM     46  C   UNL     1      -9.294  -0.786 125.655  0.00  0.00    +0.000 A 
BRANCH  41  48
ATOM     47  C   UNL     1      -9.344  -3.384 123.823  0.00  0.00    +0.000 C 
ATOM     48  O   UNL     1      -8.410  -2.948 124.824  0.00  0.00    +0.000 OA
ENDBRANCH  41  48
ENDBRANCH  38  44
ENDBRANCH   1  38
TORSDOF 9
ENDMDL
MODEL 2
REMARK VINA RESULT:      -9.8      2.558      3.929
REMARK  Name = CHEMBL1779420
REMARK  12 active torsions:
REMARK  status: ('A' for Active; 'I' for Inactive)
REMARK    1  A    between atoms: C_1  and  O_2
REMARK    2  A    between atoms: O_2  and  C_3
REMARK    3  A    between atoms: C_6  and  S_7
REMARK    4  A    between atoms: S_7  and  N_10
REMARK    5  A    between atoms: C_13  and  C_14
REMARK    6  A    between atoms: C_13  and  N_30
REMARK    7  A    between atoms: C_16  and  C_17
REMARK    8  A    between atoms: C_17  and  N_18
REMARK    9  A    between atoms: N_21  and  C_22
REMARK   10  A    between atoms: C_27  and  O_28
REMARK   11  A    between atoms: O_28  and  C_29
REMARK   12  A    between atoms: C_34  and  C_35
REMARK                            x       y       z     vdW  Elec       q    Type
REMARK                         _______ _______ _______ _____ _____    ______ ____
ROOT
ATOM      1  N   UNL     1      -4.699   4.013 129.748  0.00  0.00    +0.000 N 
ATOM      2  C   UNL     1      -5.428   2.900 129.354  0.00  0.00    +0.000 C 
ATOM      3  O   UNL     1      -4.767   2.045 128.755  0.00  0.00    +0.000 OA
ATOM      4  C   UNL     1      -6.582   2.650 130.401  0.00  0.00    +0.000 C 
ATOM      5  C   UNL     1      -5.514   2.013 131.426  0.00  0.00    +0.000 A 
ATOM      6  C   UNL     1      -5.700   1.093 132.772  0.00  0.00    +0.000 A 
ATOM      7  C   UNL     1      -4.938   1.115 133.880  0.00  0.00    +0.000 A 
ATOM      8 CL   UNL     1      -5.560   0.818 135.482  0.00  0.00    +0.000 Cl
ATOM      9  C   UNL     1      -3.717   1.450 133.448  0.00  0.00    +0.000 A 
ATOM     10  C   UNL     1      -3.434   2.250 132.073  0.00  0.00    +0.000 A 
ATOM     11  C   UNL     1      -4.354   2.749 131.065  0.00  0.00    +0.000 A 
ENDROOT
BRANCH   4  12
ATOM     12  C   UNL     1      -7.295   4.001 131.086  0.00  0.00    +0.000 A 
ATOM     13  C   UNL     1      -7.890   4.983 130.302  0.00  0.00    +0.000 A 
ATOM     14  C   UNL     1      -8.468   6.121 130.913  0.00  0.00    +0.000 A 
ATOM     15  C   UNL     1      -8.438   6.345 132.302  0.00  0.00    +0.000 A 
ATOM     16  C   UNL     1      -7.847   5.435 133.107  0.00  0.00    +0.000 A 
ATOM     17  C   UNL     1      -7.513   4.239 132.516  0.00  0.00    +0.000 A 
BRANCH  17  18
ATOM     18  O   UNL     1      -7.747   3.285 133.527  0.00  0.00    +0.000 OA
ATOM     19  C   UNL     1      -9.084   3.356 133.719  0.00  0.00    +0.000 C 
ENDBRANCH  17  18
BRANCH  14  20
ATOM     20  C   UNL     1      -8.894   7.267 130.053  0.00  0.00    +0.000 C 
BRANCH  20  21
ATOM     21  N   UNL     1     -10.179   6.932 129.452  0.00  0.00    +0.000 NA
ATOM     22  C   UNL     1     -10.352   7.673 128.205  0.00  0.00    +0.000 C 
ATOM     23  C   UNL     1     -11.672   7.282 127.517  0.00  0.00    +0.000 C 
ATOM     24  N   UNL     1     -12.876   7.424 128.365  0.00  0.00    +0.000 NA
ATOM     25  C   UNL     1     -13.193   8.839 128.555  0.00  0.00    +0.000 C 
ATOM     26  C   UNL     1     -12.648   6.790 129.682  0.00  0.00    +0.000 C 
ATOM     27  C   UNL     1     -11.325   7.211 130.348  0.00  0.00    +0.000 C 
ENDBRANCH  20  21
ENDBRANCH  14  20
ENDBRANCH   4  12
BRANCH   4  28
ATOM     28  N   UNL     1      -7.564   1.777 129.723  0.00  0.00    +0.000 NA
ATOM     29  C   UNL     1      -8.919   1.835 130.268  0.00  0.00    +0.000 C 
ATOM     30  C   UNL     1      -8.897   0.727 131.312  0.00  0.00    +0.000 C 
ATOM     31  C   UNL     1      -8.116  -0.366 130.633  0.00  0.00    +0.000 C 
ATOM     32  C   UNL     1      -7.188   0.339 129.654  0.00  0.00    +0.000 C 
BRANCH  32  33
ATOM     33  C   UNL     1      -7.338  -0.193 128.266  0.00  0.00    +0.000 A 
ATOM     34  N   UNL     1      -7.360   0.498 127.150  0.00  0.00    +0.000 NA
ATOM     35  C   UNL     1      -7.489  -0.455 126.185  0.00  0.00    +0.000 A 
ATOM     36  C   UNL     1      -7.547  -1.703 126.751  0.00  0.00    +0.000 A 
ATOM     37  O   UNL     1      -7.449  -1.554 128.104  0.00  0.00    +0.000 OA
ENDBRANCH  32  33
ENDBRANCH   4  28
BRANCH   1  38
ATOM     38  S   UNL     1      -4.530   4.573 127.650  0.00  0.00    +0.000 S 
ATOM     39  O   UNL     1      -3.255   4.046 127.068  0.00  0.00    +0.000 OA
ATOM     40  O   UNL     1      -4.779   5.967 127.700  0.00  0.00    +0.000 OA
BRANCH  38  44
ATOM     41  C   UNL     1      -7.805   3.425 123.758  0.00  0.00    +0.000 A 
ATOM     42  C   UNL     1      -8.146   3.496 125.106  0.00  0.00    +0.000 A 
ATOM     43  C   UNL     1      -7.180   3.938 126.127  0.00  0.00    +0.000 A 
ATOM     44  C   UNL     1      -5.764   4.226 125.881  0.00  0.00    +0.000 A 
ATOM     45  C   UNL     1      -5.489   4.209 124.494  0.00  0.00    +0.000 A 
ATOM     46  C   UNL     1      -6.499   3.823 123.463  0.00  0.00    +0.000 A 
BRANCH  41  48
ATOM     47  C   UNL     1      -8.558   3.374 121.464  0.00  0.00    +0.000 C 
ATOM     48  O   UNL     1      -8.788   3.091 122.853  0.00  0.00    +0.000 OA
ENDBRANCH  41  48
ENDBRANCH  38  44
ENDBRANCH   1  38
TORSDOF 9
ENDMDL
MODEL 3
REMARK VINA RESULT:      -9.6      3.265      4.869
REMARK  Name = CHEMBL1779420
REMARK  12 active torsions:
REMARK  status: ('A' for Active; 'I' for Inactive)
REMARK    1  A    between atoms: C_1  and  O_2
REMARK    2  A    between atoms: O_2  and  C_3
REMARK    3  A    between atoms: C_6  and  S_7
REMARK    4  A    between atoms: S_7  and  N_10
REMARK    5  A    between atoms: C_13  and  C_14
REMARK    6  A    between atoms: C_13  and  N_30
REMARK    7  A    between atoms: C_16  and  C_17
REMARK    8  A    between atoms: C_17  and  N_18
REMARK    9  A    between atoms: N_21  and  C_22
REMARK   10  A    between atoms: C_27  and  O_28
REMARK   11  A    between atoms: O_28  and  C_29
REMARK   12  A    between atoms: C_34  and  C_35
REMARK                            x       y       z     vdW  Elec       q    Type
REMARK                         _______ _______ _______ _____ _____    ______ ____
ROOT
ATOM      1  N   UNL     1      -5.708   1.270 129.198  0.00  0.00    +0.000 N 
ATOM      2  C   UNL     1      -5.233   1.010 130.475  0.00  0.00    +0.000 C 
ATOM      3  O   UNL     1      -4.123   0.468 130.505  0.00  0.00    +0.000 OA
ATOM      4  C   UNL     1      -5.777   2.121 131.456  0.00  0.00    +0.000 C 
ATOM      5  C   UNL     1      -4.682   3.158 130.889  0.00  0.00    +0.000 A 
ATOM      6  C   UNL     1      -4.126   4.590 131.465  0.00  0.00    +0.000 A 
ATOM      7  C   UNL     1      -3.744   5.661 130.745  0.00  0.00    +0.000 A 
ATOM      8 CL   UNL     1      -3.961   7.306 131.280  0.00  0.00    +0.000 Cl
ATOM      9  C   UNL     1      -3.260   5.151 129.607  0.00  0.00    +0.000 A 
ATOM     10  C   UNL     1      -3.661   3.697 129.027  0.00  0.00    +0.000 A 
ATOM     11  C   UNL     1      -4.558   2.685 129.556  0.00  0.00    +0.000 A 
ENDROOT
BRANCH   4  12
ATOM     12  C   UNL     1      -7.319   2.706 131.167  0.00  0.00    +0.000 A 
ATOM     13  C   UNL     1      -7.533   4.025 130.782  0.00  0.00    +0.000 A 
ATOM     14  C   UNL     1      -8.851   4.491 130.563  0.00  0.00    +0.000 A 
ATOM     15  C   UNL     1      -9.991   3.691 130.759  0.00  0.00    +0.000 A 
ATOM     16  C   UNL     1      -9.840   2.409 131.160  0.00  0.00    +0.000 A 
ATOM     17  C   UNL     1      -8.555   1.920 131.131  0.00  0.00    +0.000 A 
BRANCH  17  18
ATOM     18  O   UNL     1      -8.715   0.573 130.742  0.00  0.00    +0.000 OA
ATOM     19  C   UNL     1      -8.950  -0.063 131.912  0.00  0.00    +0.000 C 
ENDBRANCH  17  18
BRANCH  14  20
ATOM     20  C   UNL     1      -9.078   5.957 130.376  0.00  0.00    +0.000 C 
BRANCH  20  21
ATOM     21  N   UNL     1     -10.478   6.161 130.027  0.00  0.00    +0.000 NA
ATOM     22  C   UNL     1     -10.575   6.858 128.747  0.00  0.00    +0.000 C 
ATOM     23  C   UNL     1     -12.045   7.021 128.325  0.00  0.00    +0.000 C 
ATOM     24  N   UNL     1     -12.907   7.681 129.330  0.00  0.00    +0.000 NA
ATOM     25  C   UNL     1     -12.590   9.106 129.407  0.00  0.00    +0.000 C 
ATOM     26  C   UNL     1     -12.705   7.060 130.658  0.00  0.00    +0.000 C 
ATOM     27  C   UNL     1     -11.224   6.922 131.055  0.00  0.00    +0.000 C 
ENDBRANCH  20  21
ENDBRANCH  14  20
ENDBRANCH   4  12
BRANCH   4  28
ATOM     28  N   UNL     1      -5.631   1.567 132.819  0.00  0.00    +0.000 NA
ATOM     29  C   UNL     1      -6.589   2.079 133.798  0.00  0.00    +0.000 C 
ATOM     30  C   UNL     1      -5.850   3.275 134.380  0.00  0.00    +0.000 C 
ATOM     31  C   UNL     1      -4.435   2.778 134.501  0.00  0.00    +0.000 C 
ATOM     32  C   UNL     1      -4.278   1.718 133.420  0.00  0.00    +0.000 C 
BRANCH  32  33
ATOM     33  C   UNL     1      -3.787   0.423 133.980  0.00  0.00    +0.000 A 
ATOM     34  N   UNL     1      -4.428  -0.382 134.797  0.00  0.00    +0.000 NA
ATOM     35  C   UNL     1      -3.560  -1.415 134.975  0.00  0.00    +0.000 A 
ATOM     36  C   UNL     1      -2.408  -1.201 134.261  0.00  0.00    +0.000 A 
ATOM     37  O   UNL     1      -2.538  -0.011 133.606  0.00  0.00    +0.000 OA
ENDBRANCH  32  33
ENDBRANCH   4  28
BRANCH   1  38
ATOM     38  S   UNL     1      -5.947  -0.876 128.913  0.00  0.00    +0.000 S 
ATOM     39  O   UNL     1      -4.946  -1.389 127.925  0.00  0.00    +0.000 OA
ATOM     40  O   UNL     1      -7.336  -0.982 128.656  0.00  0.00    +0.000 OA
BRANCH  38  44
ATOM     41  C   UNL     1      -5.621  -4.635 132.513  0.00  0.00    +0.000 A 
ATOM     42  C   UNL     1      -5.946  -3.305 132.762  0.00  0.00    +0.000 A 
ATOM     43  C   UNL     1      -6.126  -2.334 131.669  0.00  0.00    +0.000 A 
ATOM     44  C   UNL     1      -5.872  -2.603 130.250  0.00  0.00    +0.000 A 
ATOM     45  C   UNL     1      -5.617  -3.978 130.045  0.00  0.00    +0.000 A 
ATOM     46  C   UNL     1      -5.504  -4.966 131.160  0.00  0.00    +0.000 A 
BRANCH  41  48
ATOM     47  C   UNL     1      -6.513  -5.342 134.643  0.00  0.00    +0.000 C 
ATOM     48  O   UNL     1      -5.561  -5.504 133.580  0.00  0.00    +0.000 OA
ENDBRANCH  41  48
ENDBRANCH  38  44
ENDBRANCH   1  38
TORSDOF 9
ENDMDL
MODEL 4
REMARK VINA RESULT:      -9.4      2.151      2.642
REMARK  Name = CHEMBL1779420
REMARK  12 active torsions:
REMARK  status: ('A' for Active; 'I' for Inactive)
REMARK    1  A    between atoms: C_1  and  O_2
REMARK    2  A    between atoms: O_2  and  C_3
REMARK    3  A    between atoms: C_6  and  S_7
REMARK    4  A    between atoms: S_7  and  N_10
REMARK    5  A    between atoms: C_13  and  C_14
REMARK    6  A    between atoms: C_13  and  N_30
REMARK    7  A    between atoms: C_16  and  C_17
REMARK    8  A    between atoms: C_17  and  N_18
REMARK    9  A    between atoms: N_21  and  C_22
REMARK   10  A    between atoms: C_27  and  O_28
REMARK   11  A    between atoms: O_28  and  C_29
REMARK   12  A    between atoms: C_34  and  C_35
REMARK                            x       y       z     vdW  Elec       q    Type
REMARK                         _______ _______ _______ _____ _____    ______ ____
ROOT
ATOM      1  N   UNL     1      -4.741   4.168 129.228  0.00  0.00    +0.000 N 
ATOM      2  C   UNL     1      -5.171   2.862 129.411  0.00  0.00    +0.000 C 
ATOM      3  O   UNL     1      -4.336   2.003 129.107  0.00  0.00    +0.000 OA
ATOM      4  C   UNL     1      -6.178   2.823 130.625  0.00  0.00    +0.000 C 
ATOM      5  C   UNL     1      -4.941   2.922 131.654  0.00  0.00    +0.000 A 
ATOM      6  C   UNL     1      -4.827   2.629 133.264  0.00  0.00    +0.000 A 
ATOM      7  C   UNL     1      -4.053   3.277 134.154  0.00  0.00    +0.000 A 
ATOM      8 CL   UNL     1      -4.512   3.545 135.814  0.00  0.00    +0.000 Cl
ATOM      9  C   UNL     1      -2.980   3.661 133.454  0.00  0.00    +0.000 A 
ATOM     10  C   UNL     1      -2.969   3.858 131.850  0.00  0.00    +0.000 A 
ATOM     11  C   UNL     1      -4.027   3.676 130.871  0.00  0.00    +0.000 A 
ENDROOT
BRANCH   4  12
ATOM     12  C   UNL     1      -7.189   4.144 130.821  0.00  0.00    +0.000 A 
ATOM     13  C   UNL     1      -7.984   4.607 129.778  0.00  0.00    +0.000 A 
ATOM     14  C   UNL     1      -8.813   5.737 129.972  0.00  0.00    +0.000 A 
ATOM     15  C   UNL     1      -8.851   6.465 131.175  0.00  0.00    +0.000 A 
ATOM     16  C   UNL     1      -8.076   6.074 132.210  0.00  0.00    +0.000 A 
ATOM     17  C   UNL     1      -7.470   4.846 132.075  0.00  0.00    +0.000 A 
BRANCH  17  18
ATOM     18  O   UNL     1      -7.491   4.313 133.381  0.00  0.00    +0.000 OA
ATOM     19  C   UNL     1      -7.214   5.384 134.159  0.00  0.00    +0.000 C 
ENDBRANCH  17  18
BRANCH  14  20
ATOM     20  C   UNL     1      -9.482   6.356 128.787  0.00  0.00    +0.000 C 
BRANCH  20  21
ATOM     21  N   UNL     1     -10.639   7.108 129.256  0.00  0.00    +0.000 NA
ATOM     22  C   UNL     1     -11.821   6.252 129.254  0.00  0.00    +0.000 C 
ATOM     23  C   UNL     1     -13.040   7.005 129.814  0.00  0.00    +0.000 C 
ATOM     24  N   UNL     1     -13.339   8.287 129.136  0.00  0.00    +0.000 NA
ATOM     25  C   UNL     1     -13.887   8.035 127.804  0.00  0.00    +0.000 C 
ATOM     26  C   UNL     1     -12.107   9.096 129.016  0.00  0.00    +0.000 C 
ATOM     27  C   UNL     1     -10.910   8.316 128.443  0.00  0.00    +0.000 C 
ENDBRANCH  20  21
ENDBRANCH  14  20
ENDBRANCH   4  12
BRANCH   4  28
ATOM     28  N   UNL     1      -6.926   1.555 130.493  0.00  0.00    +0.000 NA
ATOM     29  C   UNL     1      -8.247   1.551 131.121  0.00  0.00    +0.000 C 
ATOM     30  C   UNL     1      -7.939   1.036 132.520  0.00  0.00    +0.000 C 
ATOM     31  C   UNL     1      -6.925  -0.048 132.270  0.00  0.00    +0.000 C 
ATOM     32  C   UNL     1      -6.211   0.346 130.984  0.00  0.00    +0.000 C 
BRANCH  32  33
ATOM     33  C   UNL     1      -6.246  -0.752 129.973  0.00  0.00    +0.000 A 
ATOM     34  N   UNL     1      -7.311  -1.337 129.473  0.00  0.00    +0.000 NA
ATOM     35  C   UNL     1      -6.798  -2.236 128.588  0.00  0.00    +0.000 A 
ATOM     36  C   UNL     1      -5.428  -2.173 128.584  0.00  0.00    +0.000 A 
ATOM     37  O   UNL     1      -5.050  -1.213 129.477  0.00  0.00    +0.000 OA
ENDBRANCH  32  33
ENDBRANCH   4  28
BRANCH   1  38
ATOM     38  S   UNL     1      -4.807   3.827 127.078  0.00  0.00    +0.000 S 
ATOM     39  O   UNL     1      -3.429   3.589 126.542  0.00  0.00    +0.000 OA
ATOM     40  O   UNL     1      -5.575   4.930 126.631  0.00  0.00    +0.000 OA
BRANCH  38  44
ATOM     41  C   UNL     1      -6.822  -0.027 124.199  0.00  0.00    +0.000 A 
ATOM     42  C   UNL     1      -6.119  -0.191 125.389  0.00  0.00    +0.000 A 
ATOM     43  C   UNL     1      -5.682   0.962 126.196  0.00  0.00    +0.000 A 
ATOM     44  C   UNL     1      -5.816   2.368 125.801  0.00  0.00    +0.000 A 
ATOM     45  C   UNL     1      -6.595   2.481 124.627  0.00  0.00    +0.000 A 
ATOM     46  C   UNL     1      -7.089   1.301 123.855  0.00  0.00    +0.000 A 
BRANCH  41  48
ATOM     47  C   UNL     1      -6.416  -1.772 122.580  0.00  0.00    +0.000 C 
ATOM     48  O   UNL     1      -7.276  -1.153 123.549  0.00  0.00    +0.000 OA
ENDBRANCH  41  48
ENDBRANCH  38  44
ENDBRANCH   1  38
TORSDOF 9
ENDMDL
MODEL 5
REMARK VINA RESULT:      -9.4      2.347      3.104
REMARK  Name = CHEMBL1779420
REMARK  12 active torsions:
REMARK  status: ('A' for Active; 'I' for Inactive)
REMARK    1  A    between atoms: C_1  and  O_2
REMARK    2  A    between atoms: O_2  and  C_3
REMARK    3  A    between atoms: C_6  and  S_7
REMARK    4  A    between atoms: S_7  and  N_10
REMARK    5  A    between atoms: C_13  and  C_14
REMARK    6  A    between atoms: C_13  and  N_30
REMARK    7  A    between atoms: C_16  and  C_17
REMARK    8  A    between atoms: C_17  and  N_18
REMARK    9  A    between atoms: N_21  and  C_22
REMARK   10  A    between atoms: C_27  and  O_28
REMARK   11  A    between atoms: O_28  and  C_29
REMARK   12  A    between atoms: C_34  and  C_35
REMARK                            x       y       z     vdW  Elec       q    Type
REMARK                         _______ _______ _______ _____ _____    ______ ____
ROOT
ATOM      1  N   UNL     1      -6.661   4.626 128.265  0.00  0.00    +0.000 N 
ATOM      2  C   UNL     1      -6.565   3.257 128.468  0.00  0.00    +0.000 C 
ATOM      3  O   UNL     1      -5.839   2.672 127.657  0.00  0.00    +0.000 OA
ATOM      4  C   UNL     1      -6.699   2.960 130.012  0.00  0.00    +0.000 C 
ATOM      5  C   UNL     1      -5.179   3.445 130.237  0.00  0.00    +0.000 A 
ATOM      6  C   UNL     1      -4.138   3.244 131.489  0.00  0.00    +0.000 A 
ATOM      7  C   UNL     1      -3.205   4.115 131.917  0.00  0.00    +0.000 A 
ATOM      8 CL   UNL     1      -2.740   4.284 133.588  0.00  0.00    +0.000 Cl
ATOM      9  C   UNL     1      -2.828   4.776 130.817  0.00  0.00    +0.000 A 
ATOM     10  C   UNL     1      -3.742   4.922 129.492  0.00  0.00    +0.000 A 
ATOM     11  C   UNL     1      -5.070   4.411 129.202  0.00  0.00    +0.000 A 
ENDROOT
BRANCH   4  12
ATOM     12  C   UNL     1      -7.744   3.932 130.888  0.00  0.00    +0.000 A 
ATOM     13  C   UNL     1      -9.084   4.053 130.539  0.00  0.00    +0.000 A 
ATOM     14  C   UNL     1      -9.936   4.898 131.290  0.00  0.00    +0.000 A 
ATOM     15  C   UNL     1      -9.485   5.677 132.371  0.00  0.00    +0.000 A 
ATOM     16  C   UNL     1      -8.186   5.618 132.734  0.00  0.00    +0.000 A 
ATOM     17  C   UNL     1      -7.444   4.619 132.147  0.00  0.00    +0.000 A 
BRANCH  17  18
ATOM     18  O   UNL     1      -6.559   4.211 133.167  0.00  0.00    +0.000 OA
ATOM     19  C   UNL     1      -6.261   5.367 133.802  0.00  0.00    +0.000 C 
ENDBRANCH  17  18
BRANCH  14  20
ATOM     20  C   UNL     1     -11.306   5.193 130.769  0.00  0.00    +0.000 C 
BRANCH  20  21
ATOM     21  N   UNL     1     -11.360   6.601 130.398  0.00  0.00    +0.000 NA
ATOM     22  C   UNL     1     -12.668   7.154 130.738  0.00  0.00    +0.000 C 
ATOM     23  C   UNL     1     -12.722   8.659 130.420  0.00  0.00    +0.000 C 
ATOM     24  N   UNL     1     -12.369   9.009 129.026  0.00  0.00    +0.000 NA
ATOM     25  C   UNL     1     -13.439   8.600 128.117  0.00  0.00    +0.000 C 
ATOM     26  C   UNL     1     -11.111   8.334 128.637  0.00  0.00    +0.000 C 
ATOM     27  C   UNL     1     -11.092   6.829 128.959  0.00  0.00    +0.000 C 
ENDBRANCH  20  21
ENDBRANCH  14  20
ENDBRANCH   4  12
BRANCH   4  28
ATOM     28  N   UNL     1      -7.038   1.526 130.122  0.00  0.00    +0.000 NA
ATOM     29  C   UNL     1      -7.910   1.183 131.245  0.00  0.00    +0.000 C 
ATOM     30  C   UNL     1      -6.910   0.866 132.348  0.00  0.00    +0.000 C 
ATOM     31  C   UNL     1      -5.834   0.104 131.623  0.00  0.00    +0.000 C 
ATOM     32  C   UNL     1      -5.872   0.604 130.186  0.00  0.00    +0.000 C 
BRANCH  32  33
ATOM     33  C   UNL     1      -6.015  -0.519 129.212  0.00  0.00    +0.000 A 
ATOM     34  N   UNL     1      -5.551  -0.567 127.984  0.00  0.00    +0.000 NA
ATOM     35  C   UNL     1      -5.929  -1.800 127.547  0.00  0.00    +0.000 A 
ATOM     36  C   UNL     1      -6.621  -2.464 128.528  0.00  0.00    +0.000 A 
ATOM     37  O   UNL     1      -6.687  -1.647 129.618  0.00  0.00    +0.000 OA
ENDBRANCH  32  33
ENDBRANCH   4  28
BRANCH   1  38
ATOM     38  S   UNL     1      -7.792   4.220 126.450  0.00  0.00    +0.000 S 
ATOM     39  O   UNL     1      -8.764   5.327 126.179  0.00  0.00    +0.000 OA
ATOM     40  O   UNL     1      -8.247   2.899 126.679  0.00  0.00    +0.000 OA
BRANCH  38  44
ATOM     41  C   UNL     1      -6.139   3.831 121.519  0.00  0.00    +0.000 A 
ATOM     42  C   UNL     1      -5.404   4.357 122.577  0.00  0.00    +0.000 A 
ATOM     43  C   UNL     1      -5.908   4.324 123.961  0.00  0.00    +0.000 A 
ATOM     44  C   UNL     1      -7.243   3.869 124.364  0.00  0.00    +0.000 A 
ATOM     45  C   UNL     1      -7.917   3.281 123.269  0.00  0.00    +0.000 A 
ATOM     46  C   UNL     1      -7.363   3.262 121.881  0.00  0.00    +0.000 A 
BRANCH  41  48
ATOM     47  C   UNL     1      -5.429   5.059 119.564  0.00  0.00    +0.000 C 
ATOM     48  O   UNL     1      -5.562   3.815 120.268  0.00  0.00    +0.000 OA
ENDBRANCH  41  48
ENDBRANCH  38  44
ENDBRANCH   1  38
TORSDOF 9
ENDMDL
MODEL 6
REMARK VINA RESULT:      -9.1      3.751      6.484
REMARK  Name = CHEMBL1779420
REMARK  12 active torsions:
REMARK  status: ('A' for Active; 'I' for Inactive)
REMARK    1  A    between atoms: C_1  and  O_2
REMARK    2  A    between atoms: O_2  and  C_3
REMARK    3  A    between atoms: C_6  and  S_7
REMARK    4  A    between atoms: S_7  and  N_10
REMARK    5  A    between atoms: C_13  and  C_14
REMARK    6  A    between atoms: C_13  and  N_30
REMARK    7  A    between atoms: C_16  and  C_17
REMARK    8  A    between atoms: C_17  and  N_18
REMARK    9  A    between atoms: N_21  and  C_22
REMARK   10  A    between atoms: C_27  and  O_28
REMARK   11  A    between atoms: O_28  and  C_29
REMARK   12  A    between atoms: C_34  and  C_35
REMARK                            x       y       z     vdW  Elec       q    Type
REMARK                         _______ _______ _______ _____ _____    ______ ____
ROOT
ATOM      1  N   UNL     1      -5.044   0.487 128.598  0.00  0.00    +0.000 N 
ATOM      2  C   UNL     1      -5.694  -0.287 127.649  0.00  0.00    +0.000 C 
ATOM      3  O   UNL     1      -4.988  -0.618 126.691  0.00  0.00    +0.000 OA
ATOM      4  C   UNL     1      -6.791  -1.163 128.371  0.00  0.00    +0.000 C 
ATOM      5  C   UNL     1      -5.644  -2.164 128.899  0.00  0.00    +0.000 A 
ATOM      6  C   UNL     1      -5.712  -3.680 129.521  0.00  0.00    +0.000 A 
ATOM      7  C   UNL     1      -4.919  -4.203 130.474  0.00  0.00    +0.000 A 
ATOM      8 CL   UNL     1      -5.463  -5.375 131.644  0.00  0.00    +0.000 Cl
ATOM      9  C   UNL     1      -3.743  -3.585 130.315  0.00  0.00    +0.000 A 
ATOM     10  C   UNL     1      -3.569  -2.144 129.604  0.00  0.00    +0.000 A 
ATOM     11  C   UNL     1      -4.557  -1.256 129.017  0.00  0.00    +0.000 A 
ENDROOT
BRANCH   4  12
ATOM     12  C   UNL     1      -7.586  -0.470 129.671  0.00  0.00    +0.000 A 
ATOM     13  C   UNL     1      -8.259   0.740 129.547  0.00  0.00    +0.000 A 
ATOM     14  C   UNL     1      -8.906   1.307 130.671  0.00  0.00    +0.000 A 
ATOM     15  C   UNL     1      -8.870   0.725 131.952  0.00  0.00    +0.000 A 
ATOM     16  C   UNL     1      -8.206  -0.437 132.133  0.00  0.00    +0.000 A 
ATOM     17  C   UNL     1      -7.798  -1.079 130.987  0.00  0.00    +0.000 A 
BRANCH  17  18
ATOM     18  O   UNL     1      -7.950  -2.448 131.294  0.00  0.00    +0.000 OA
ATOM     19  C   UNL     1      -7.527  -2.529 132.575  0.00  0.00    +0.000 C 
ENDBRANCH  17  18
BRANCH  14  20
ATOM     20  C   UNL     1      -9.424   2.706 130.579  0.00  0.00    +0.000 C 
BRANCH  20  21
ATOM     21  N   UNL     1      -8.613   3.552 131.446  0.00  0.00    +0.000 NA
ATOM     22  C   UNL     1      -9.291   4.825 131.671  0.00  0.00    +0.000 C 
ATOM     23  C   UNL     1      -8.485   5.706 132.643  0.00  0.00    +0.000 C 
ATOM     24  N   UNL     1      -7.080   5.941 132.243  0.00  0.00    +0.000 NA
ATOM     25  C   UNL     1      -7.028   6.851 131.100  0.00  0.00    +0.000 C 
ATOM     26  C   UNL     1      -6.435   4.660 131.882  0.00  0.00    +0.000 C 
ATOM     27  C   UNL     1      -7.260   3.808 130.902  0.00  0.00    +0.000 C 
ENDBRANCH  20  21
ENDBRANCH  14  20
ENDBRANCH   4  12
BRANCH   4  28
ATOM     28  N   UNL     1      -7.722  -1.604 127.311  0.00  0.00    +0.000 NA
ATOM     29  C   UNL     1      -9.000  -2.127 127.792  0.00  0.00    +0.000 C 
ATOM     30  C   UNL     1      -8.710  -3.614 127.932  0.00  0.00    +0.000 C 
ATOM     31  C   UNL     1      -7.878  -3.916 126.715  0.00  0.00    +0.000 C 
ATOM     32  C   UNL     1      -7.172  -2.614 126.367  0.00  0.00    +0.000 C 
BRANCH  32  33
ATOM     33  C   UNL     1      -7.412  -2.215 124.947  0.00  0.00    +0.000 A 
ATOM     34  N   UNL     1      -6.506  -1.999 124.021  0.00  0.00    +0.000 NA
ATOM     35  C   UNL     1      -7.243  -1.693 122.918  0.00  0.00    +0.000 A 
ATOM     36  C   UNL     1      -8.582  -1.728 123.213  0.00  0.00    +0.000 A 
ATOM     37  O   UNL     1      -8.712  -2.067 124.528  0.00  0.00    +0.000 OA
ENDBRANCH  32  33
ENDBRANCH   4  28
BRANCH   1  38
ATOM     38  S   UNL     1      -4.987   2.112 127.149  0.00  0.00    +0.000 S 
ATOM     39  O   UNL     1      -3.573   2.429 126.771  0.00  0.00    +0.000 OA
ATOM     40  O   UNL     1      -5.804   3.087 127.773  0.00  0.00    +0.000 OA
BRANCH  38  44
ATOM     41  C   UNL     1      -6.955   3.360 122.484  0.00  0.00    +0.000 A 
ATOM     42  C   UNL     1      -6.019   4.108 123.190  0.00  0.00    +0.000 A 
ATOM     43  C   UNL     1      -5.433   3.622 124.452  0.00  0.00    +0.000 A 
ATOM     44  C   UNL     1      -5.838   2.402 125.157  0.00  0.00    +0.000 A 
ATOM     45  C   UNL     1      -6.734   1.648 124.366  0.00  0.00    +0.000 A 
ATOM     46  C   UNL     1      -7.269   2.124 123.054  0.00  0.00    +0.000 A 
BRANCH  41  48
ATOM     47  C   UNL     1      -6.411   4.058 120.236  0.00  0.00    +0.000 C 
ATOM     48  O   UNL     1      -7.387   3.838 121.266  0.00  0.00    +0.000 OA
ENDBRANCH  41  48
ENDBRANCH  38  44
ENDBRANCH   1  38
TORSDOF 9
ENDMDL
MODEL 7
REMARK VINA RESULT:      -9.0      3.519      9.244
REMARK  Name = CHEMBL1779420
REMARK  12 active torsions:
REMARK  status: ('A' for Active; 'I' for Inactive)
REMARK    1  A    between atoms: C_1  and  O_2
REMARK    2  A    between atoms: O_2  and  C_3
REMARK    3  A    between atoms: C_6  and  S_7
REMARK    4  A    between atoms: S_7  and  N_10
REMARK    5  A    between atoms: C_13  and  C_14
REMARK    6  A    between atoms: C_13  and  N_30
REMARK    7  A    between atoms: C_16  and  C_17
REMARK    8  A    between atoms: C_17  and  N_18
REMARK    9  A    between atoms: N_21  and  C_22
REMARK   10  A    between atoms: C_27  and  O_28
REMARK   11  A    between atoms: O_28  and  C_29
REMARK   12  A    between atoms: C_34  and  C_35
REMARK                            x       y       z     vdW  Elec       q    Type
REMARK                         _______ _______ _______ _____ _____    ______ ____
ROOT
ATOM      1  N   UNL     1      -3.745   4.619 129.646  0.00  0.00    +0.000 N 
ATOM      2  C   UNL     1      -5.124   4.766 129.657  0.00  0.00    +0.000 C 
ATOM      3  O   UNL     1      -5.555   5.587 128.840  0.00  0.00    +0.000 OA
ATOM      4  C   UNL     1      -5.780   3.387 130.057  0.00  0.00    +0.000 C 
ATOM      5  C   UNL     1      -5.508   2.827 128.572  0.00  0.00    +0.000 A 
ATOM      6  C   UNL     1      -6.108   1.532 127.761  0.00  0.00    +0.000 A 
ATOM      7  C   UNL     1      -5.460   0.764 126.866  0.00  0.00    +0.000 A 
ATOM      8 CL   UNL     1      -5.754  -0.943 126.672  0.00  0.00    +0.000 Cl
ATOM      9  C   UNL     1      -4.585   1.589 126.280  0.00  0.00    +0.000 A 
ATOM     10  C   UNL     1      -4.033   2.949 126.956  0.00  0.00    +0.000 A 
ATOM     11  C   UNL     1      -4.331   3.550 128.244  0.00  0.00    +0.000 A 
ENDROOT
BRANCH   4  12
ATOM     12  C   UNL     1      -4.962   2.451 131.179  0.00  0.00    +0.000 A 
ATOM     13  C   UNL     1      -4.454   1.200 130.845  0.00  0.00    +0.000 A 
ATOM     14  C   UNL     1      -3.784   0.426 131.822  0.00  0.00    +0.000 A 
ATOM     15  C   UNL     1      -3.635   0.839 133.159  0.00  0.00    +0.000 A 
ATOM     16  C   UNL     1      -4.135   2.034 133.542  0.00  0.00    +0.000 A 
ATOM     17  C   UNL     1      -4.562   2.859 132.528  0.00  0.00    +0.000 A 
BRANCH  17  18
ATOM     18  O   UNL     1      -4.219   4.152 132.975  0.00  0.00    +0.000 OA
ATOM     19  C   UNL     1      -5.316   4.546 133.661  0.00  0.00    +0.000 C 
ENDBRANCH  17  18
BRANCH  14  20
ATOM     20  C   UNL     1      -3.449  -0.998 131.513  0.00  0.00    +0.000 C 
BRANCH  20  21
ATOM     21  N   UNL     1      -4.676  -1.680 131.121  0.00  0.00    +0.000 NA
ATOM     22  C   UNL     1      -5.133  -2.542 132.208  0.00  0.00    +0.000 C 
ATOM     23  C   UNL     1      -6.466  -3.218 131.843  0.00  0.00    +0.000 C 
ATOM     24  N   UNL     1      -6.448  -3.972 130.569  0.00  0.00    +0.000 NA
ATOM     25  C   UNL     1      -5.666  -5.199 130.722  0.00  0.00    +0.000 C 
ATOM     26  C   UNL     1      -5.855  -3.143 129.497  0.00  0.00    +0.000 C 
ATOM     27  C   UNL     1      -4.518  -2.489 129.891  0.00  0.00    +0.000 C 
ENDBRANCH  20  21
ENDBRANCH  14  20
ENDBRANCH   4  12
BRANCH   4  28
ATOM     28  N   UNL     1      -7.160   3.702 130.485  0.00  0.00    +0.000 NA
ATOM     29  C   UNL     1      -7.747   2.746 131.422  0.00  0.00    +0.000 C 
ATOM     30  C   UNL     1      -8.434   1.758 130.490  0.00  0.00    +0.000 C 
ATOM     31  C   UNL     1      -9.030   2.646 129.431  0.00  0.00    +0.000 C 
ATOM     32  C   UNL     1      -8.139   3.879 129.379  0.00  0.00    +0.000 C 
BRANCH  32  33
ATOM     33  C   UNL     1      -8.924   5.138 129.547  0.00  0.00    +0.000 A 
ATOM     34  N   UNL     1     -10.147   5.372 129.126  0.00  0.00    +0.000 NA
ATOM     35  C   UNL     1     -10.395   6.641 129.554  0.00  0.00    +0.000 A 
ATOM     36  C   UNL     1      -9.305   7.143 130.219  0.00  0.00    +0.000 A 
ATOM     37  O   UNL     1      -8.339   6.180 130.226  0.00  0.00    +0.000 OA
ENDBRANCH  32  33
ENDBRANCH   4  28
BRANCH   1  38
ATOM     38  S   UNL     1      -3.583   6.622 130.486  0.00  0.00    +0.000 S 
ATOM     39  O   UNL     1      -4.862   7.014 131.158  0.00  0.00    +0.000 OA
ATOM     40  O   UNL     1      -3.091   7.361 129.382  0.00  0.00    +0.000 OA
BRANCH  38  44
ATOM     41  C   UNL     1      -0.232   8.324 134.101  0.00  0.00    +0.000 A 
ATOM     42  C   UNL     1      -0.094   7.154 133.361  0.00  0.00    +0.000 A 
ATOM     43  C   UNL     1      -1.033   6.808 132.279  0.00  0.00    +0.000 A 
ATOM     44  C   UNL     1      -2.249   7.555 131.945  0.00  0.00    +0.000 A 
ATOM     45  C   UNL     1      -2.303   8.765 132.674  0.00  0.00    +0.000 A 
ATOM     46  C   UNL     1      -1.305   9.134 133.722  0.00  0.00    +0.000 A 
BRANCH  41  48
ATOM     47  C   UNL     1       1.173   7.582 135.921  0.00  0.00    +0.000 C 
ATOM     48  O   UNL     1       0.737   8.624 135.033  0.00  0.00    +0.000 OA
ENDBRANCH  41  48
ENDBRANCH  38  44
ENDBRANCH   1  38
TORSDOF 9
ENDMDL
MODEL 8
REMARK VINA RESULT:      -8.9      3.337      5.999
REMARK  Name = CHEMBL1779420
REMARK  12 active torsions:
REMARK  status: ('A' for Active; 'I' for Inactive)
REMARK    1  A    between atoms: C_1  and  O_2
REMARK    2  A    between atoms: O_2  and  C_3
REMARK    3  A    between atoms: C_6  and  S_7
REMARK    4  A    between atoms: S_7  and  N_10
REMARK    5  A    between atoms: C_13  and  C_14
REMARK    6  A    between atoms: C_13  and  N_30
REMARK    7  A    between atoms: C_16  and  C_17
REMARK    8  A    between atoms: C_17  and  N_18
REMARK    9  A    between atoms: N_21  and  C_22
REMARK   10  A    between atoms: C_27  and  O_28
REMARK   11  A    between atoms: O_28  and  C_29
REMARK   12  A    between atoms: C_34  and  C_35
REMARK                            x       y       z     vdW  Elec       q    Type
REMARK                         _______ _______ _______ _____ _____    ______ ____
ROOT
ATOM      1  N   UNL     1      -4.643   3.695 130.277  0.00  0.00    +0.000 N 
ATOM      2  C   UNL     1      -5.473   2.681 129.822  0.00  0.00    +0.000 C 
ATOM      3  O   UNL     1      -4.907   1.834 129.123  0.00  0.00    +0.000 OA
ATOM      4  C   UNL     1      -6.603   2.428 130.894  0.00  0.00    +0.000 C 
ATOM      5  C   UNL     1      -5.553   1.622 131.812  0.00  0.00    +0.000 A 
ATOM      6  C   UNL     1      -5.761   0.602 133.080  0.00  0.00    +0.000 A 
ATOM      7  C   UNL     1      -4.958   0.466 134.152  0.00  0.00    +0.000 A 
ATOM      8 CL   UNL     1      -5.542   0.076 135.748  0.00  0.00    +0.000 Cl
ATOM      9  C   UNL     1      -3.732   0.743 133.696  0.00  0.00    +0.000 A 
ATOM     10  C   UNL     1      -3.437   1.639 132.383  0.00  0.00    +0.000 A 
ATOM     11  C   UNL     1      -4.351   2.295 131.464  0.00  0.00    +0.000 A 
ENDROOT
BRANCH   4  12
ATOM     12  C   UNL     1      -7.179   3.764 131.725  0.00  0.00    +0.000 A 
ATOM     13  C   UNL     1      -6.869   3.971 133.065  0.00  0.00    +0.000 A 
ATOM     14  C   UNL     1      -7.387   5.101 133.742  0.00  0.00    +0.000 A 
ATOM     15  C   UNL     1      -8.255   6.028 133.136  0.00  0.00    +0.000 A 
ATOM     16  C   UNL     1      -8.611   5.856 131.844  0.00  0.00    +0.000 A 
ATOM     17  C   UNL     1      -7.909   4.897 131.152  0.00  0.00    +0.000 A 
BRANCH  17  18
ATOM     18  O   UNL     1      -7.793   5.435 129.853  0.00  0.00    +0.000 OA
ATOM     19  C   UNL     1      -9.068   5.444 129.404  0.00  0.00    +0.000 C 
ENDBRANCH  17  18
BRANCH  14  20
ATOM     20  C   UNL     1      -7.234   5.188 135.226  0.00  0.00    +0.000 C 
BRANCH  20  21
ATOM     21  N   UNL     1      -5.816   5.086 135.546  0.00  0.00    +0.000 NA
ATOM     22  C   UNL     1      -5.649   4.611 136.917  0.00  0.00    +0.000 C 
ATOM     23  C   UNL     1      -4.158   4.429 137.252  0.00  0.00    +0.000 C 
ATOM     24  N   UNL     1      -3.322   5.629 137.024  0.00  0.00    +0.000 NA
ATOM     25  C   UNL     1      -3.607   6.640 138.041  0.00  0.00    +0.000 C 
ATOM     26  C   UNL     1      -3.596   6.190 135.683  0.00  0.00    +0.000 C 
ATOM     27  C   UNL     1      -5.095   6.369 135.383  0.00  0.00    +0.000 C 
ENDBRANCH  20  21
ENDBRANCH  14  20
ENDBRANCH   4  12
BRANCH   4  28
ATOM     28  N   UNL     1      -7.678   1.698 130.189  0.00  0.00    +0.000 NA
ATOM     29  C   UNL     1      -9.023   1.921 130.716  0.00  0.00    +0.000 C 
ATOM     30  C   UNL     1      -9.159   0.805 131.741  0.00  0.00    +0.000 C 
ATOM     31  C   UNL     1      -8.514  -0.370 131.056  0.00  0.00    +0.000 C 
ATOM     32  C   UNL     1      -7.488   0.225 130.101  0.00  0.00    +0.000 C 
BRANCH  32  33
ATOM     33  C   UNL     1      -7.681  -0.264 128.704  0.00  0.00    +0.000 A 
ATOM     34  N   UNL     1      -7.802   0.465 127.618  0.00  0.00    +0.000 NA
ATOM     35  C   UNL     1      -7.929  -0.458 126.625  0.00  0.00    +0.000 A 
ATOM     36  C   UNL     1      -7.888  -1.727 127.143  0.00  0.00    +0.000 A 
ATOM     37  O   UNL     1      -7.726  -1.622 128.493  0.00  0.00    +0.000 OA
ENDBRANCH  32  33
ENDBRANCH   4  28
BRANCH   1  38
ATOM     38  S   UNL     1      -4.508   4.425 128.230  0.00  0.00    +0.000 S 
ATOM     39  O   UNL     1      -3.201   4.027 127.616  0.00  0.00    +0.000 OA
ATOM     40  O   UNL     1      -4.847   5.792 128.386  0.00  0.00    +0.000 OA
BRANCH  38  44
ATOM     41  C   UNL     1      -7.738   3.426 124.259  0.00  0.00    +0.000 A 
ATOM     42  C   UNL     1      -8.104   3.491 125.600  0.00  0.00    +0.000 A 
ATOM     43  C   UNL     1      -7.145   3.892 126.646  0.00  0.00    +0.000 A 
ATOM     44  C   UNL     1      -5.716   4.137 126.432  0.00  0.00    +0.000 A 
ATOM     45  C   UNL     1      -5.413   4.128 125.051  0.00  0.00    +0.000 A 
ATOM     46  C   UNL     1      -6.414   3.785 123.995  0.00  0.00    +0.000 A 
BRANCH  41  48
ATOM     47  C   UNL     1      -8.372   3.221 121.938  0.00  0.00    +0.000 C 
ATOM     48  O   UNL     1      -8.712   3.134 123.331  0.00  0.00    +0.000 OA
ENDBRANCH  41  48
ENDBRANCH  38  44
ENDBRANCH   1  38
TORSDOF 9
ENDMDL
MODEL 9
REMARK VINA RESULT:      -8.9      3.253      8.622
REMARK  Name = CHEMBL1779420
REMARK  12 active torsions:
REMARK  status: ('A' for Active; 'I' for Inactive)
REMARK    1  A    between atoms: C_1  and  O_2
REMARK    2  A    between atoms: O_2  and  C_3
REMARK    3  A    between atoms: C_6  and  S_7
REMARK    4  A    between atoms: S_7  and  N_10
REMARK    5  A    between atoms: C_13  and  C_14
REMARK    6  A    between atoms: C_13  and  N_30
REMARK    7  A    between atoms: C_16  and  C_17
REMARK    8  A    between atoms: C_17  and  N_18
REMARK    9  A    between atoms: N_21  and  C_22
REMARK   10  A    between atoms: C_27  and  O_28
REMARK   11  A    between atoms: O_28  and  C_29
REMARK   12  A    between atoms: C_34  and  C_35
REMARK                            x       y       z     vdW  Elec       q    Type
REMARK                         _______ _______ _______ _____ _____    ______ ____
ROOT
ATOM      1  N   UNL     1      -3.885   4.301 130.718  0.00  0.00    +0.000 N 
ATOM      2  C   UNL     1      -5.210   4.709 130.742  0.00  0.00    +0.000 C 
ATOM      3  O   UNL     1      -5.371   5.925 130.595  0.00  0.00    +0.000 OA
ATOM      4  C   UNL     1      -6.110   3.552 130.156  0.00  0.00    +0.000 C 
ATOM      5  C   UNL     1      -5.656   3.955 128.663  0.00  0.00    +0.000 A 
ATOM      6  C   UNL     1      -6.272   3.579 127.190  0.00  0.00    +0.000 A 
ATOM      7  C   UNL     1      -5.585   3.385 126.049  0.00  0.00    +0.000 A 
ATOM      8 CL   UNL     1      -6.071   2.253 124.814  0.00  0.00    +0.000 Cl
ATOM      9  C   UNL     1      -4.515   4.179 126.156  0.00  0.00    +0.000 A 
ATOM     10  C   UNL     1      -3.912   4.698 127.563  0.00  0.00    +0.000 A 
ATOM     11  C   UNL     1      -4.350   4.450 128.925  0.00  0.00    +0.000 A 
ENDROOT
BRANCH   4  12
ATOM     12  C   UNL     1      -5.643   1.979 130.489  0.00  0.00    +0.000 A 
ATOM     13  C   UNL     1      -5.355   1.078 129.470  0.00  0.00    +0.000 A 
ATOM     14  C   UNL     1      -4.981  -0.249 129.786  0.00  0.00    +0.000 A 
ATOM     15  C   UNL     1      -4.923  -0.738 131.105  0.00  0.00    +0.000 A 
ATOM     16  C   UNL     1      -5.220   0.090 132.130  0.00  0.00    +0.000 A 
ATOM     17  C   UNL     1      -5.343   1.421 131.810  0.00  0.00    +0.000 A 
BRANCH  17  18
ATOM     18  O   UNL     1      -4.810   2.090 132.932  0.00  0.00    +0.000 OA
ATOM     19  C   UNL     1      -5.510   1.572 133.966  0.00  0.00    +0.000 C 
ENDBRANCH  17  18
BRANCH  14  20
ATOM     20  C   UNL     1      -4.900  -1.260 128.687  0.00  0.00    +0.000 C 
BRANCH  20  21
ATOM     21  N   UNL     1      -6.153  -1.229 127.944  0.00  0.00    +0.000 NA
ATOM     22  C   UNL     1      -6.872  -2.485 128.132  0.00  0.00    +0.000 C 
ATOM     23  C   UNL     1      -8.233  -2.446 127.413  0.00  0.00    +0.000 C 
ATOM     24  N   UNL     1      -8.162  -2.111 125.974  0.00  0.00    +0.000 NA
ATOM     25  C   UNL     1      -7.600  -3.234 125.223  0.00  0.00    +0.000 C 
ATOM     26  C   UNL     1      -7.316  -0.914 125.773  0.00  0.00    +0.000 C 
ATOM     27  C   UNL     1      -5.959  -0.989 126.496  0.00  0.00    +0.000 C 
ENDBRANCH  20  21
ENDBRANCH  14  20
ENDBRANCH   4  12
BRANCH   4  28
ATOM     28  N   UNL     1      -7.487   3.839 130.609  0.00  0.00    +0.000 NA
ATOM     29  C   UNL     1      -8.037   2.874 131.560  0.00  0.00    +0.000 C 
ATOM     30  C   UNL     1      -8.720   1.869 130.644  0.00  0.00    +0.000 C 
ATOM     31  C   UNL     1      -9.355   2.740 129.594  0.00  0.00    +0.000 C 
ATOM     32  C   UNL     1      -8.491   3.992 129.521  0.00  0.00    +0.000 C 
BRANCH  32  33
ATOM     33  C   UNL     1      -9.300   5.235 129.701  0.00  0.00    +0.000 A 
ATOM     34  N   UNL     1     -10.608   5.343 129.652  0.00  0.00    +0.000 NA
ATOM     35  C   UNL     1     -10.829   6.664 129.903  0.00  0.00    +0.000 A 
ATOM     36  C   UNL     1      -9.640   7.320 130.091  0.00  0.00    +0.000 A 
ATOM     37  O   UNL     1      -8.634   6.407 129.965  0.00  0.00    +0.000 OA
ENDBRANCH  32  33
ENDBRANCH   4  28
BRANCH   1  38
ATOM     38  S   UNL     1      -3.603   5.300 132.632  0.00  0.00    +0.000 S 
ATOM     39  O   UNL     1      -3.170   6.719 132.424  0.00  0.00    +0.000 OA
ATOM     40  O   UNL     1      -2.769   4.384 133.319  0.00  0.00    +0.000 OA
BRANCH  38  44
ATOM     41  C   UNL     1      -7.131   6.236 136.356  0.00  0.00    +0.000 A 
ATOM     42  C   UNL     1      -7.369   5.536 135.177  0.00  0.00    +0.000 A 
ATOM     43  C   UNL     1      -6.283   5.221 134.232  0.00  0.00    +0.000 A 
ATOM     44  C   UNL     1      -4.900   5.694 134.346  0.00  0.00    +0.000 A 
ATOM     45  C   UNL     1      -4.697   6.334 135.590  0.00  0.00    +0.000 A 
ATOM     46  C   UNL     1      -5.796   6.587 136.570  0.00  0.00    +0.000 A 
BRANCH  41  48
ATOM     47  C   UNL     1      -8.645   7.747 137.478  0.00  0.00    +0.000 C 
ATOM     48  O   UNL     1      -8.179   6.411 137.233  0.00  0.00    +0.000 OA
ENDBRANCH  41  48
ENDBRANCH  38  44
ENDBRANCH   1  38
TORSDOF 9
ENDMDL
