MODEL 1
REMARK VINA RESULT:      -9.5      0.000      0.000
REMARK  Name = CHEMBL198780
REMARK  12 active torsions:
REMARK  status: ('A' for Active; 'I' for Inactive)
REMARK    1  A    between atoms: C_1  and  O_2
REMARK    2  A    between atoms: O_2  and  C_3
REMARK    3  A    between atoms: C_6  and  S_7
REMARK    4  A    between atoms: S_7  and  N_10
REMARK    5  A    between atoms: N_10  and  C_11
REMARK    6  A    between atoms: N_10  and  C_23
REMARK    7  A    between atoms: C_11  and  C_12
REMARK    8  A    between atoms: N_14  and  C_15
REMARK    9  A    between atoms: C_21  and  C_22
REMARK   10  A    between atoms: C_26  and  C_27
REMARK   11  A    between atoms: C_31  and  O_32
REMARK   12  A    between atoms: O_32  and  C_33
REMARK                            x       y       z     vdW  Elec       q    Type
REMARK                         _______ _______ _______ _____ _____    ______ ____
ROOT
ATOM      1  N   UNL     1      -6.163   3.273 127.334  0.00  0.00    +0.000 N 
ENDROOT
BRANCH   1   2
ATOM      2  C   UNL     1      -5.197   4.143 127.965  0.00  0.00    +0.000 A 
ATOM      3  C   UNL     1      -4.187   4.644 127.135  0.00  0.00    +0.000 A 
ATOM      4  C   UNL     1      -3.047   5.224 127.663  0.00  0.00    +0.000 A 
ATOM      5  C   UNL     1      -2.973   5.455 129.034  0.00  0.00    +0.000 A 
ATOM      6  C   UNL     1      -1.870   6.293 129.586  0.00  0.00    +0.000 C 
ATOM      7  C   UNL     1      -3.979   4.973 129.878  0.00  0.00    +0.000 A 
ATOM      8  C   UNL     1      -5.076   4.296 129.344  0.00  0.00    +0.000 A 
ENDBRANCH   1   2
BRANCH   1   9
ATOM      9  S   UNL     1      -5.622   1.437 127.084  0.00  0.00    +0.000 S 
ATOM     10  O   UNL     1      -5.408   0.957 128.446  0.00  0.00    +0.000 OA
ATOM     11  O   UNL     1      -4.469   1.447 126.192  0.00  0.00    +0.000 OA
BRANCH   9  15
ATOM     12  C   UNL     1      -8.721  -1.693 125.126  0.00  0.00    +0.000 A 
ATOM     13  C   UNL     1      -7.345  -1.994 125.213  0.00  0.00    +0.000 A 
ATOM     14  C   UNL     1      -6.318  -1.102 125.759  0.00  0.00    +0.000 A 
ATOM     15  C   UNL     1      -6.685   0.107 126.291  0.00  0.00    +0.000 A 
ATOM     16  C   UNL     1      -8.027   0.259 126.107  0.00  0.00    +0.000 A 
ATOM     17  C   UNL     1      -8.999  -0.396 125.423  0.00  0.00    +0.000 A 
BRANCH  12  19
ATOM     18  C   UNL     1      -9.571  -3.322 123.511  0.00  0.00    +0.000 C 
ATOM     19  O   UNL     1      -9.579  -2.728 124.816  0.00  0.00    +0.000 OA
ENDBRANCH  12  19
BRANCH  17  20
ATOM     20  O   UNL     1     -10.103   0.377 125.603  0.00  0.00    +0.000 OA
ATOM     21  C   UNL     1     -10.117   1.109 124.486  0.00  0.00    +0.000 C 
ENDBRANCH  17  20
ENDBRANCH   9  15
ENDBRANCH   1   9
BRANCH   1  22
ATOM     22  C   UNL     1      -7.460   4.200 126.647  0.00  0.00    +0.000 C 
BRANCH  22  23
ATOM     23  C   UNL     1      -7.635   3.886 125.226  0.00  0.00    +0.000 C 
ATOM     24  O   UNL     1      -8.857   4.175 125.251  0.00  0.00    +0.000 OA
ATOM     25  N   UNL     1      -6.963   3.336 124.179  0.00  0.00    +0.000 N 
ATOM     26  H   UNL     1      -6.390   2.552 124.480  0.00  0.00    +0.000 HD
BRANCH  25  27
ATOM     27  C   UNL     1      -7.107   3.427 122.595  0.00  0.00    +0.000 A 
ATOM     28  C   UNL     1      -8.620   3.221 121.973  0.00  0.00    +0.000 A 
ATOM     29  C   UNL     1      -8.950   3.647 120.441  0.00  0.00    +0.000 A 
ATOM     30  C   UNL     1      -7.832   4.211 119.551  0.00  0.00    +0.000 A 
ATOM     31  C   UNL     1      -6.403   4.352 120.095  0.00  0.00    +0.000 A 
ATOM     32 CL   UNL     1      -5.349   5.534 119.157  0.00  0.00    +0.000 Cl
ATOM     33  C   UNL     1      -6.003   4.031 121.597  0.00  0.00    +0.000 A 
ATOM     34  C   UNL     1      -4.594   4.643 122.073  0.00  0.00    +0.000 C 
ENDBRANCH  25  27
ENDBRANCH  22  23
ENDBRANCH   1  22
TORSDOF 8
ENDMDL
MODEL 2
REMARK VINA RESULT:      -9.3      3.235      8.038
REMARK  Name = CHEMBL198780
REMARK  12 active torsions:
REMARK  status: ('A' for Active; 'I' for Inactive)
REMARK    1  A    between atoms: C_1  and  O_2
REMARK    2  A    between atoms: O_2  and  C_3
REMARK    3  A    between atoms: C_6  and  S_7
REMARK    4  A    between atoms: S_7  and  N_10
REMARK    5  A    between atoms: N_10  and  C_11
REMARK    6  A    between atoms: N_10  and  C_23
REMARK    7  A    between atoms: C_11  and  C_12
REMARK    8  A    between atoms: N_14  and  C_15
REMARK    9  A    between atoms: C_21  and  C_22
REMARK   10  A    between atoms: C_26  and  C_27
REMARK   11  A    between atoms: C_31  and  O_32
REMARK   12  A    between atoms: O_32  and  C_33
REMARK                            x       y       z     vdW  Elec       q    Type
REMARK                         _______ _______ _______ _____ _____    ______ ____
ROOT
ATOM      1  N   UNL     1      -7.597   2.051 123.647  0.00  0.00    +0.000 N 
ENDROOT
BRANCH   1   2
ATOM      2  C   UNL     1      -7.350   2.928 122.526  0.00  0.00    +0.000 A 
ATOM      3  C   UNL     1      -8.461   3.235 121.730  0.00  0.00    +0.000 A 
ATOM      4  C   UNL     1      -8.310   3.800 120.476  0.00  0.00    +0.000 A 
ATOM      5  C   UNL     1      -7.046   4.212 120.062  0.00  0.00    +0.000 A 
ATOM      6  C   UNL     1      -6.902   5.036 118.828  0.00  0.00    +0.000 C 
ATOM      7  C   UNL     1      -5.926   3.924 120.849  0.00  0.00    +0.000 A 
ATOM      8  C   UNL     1      -6.078   3.261 122.067  0.00  0.00    +0.000 A 
ENDBRANCH   1   2
BRANCH   1   9
ATOM      9  S   UNL     1      -8.118   2.904 125.299  0.00  0.00    +0.000 S 
ATOM     10  O   UNL     1      -8.930   1.889 125.964  0.00  0.00    +0.000 OA
ATOM     11  O   UNL     1      -8.774   4.158 124.946  0.00  0.00    +0.000 OA
BRANCH   9  15
ATOM     12  C   UNL     1      -4.706   4.325 128.393  0.00  0.00    +0.000 A 
ATOM     13  C   UNL     1      -6.059   4.255 128.789  0.00  0.00    +0.000 A 
ATOM     14  C   UNL     1      -7.175   3.868 127.919  0.00  0.00    +0.000 A 
ATOM     15  C   UNL     1      -6.923   3.480 126.628  0.00  0.00    +0.000 A 
ATOM     16  C   UNL     1      -5.588   3.627 126.395  0.00  0.00    +0.000 A 
ATOM     17  C   UNL     1      -4.538   4.183 127.051  0.00  0.00    +0.000 A 
BRANCH  12  19
ATOM     18  C   UNL     1      -2.783   5.513 129.327  0.00  0.00    +0.000 C 
ATOM     19  O   UNL     1      -3.761   4.466 129.388  0.00  0.00    +0.000 OA
ENDBRANCH  12  19
BRANCH  17  20
ATOM     20  O   UNL     1      -3.504   4.059 126.179  0.00  0.00    +0.000 OA
ATOM     21  C   UNL     1      -3.014   2.858 126.495  0.00  0.00    +0.000 C 
ENDBRANCH  17  20
ENDBRANCH   9  15
ENDBRANCH   1   9
BRANCH   1  22
ATOM     22  C   UNL     1      -7.025   0.447 123.304  0.00  0.00    +0.000 C 
BRANCH  22  23
ATOM     23  C   UNL     1      -7.274  -0.452 124.434  0.00  0.00    +0.000 C 
ATOM     24  O   UNL     1      -6.067  -0.795 124.504  0.00  0.00    +0.000 OA
ATOM     25  N   UNL     1      -8.301  -0.987 125.148  0.00  0.00    +0.000 N 
ATOM     26  H   UNL     1      -9.090  -1.209 124.548  0.00  0.00    +0.000 HD
BRANCH  25  27
ATOM     27  C   UNL     1      -8.430  -1.620 126.605  0.00  0.00    +0.000 A 
ATOM     28  C   UNL     1      -9.106  -3.119 126.706  0.00  0.00    +0.000 A 
ATOM     29  C   UNL     1      -8.961  -4.004 128.060  0.00  0.00    +0.000 A 
ATOM     30  C   UNL     1      -8.218  -3.421 129.272  0.00  0.00    +0.000 A 
ATOM     31  C   UNL     1      -7.635  -2.001 129.217  0.00  0.00    +0.000 A 
ATOM     32 CL   UNL     1      -6.324  -1.672 130.466  0.00  0.00    +0.000 Cl
ATOM     33  C   UNL     1      -7.666  -1.094 127.915  0.00  0.00    +0.000 A 
ATOM     34  C   UNL     1      -6.645   0.149 127.927  0.00  0.00    +0.000 C 
ENDBRANCH  25  27
ENDBRANCH  22  23
ENDBRANCH   1  22
TORSDOF 8
ENDMDL
MODEL 3
REMARK VINA RESULT:      -9.0      3.388      7.526
REMARK  Name = CHEMBL198780
REMARK  12 active torsions:
REMARK  status: ('A' for Active; 'I' for Inactive)
REMARK    1  A    between atoms: C_1  and  O_2
REMARK    2  A    between atoms: O_2  and  C_3
REMARK    3  A    between atoms: C_6  and  S_7
REMARK    4  A    between atoms: S_7  and  N_10
REMARK    5  A    between atoms: N_10  and  C_11
REMARK    6  A    between atoms: N_10  and  C_23
REMARK    7  A    between atoms: C_11  and  C_12
REMARK    8  A    between atoms: N_14  and  C_15
REMARK    9  A    between atoms: C_21  and  C_22
REMARK   10  A    between atoms: C_26  and  C_27
REMARK   11  A    between atoms: C_31  and  O_32
REMARK   12  A    between atoms: O_32  and  C_33
REMARK                            x       y       z     vdW  Elec       q    Type
REMARK                         _______ _______ _______ _____ _____    ______ ____
ROOT
ATOM      1  N   UNL     1      -7.588   2.055 123.590  0.00  0.00    +0.000 N 
ENDROOT
BRANCH   1   2
ATOM      2  C   UNL     1      -7.044   3.034 122.676  0.00  0.00    +0.000 A 
ATOM      3  C   UNL     1      -7.771   3.244 121.498  0.00  0.00    +0.000 A 
ATOM      4  C   UNL     1      -7.212   3.910 120.421  0.00  0.00    +0.000 A 
ATOM      5  C   UNL     1      -5.967   4.516 120.566  0.00  0.00    +0.000 A 
ATOM      6  C   UNL     1      -5.462   5.437 119.507  0.00  0.00    +0.000 C 
ATOM      7  C   UNL     1      -5.231   4.327 121.741  0.00  0.00    +0.000 A 
ATOM      8  C   UNL     1      -5.762   3.566 122.783  0.00  0.00    +0.000 A 
ENDBRANCH   1   2
BRANCH   1   9
ATOM      9  S   UNL     1      -8.358   2.746 125.220  0.00  0.00    +0.000 S 
ATOM     10  O   UNL     1      -9.459   1.826 125.491  0.00  0.00    +0.000 OA
ATOM     11  O   UNL     1      -8.700   4.142 124.975  0.00  0.00    +0.000 OA
BRANCH   9  15
ATOM     12  C   UNL     1      -6.431   2.930 129.635  0.00  0.00    +0.000 A 
ATOM     13  C   UNL     1      -5.677   3.297 128.499  0.00  0.00    +0.000 A 
ATOM     14  C   UNL     1      -6.157   3.246 127.114  0.00  0.00    +0.000 A 
ATOM     15  C   UNL     1      -7.452   2.874 126.860  0.00  0.00    +0.000 A 
ATOM     16  C   UNL     1      -8.033   2.529 128.044  0.00  0.00    +0.000 A 
ATOM     17  C   UNL     1      -7.608   2.328 129.317  0.00  0.00    +0.000 A 
BRANCH  12  19
ATOM     18  C   UNL     1      -6.443   4.385 131.600  0.00  0.00    +0.000 C 
ATOM     19  O   UNL     1      -5.921   3.267 130.871  0.00  0.00    +0.000 OA
ENDBRANCH  12  19
BRANCH  17  20
ATOM     20  O   UNL     1      -8.721   1.897 129.968  0.00  0.00    +0.000 OA
ATOM     21  C   UNL     1      -9.480   2.996 129.982  0.00  0.00    +0.000 C 
ENDBRANCH  17  20
ENDBRANCH   9  15
ENDBRANCH   1   9
BRANCH   1  22
ATOM     22  C   UNL     1      -7.098   0.454 123.130  0.00  0.00    +0.000 C 
BRANCH  22  23
ATOM     23  C   UNL     1      -7.267  -0.487 124.241  0.00  0.00    +0.000 C 
ATOM     24  O   UNL     1      -6.147  -1.019 124.038  0.00  0.00    +0.000 OA
ATOM     25  N   UNL     1      -8.207  -0.911 125.128  0.00  0.00    +0.000 N 
ATOM     26  H   UNL     1      -9.126  -0.955 124.698  0.00  0.00    +0.000 HD
BRANCH  25  27
ATOM     27  C   UNL     1      -8.149  -1.635 126.546  0.00  0.00    +0.000 A 
ATOM     28  C   UNL     1      -9.102  -2.965 126.740  0.00  0.00    +0.000 A 
ATOM     29  C   UNL     1      -8.862  -3.983 127.984  0.00  0.00    +0.000 A 
ATOM     30  C   UNL     1      -7.760  -3.679 129.011  0.00  0.00    +0.000 A 
ATOM     31  C   UNL     1      -6.903  -2.412 128.880  0.00  0.00    +0.000 A 
ATOM     32 CL   UNL     1      -5.310  -2.477 129.799  0.00  0.00    +0.000 Cl
ATOM     33  C   UNL     1      -7.018  -1.401 127.661  0.00  0.00    +0.000 A 
ATOM     34  C   UNL     1      -5.769  -0.402 127.485  0.00  0.00    +0.000 C 
ENDBRANCH  25  27
ENDBRANCH  22  23
ENDBRANCH   1  22
TORSDOF 8
ENDMDL
MODEL 4
REMARK VINA RESULT:      -8.9      3.397      8.201
REMARK  Name = CHEMBL198780
REMARK  12 active torsions:
REMARK  status: ('A' for Active; 'I' for Inactive)
REMARK    1  A    between atoms: C_1  and  O_2
REMARK    2  A    between atoms: O_2  and  C_3
REMARK    3  A    between atoms: C_6  and  S_7
REMARK    4  A    between atoms: S_7  and  N_10
REMARK    5  A    between atoms: N_10  and  C_11
REMARK    6  A    between atoms: N_10  and  C_23
REMARK    7  A    between atoms: C_11  and  C_12
REMARK    8  A    between atoms: N_14  and  C_15
REMARK    9  A    between atoms: C_21  and  C_22
REMARK   10  A    between atoms: C_26  and  C_27
REMARK   11  A    between atoms: C_31  and  O_32
REMARK   12  A    between atoms: O_32  and  C_33
REMARK                            x       y       z     vdW  Elec       q    Type
REMARK                         _______ _______ _______ _____ _____    ______ ____
ROOT
ATOM      1  N   UNL     1      -7.938   2.449 123.698  0.00  0.00    +0.000 N 
ENDROOT
BRANCH   1   2
ATOM      2  C   UNL     1      -7.613   3.165 122.485  0.00  0.00    +0.000 A 
ATOM      3  C   UNL     1      -8.685   3.435 121.627  0.00  0.00    +0.000 A 
ATOM      4  C   UNL     1      -8.472   3.830 120.317  0.00  0.00    +0.000 A 
ATOM      5  C   UNL     1      -7.177   4.114 119.894  0.00  0.00    +0.000 A 
ATOM      6  C   UNL     1      -6.956   4.769 118.572  0.00  0.00    +0.000 C 
ATOM      7  C   UNL     1      -6.094   3.861 120.742  0.00  0.00    +0.000 A 
ATOM      8  C   UNL     1      -6.313   3.364 122.027  0.00  0.00    +0.000 A 
ENDBRANCH   1   2
BRANCH   1   9
ATOM      9  S   UNL     1      -7.727   3.428 125.349  0.00  0.00    +0.000 S 
ATOM     10  O   UNL     1      -8.438   2.606 126.324  0.00  0.00    +0.000 OA
ATOM     11  O   UNL     1      -8.233   4.775 125.116  0.00  0.00    +0.000 OA
BRANCH   9  15
ATOM     12  C   UNL     1      -3.741   4.478 127.849  0.00  0.00    +0.000 A 
ATOM     13  C   UNL     1      -3.664   4.072 126.498  0.00  0.00    +0.000 A 
ATOM     14  C   UNL     1      -4.810   3.700 125.662  0.00  0.00    +0.000 A 
ATOM     15  C   UNL     1      -6.079   3.795 126.171  0.00  0.00    +0.000 A 
ATOM     16  C   UNL     1      -5.983   4.169 127.478  0.00  0.00    +0.000 A 
ATOM     17  C   UNL     1      -4.980   4.309 128.383  0.00  0.00    +0.000 A 
BRANCH  12  19
ATOM     18  C   UNL     1      -2.355   6.433 128.335  0.00  0.00    +0.000 C 
ATOM     19  O   UNL     1      -2.607   5.024 128.413  0.00  0.00    +0.000 OA
ENDBRANCH  12  19
BRANCH  17  20
ATOM     20  O   UNL     1      -5.624   4.619 129.538  0.00  0.00    +0.000 OA
ATOM     21  C   UNL     1      -5.847   3.413 130.067  0.00  0.00    +0.000 C 
ENDBRANCH  17  20
ENDBRANCH   9  15
ENDBRANCH   1   9
BRANCH   1  22
ATOM     22  C   UNL     1      -8.117   0.752 123.375  0.00  0.00    +0.000 C 
BRANCH  22  23
ATOM     23  C   UNL     1      -7.548  -0.053 124.459  0.00  0.00    +0.000 C 
ATOM     24  O   UNL     1      -6.740  -0.628 123.689  0.00  0.00    +0.000 OA
ATOM     25  N   UNL     1      -7.758  -0.354 125.769  0.00  0.00    +0.000 N 
ATOM     26  H   UNL     1      -8.750  -0.428 125.975  0.00  0.00    +0.000 HD
BRANCH  25  27
ATOM     27  C   UNL     1      -6.837  -0.914 126.942  0.00  0.00    +0.000 A 
ATOM     28  C   UNL     1      -5.739   0.132 127.588  0.00  0.00    +0.000 A 
ATOM     29  C   UNL     1      -5.013  -0.199 129.004  0.00  0.00    +0.000 A 
ATOM     30  C   UNL     1      -5.325  -1.518 129.727  0.00  0.00    +0.000 A 
ATOM     31  C   UNL     1      -6.299  -2.532 129.109  0.00  0.00    +0.000 A 
ATOM     32 CL   UNL     1      -6.997  -3.740 130.309  0.00  0.00    +0.000 Cl
ATOM     33  C   UNL     1      -7.108  -2.263 127.770  0.00  0.00    +0.000 A 
ATOM     34  C   UNL     1      -8.369  -3.232 127.529  0.00  0.00    +0.000 C 
ENDBRANCH  25  27
ENDBRANCH  22  23
ENDBRANCH   1  22
TORSDOF 8
ENDMDL
MODEL 5
REMARK VINA RESULT:      -8.9      5.421      8.516
REMARK  Name = CHEMBL198780
REMARK  12 active torsions:
REMARK  status: ('A' for Active; 'I' for Inactive)
REMARK    1  A    between atoms: C_1  and  O_2
REMARK    2  A    between atoms: O_2  and  C_3
REMARK    3  A    between atoms: C_6  and  S_7
REMARK    4  A    between atoms: S_7  and  N_10
REMARK    5  A    between atoms: N_10  and  C_11
REMARK    6  A    between atoms: N_10  and  C_23
REMARK    7  A    between atoms: C_11  and  C_12
REMARK    8  A    between atoms: N_14  and  C_15
REMARK    9  A    between atoms: C_21  and  C_22
REMARK   10  A    between atoms: C_26  and  C_27
REMARK   11  A    between atoms: C_31  and  O_32
REMARK   12  A    between atoms: O_32  and  C_33
REMARK                            x       y       z     vdW  Elec       q    Type
REMARK                         _______ _______ _______ _____ _____    ______ ____
ROOT
ATOM      1  N   UNL     1      -8.679   3.459 131.866  0.00  0.00    +0.000 N 
ENDROOT
BRANCH   1   2
ATOM      2  C   UNL     1      -7.993   4.314 132.808  0.00  0.00    +0.000 A 
ATOM      3  C   UNL     1      -6.623   4.500 132.584  0.00  0.00    +0.000 A 
ATOM      4  C   UNL     1      -5.803   5.032 133.565  0.00  0.00    +0.000 A 
ATOM      5  C   UNL     1      -6.374   5.534 134.731  0.00  0.00    +0.000 A 
ATOM      6  C   UNL     1      -5.541   6.324 135.683  0.00  0.00    +0.000 C 
ATOM      7  C   UNL     1      -7.743   5.368 134.967  0.00  0.00    +0.000 A 
ATOM      8  C   UNL     1      -8.544   4.737 134.015  0.00  0.00    +0.000 A 
ENDBRANCH   1   2
BRANCH   1   9
ATOM      9  S   UNL     1      -9.321   4.306 130.255  0.00  0.00    +0.000 S 
ATOM     10  O   UNL     1     -10.046   3.236 129.576  0.00  0.00    +0.000 OA
ATOM     11  O   UNL     1      -8.160   4.863 129.572  0.00  0.00    +0.000 OA
BRANCH   9  15
ATOM     12  C   UNL     1     -12.079   8.234 129.813  0.00  0.00    +0.000 A 
ATOM     13  C   UNL     1     -12.404   7.221 130.741  0.00  0.00    +0.000 A 
ATOM     14  C   UNL     1     -11.653   5.976 130.930  0.00  0.00    +0.000 A 
ATOM     15  C   UNL     1     -10.504   5.764 130.212  0.00  0.00    +0.000 A 
ATOM     16  C   UNL     1     -10.343   6.809 129.351  0.00  0.00    +0.000 A 
ATOM     17  C   UNL     1     -11.092   7.867 128.952  0.00  0.00    +0.000 A 
BRANCH  12  19
ATOM     18  C   UNL     1     -13.482   9.980 128.831  0.00  0.00    +0.000 C 
ATOM     19  O   UNL     1     -12.740   9.439 129.932  0.00  0.00    +0.000 OA
ENDBRANCH  12  19
BRANCH  17  20
ATOM     20  O   UNL     1     -10.341   8.451 127.982  0.00  0.00    +0.000 OA
ATOM     21  C   UNL     1     -10.858   7.921 126.870  0.00  0.00    +0.000 C 
ENDBRANCH  17  20
ENDBRANCH   9  15
ENDBRANCH   1   9
BRANCH   1  22
ATOM     22  C   UNL     1      -9.050   1.926 132.594  0.00  0.00    +0.000 C 
BRANCH  22  23
ATOM     23  C   UNL     1      -8.750   0.823 131.678  0.00  0.00    +0.000 C 
ATOM     24  O   UNL     1      -9.814   0.219 131.962  0.00  0.00    +0.000 OA
ATOM     25  N   UNL     1      -7.743   0.348 130.895  0.00  0.00    +0.000 N 
ATOM     26  H   UNL     1      -6.838   0.481 131.338  0.00  0.00    +0.000 HD
BRANCH  25  27
ATOM     27  C   UNL     1      -7.681  -0.625 129.635  0.00  0.00    +0.000 A 
ATOM     28  C   UNL     1      -7.916  -2.230 129.922  0.00  0.00    +0.000 A 
ATOM     29  C   UNL     1      -8.235  -3.252 128.700  0.00  0.00    +0.000 A 
ATOM     30  C   UNL     1      -8.277  -2.723 127.259  0.00  0.00    +0.000 A 
ATOM     31  C   UNL     1      -8.000  -1.241 126.967  0.00  0.00    +0.000 A 
ATOM     32 CL   UNL     1      -8.636  -0.658 125.341  0.00  0.00    +0.000 Cl
ATOM     33  C   UNL     1      -7.752  -0.158 128.100  0.00  0.00    +0.000 A 
ATOM     34  C   UNL     1      -7.913   1.371 127.628  0.00  0.00    +0.000 C 
ENDBRANCH  25  27
ENDBRANCH  22  23
ENDBRANCH   1  22
TORSDOF 8
ENDMDL
MODEL 6
REMARK VINA RESULT:      -8.9      6.121      8.937
REMARK  Name = CHEMBL198780
REMARK  12 active torsions:
REMARK  status: ('A' for Active; 'I' for Inactive)
REMARK    1  A    between atoms: C_1  and  O_2
REMARK    2  A    between atoms: O_2  and  C_3
REMARK    3  A    between atoms: C_6  and  S_7
REMARK    4  A    between atoms: S_7  and  N_10
REMARK    5  A    between atoms: N_10  and  C_11
REMARK    6  A    between atoms: N_10  and  C_23
REMARK    7  A    between atoms: C_11  and  C_12
REMARK    8  A    between atoms: N_14  and  C_15
REMARK    9  A    between atoms: C_21  and  C_22
REMARK   10  A    between atoms: C_26  and  C_27
REMARK   11  A    between atoms: C_31  and  O_32
REMARK   12  A    between atoms: O_32  and  C_33
REMARK                            x       y       z     vdW  Elec       q    Type
REMARK                         _______ _______ _______ _____ _____    ______ ____
ROOT
ATOM      1  N   UNL     1      -8.066   3.966 131.185  0.00  0.00    +0.000 N 
ENDROOT
BRANCH   1   2
ATOM      2  C   UNL     1      -6.914   4.839 131.186  0.00  0.00    +0.000 A 
ATOM      3  C   UNL     1      -7.176   6.200 131.384  0.00  0.00    +0.000 A 
ATOM      4  C   UNL     1      -6.220   7.161 131.105  0.00  0.00    +0.000 A 
ATOM      5  C   UNL     1      -4.928   6.760 130.771  0.00  0.00    +0.000 A 
ATOM      6  C   UNL     1      -3.833   7.770 130.707  0.00  0.00    +0.000 C 
ATOM      7  C   UNL     1      -4.646   5.404 130.581  0.00  0.00    +0.000 A 
ATOM      8  C   UNL     1      -5.646   4.448 130.764  0.00  0.00    +0.000 A 
ENDBRANCH   1   2
BRANCH   1   9
ATOM      9  S   UNL     1      -9.441   4.369 129.890  0.00  0.00    +0.000 S 
ATOM     10  O   UNL     1     -10.312   3.199 129.945  0.00  0.00    +0.000 OA
ATOM     11  O   UNL     1      -8.771   4.643 128.625  0.00  0.00    +0.000 OA
BRANCH   9  15
ATOM     12  C   UNL     1     -12.220   8.307 129.828  0.00  0.00    +0.000 A 
ATOM     13  C   UNL     1     -12.464   7.262 130.745  0.00  0.00    +0.000 A 
ATOM     14  C   UNL     1     -11.701   6.012 130.825  0.00  0.00    +0.000 A 
ATOM     15  C   UNL     1     -10.620   5.826 130.001  0.00  0.00    +0.000 A 
ATOM     16  C   UNL     1     -10.534   6.900 129.166  0.00  0.00    +0.000 A 
ATOM     17  C   UNL     1     -11.314   7.971 128.871  0.00  0.00    +0.000 A 
BRANCH  12  19
ATOM     18  C   UNL     1     -13.538  10.182 128.975  0.00  0.00    +0.000 C 
ATOM     19  O   UNL     1     -12.865   9.507 130.046  0.00  0.00    +0.000 OA
ENDBRANCH  12  19
BRANCH  17  20
ATOM     20  O   UNL     1     -10.650   8.588 127.859  0.00  0.00    +0.000 OA
ATOM     21  C   UNL     1     -10.961   7.821 126.811  0.00  0.00    +0.000 C 
ENDBRANCH  17  20
ENDBRANCH   9  15
ENDBRANCH   1   9
BRANCH   1  22
ATOM     22  C   UNL     1      -8.071   2.961 132.601  0.00  0.00    +0.000 C 
BRANCH  22  23
ATOM     23  C   UNL     1      -7.501   1.642 132.312  0.00  0.00    +0.000 C 
ATOM     24  O   UNL     1      -7.402   1.352 133.530  0.00  0.00    +0.000 OA
ATOM     25  N   UNL     1      -7.026   0.906 131.271  0.00  0.00    +0.000 N 
ATOM     26  H   UNL     1      -6.512   1.486 130.614  0.00  0.00    +0.000 HD
BRANCH  25  27
ATOM     27  C   UNL     1      -6.821  -0.653 131.016  0.00  0.00    +0.000 A 
ATOM     28  C   UNL     1      -8.086  -1.469 130.344  0.00  0.00    +0.000 A 
ATOM     29  C   UNL     1      -7.873  -2.950 129.711  0.00  0.00    +0.000 A 
ATOM     30  C   UNL     1      -6.488  -3.611 129.774  0.00  0.00    +0.000 A 
ATOM     31  C   UNL     1      -5.313  -2.891 130.451  0.00  0.00    +0.000 A 
ATOM     32 CL   UNL     1      -3.655  -3.516 129.954  0.00  0.00    +0.000 Cl
ATOM     33  C   UNL     1      -5.409  -1.417 131.031  0.00  0.00    +0.000 A 
ATOM     34  C   UNL     1      -3.995  -0.696 131.295  0.00  0.00    +0.000 C 
ENDBRANCH  25  27
ENDBRANCH  22  23
ENDBRANCH   1  22
TORSDOF 8
ENDMDL
MODEL 7
REMARK VINA RESULT:      -8.8      5.182      7.833
REMARK  Name = CHEMBL198780
REMARK  12 active torsions:
REMARK  status: ('A' for Active; 'I' for Inactive)
REMARK    1  A    between atoms: C_1  and  O_2
REMARK    2  A    between atoms: O_2  and  C_3
REMARK    3  A    between atoms: C_6  and  S_7
REMARK    4  A    between atoms: S_7  and  N_10
REMARK    5  A    between atoms: N_10  and  C_11
REMARK    6  A    between atoms: N_10  and  C_23
REMARK    7  A    between atoms: C_11  and  C_12
REMARK    8  A    between atoms: N_14  and  C_15
REMARK    9  A    between atoms: C_21  and  C_22
REMARK   10  A    between atoms: C_26  and  C_27
REMARK   11  A    between atoms: C_31  and  O_32
REMARK   12  A    between atoms: O_32  and  C_33
REMARK                            x       y       z     vdW  Elec       q    Type
REMARK                         _______ _______ _______ _____ _____    ______ ____
ROOT
ATOM      1  N   UNL     1      -7.233  -2.413 130.406  0.00  0.00    +0.000 N 
ENDROOT
BRANCH   1   2
ATOM      2  C   UNL     1      -6.686  -3.147 131.525  0.00  0.00    +0.000 A 
ATOM      3  C   UNL     1      -5.705  -4.097 131.215  0.00  0.00    +0.000 A 
ATOM      4  C   UNL     1      -5.330  -5.063 132.132  0.00  0.00    +0.000 A 
ATOM      5  C   UNL     1      -5.820  -4.995 133.433  0.00  0.00    +0.000 A 
ATOM      6  C   UNL     1      -5.242  -5.875 134.490  0.00  0.00    +0.000 C 
ATOM      7  C   UNL     1      -6.792  -4.045 133.764  0.00  0.00    +0.000 A 
ATOM      8  C   UNL     1      -7.240  -3.139 132.803  0.00  0.00    +0.000 A 
ENDBRANCH   1   2
BRANCH   1   9
ATOM      9  S   UNL     1      -6.861  -0.519 130.365  0.00  0.00    +0.000 S 
ATOM     10  O   UNL     1      -6.426  -0.289 128.990  0.00  0.00    +0.000 OA
ATOM     11  O   UNL     1      -5.898  -0.248 131.425  0.00  0.00    +0.000 OA
BRANCH   9  15
ATOM     12  C   UNL     1      -9.961   3.150 130.775  0.00  0.00    +0.000 A 
ATOM     13  C   UNL     1      -9.945   2.105 131.724  0.00  0.00    +0.000 A 
ATOM     14  C   UNL     1      -9.068   0.931 131.674  0.00  0.00    +0.000 A 
ATOM     15  C   UNL     1      -8.134   0.828 130.675  0.00  0.00    +0.000 A 
ATOM     16  C   UNL     1      -8.293   1.889 129.835  0.00  0.00    +0.000 A 
ATOM     17  C   UNL     1      -9.208   2.879 129.676  0.00  0.00    +0.000 A 
BRANCH  12  19
ATOM     18  C   UNL     1     -10.032   5.375 131.786  0.00  0.00    +0.000 C 
ATOM     19  O   UNL     1     -10.668   4.290 131.098  0.00  0.00    +0.000 OA
ENDBRANCH  12  19
BRANCH  17  20
ATOM     20  O   UNL     1      -8.790   3.534 128.561  0.00  0.00    +0.000 OA
ATOM     21  C   UNL     1      -7.718   4.193 129.009  0.00  0.00    +0.000 C 
ENDBRANCH  17  20
ENDBRANCH   9  15
ENDBRANCH   1   9
BRANCH   1  22
ATOM     22  C   UNL     1      -8.389  -3.383 129.548  0.00  0.00    +0.000 C 
BRANCH  22  23
ATOM     23  C   UNL     1      -8.318  -3.133 128.106  0.00  0.00    +0.000 C 
ATOM     24  O   UNL     1      -9.001  -4.152 127.834  0.00  0.00    +0.000 OA
ATOM     25  N   UNL     1      -7.695  -2.323 127.207  0.00  0.00    +0.000 N 
ATOM     26  H   UNL     1      -6.734  -2.139 127.482  0.00  0.00    +0.000 HD
BRANCH  25  27
ATOM     27  C   UNL     1      -8.010  -1.873 125.712  0.00  0.00    +0.000 A 
ATOM     28  C   UNL     1      -8.162  -3.072 124.591  0.00  0.00    +0.000 A 
ATOM     29  C   UNL     1      -8.831  -2.772 123.142  0.00  0.00    +0.000 A 
ATOM     30  C   UNL     1      -9.290  -1.346 122.798  0.00  0.00    +0.000 A 
ATOM     31  C   UNL     1      -9.101  -0.205 123.807  0.00  0.00    +0.000 A 
ATOM     32 CL   UNL     1     -10.182   1.255 123.510  0.00  0.00    +0.000 Cl
ATOM     33  C   UNL     1      -8.525  -0.418 125.271  0.00  0.00    +0.000 A 
ATOM     34  C   UNL     1      -8.807   0.789 126.296  0.00  0.00    +0.000 C 
ENDBRANCH  25  27
ENDBRANCH  22  23
ENDBRANCH   1  22
TORSDOF 8
ENDMDL
MODEL 8
REMARK VINA RESULT:      -8.7      2.820      5.381
REMARK  Name = CHEMBL198780
REMARK  12 active torsions:
REMARK  status: ('A' for Active; 'I' for Inactive)
REMARK    1  A    between atoms: C_1  and  O_2
REMARK    2  A    between atoms: O_2  and  C_3
REMARK    3  A    between atoms: C_6  and  S_7
REMARK    4  A    between atoms: S_7  and  N_10
REMARK    5  A    between atoms: N_10  and  C_11
REMARK    6  A    between atoms: N_10  and  C_23
REMARK    7  A    between atoms: C_11  and  C_12
REMARK    8  A    between atoms: N_14  and  C_15
REMARK    9  A    between atoms: C_21  and  C_22
REMARK   10  A    between atoms: C_26  and  C_27
REMARK   11  A    between atoms: C_31  and  O_32
REMARK   12  A    between atoms: O_32  and  C_33
REMARK                            x       y       z     vdW  Elec       q    Type
REMARK                         _______ _______ _______ _____ _____    ______ ____
ROOT
ATOM      1  N   UNL     1      -5.216   2.294 128.871  0.00  0.00    +0.000 N 
ENDROOT
BRANCH   1   2
ATOM      2  C   UNL     1      -4.211   3.330 128.936  0.00  0.00    +0.000 A 
ATOM      3  C   UNL     1      -4.241   4.146 130.074  0.00  0.00    +0.000 A 
ATOM      4  C   UNL     1      -3.549   5.343 130.115  0.00  0.00    +0.000 A 
ATOM      5  C   UNL     1      -2.684   5.667 129.073  0.00  0.00    +0.000 A 
ATOM      6  C   UNL     1      -1.753   6.824 129.214  0.00  0.00    +0.000 C 
ATOM      7  C   UNL     1      -2.631   4.858 127.933  0.00  0.00    +0.000 A 
ATOM      8  C   UNL     1      -3.413   3.705 127.857  0.00  0.00    +0.000 A 
ENDBRANCH   1   2
BRANCH   1   9
ATOM      9  S   UNL     1      -7.002   2.866 128.410  0.00  0.00    +0.000 S 
ATOM     10  O   UNL     1      -6.816   4.252 127.990  0.00  0.00    +0.000 OA
ATOM     11  O   UNL     1      -7.843   2.629 129.577  0.00  0.00    +0.000 OA
BRANCH   9  15
ATOM     12  C   UNL     1      -9.603   1.314 124.660  0.00  0.00    +0.000 A 
ATOM     13  C   UNL     1      -9.477   0.532 125.829  0.00  0.00    +0.000 A 
ATOM     14  C   UNL     1      -8.686   0.896 127.008  0.00  0.00    +0.000 A 
ATOM     15  C   UNL     1      -8.048   2.109 127.046  0.00  0.00    +0.000 A 
ATOM     16  C   UNL     1      -8.242   2.727 125.847  0.00  0.00    +0.000 A 
ATOM     17  C   UNL     1      -8.754   2.376 124.640  0.00  0.00    +0.000 A 
BRANCH  12  19
ATOM     18  C   UNL     1     -10.216   0.540 122.423  0.00  0.00    +0.000 C 
ATOM     19  O   UNL     1     -10.573   0.945 123.751  0.00  0.00    +0.000 OA
ENDBRANCH  12  19
BRANCH  17  20
ATOM     20  O   UNL     1      -8.535   3.468 123.862  0.00  0.00    +0.000 OA
ATOM     21  C   UNL     1      -7.534   3.058 123.080  0.00  0.00    +0.000 C 
ENDBRANCH  17  20
ENDBRANCH   9  15
ENDBRANCH   1   9
BRANCH   1  22
ATOM     22  C   UNL     1      -4.618   0.820 129.566  0.00  0.00    +0.000 C 
BRANCH  22  23
ATOM     23  C   UNL     1      -5.256  -0.348 128.952  0.00  0.00    +0.000 C 
ATOM     24  O   UNL     1      -5.624  -0.805 130.063  0.00  0.00    +0.000 OA
ATOM     25  N   UNL     1      -5.371  -0.973 127.750  0.00  0.00    +0.000 N 
ATOM     26  H   UNL     1      -4.500  -0.934 127.228  0.00  0.00    +0.000 HD
BRANCH  25  27
ATOM     27  C   UNL     1      -6.422  -1.996 127.126  0.00  0.00    +0.000 A 
ATOM     28  C   UNL     1      -7.439  -2.751 128.180  0.00  0.00    +0.000 A 
ATOM     29  C   UNL     1      -8.767  -3.519 127.643  0.00  0.00    +0.000 A 
ATOM     30  C   UNL     1      -9.055  -3.573 126.135  0.00  0.00    +0.000 A 
ATOM     31  C   UNL     1      -8.086  -2.927 125.135  0.00  0.00    +0.000 A 
ATOM     32 CL   UNL     1      -8.825  -2.573 123.487  0.00  0.00    +0.000 Cl
ATOM     33  C   UNL     1      -6.806  -2.096 125.570  0.00  0.00    +0.000 A 
ATOM     34  C   UNL     1      -6.182  -1.156 124.423  0.00  0.00    +0.000 C 
ENDBRANCH  25  27
ENDBRANCH  22  23
ENDBRANCH   1  22
TORSDOF 8
ENDMDL
MODEL 9
REMARK VINA RESULT:      -8.7      5.002      8.396
REMARK  Name = CHEMBL198780
REMARK  12 active torsions:
REMARK  status: ('A' for Active; 'I' for Inactive)
REMARK    1  A    between atoms: C_1  and  O_2
REMARK    2  A    between atoms: O_2  and  C_3
REMARK    3  A    between atoms: C_6  and  S_7
REMARK    4  A    between atoms: S_7  and  N_10
REMARK    5  A    between atoms: N_10  and  C_11
REMARK    6  A    between atoms: N_10  and  C_23
REMARK    7  A    between atoms: C_11  and  C_12
REMARK    8  A    between atoms: N_14  and  C_15
REMARK    9  A    between atoms: C_21  and  C_22
REMARK   10  A    between atoms: C_26  and  C_27
REMARK   11  A    between atoms: C_31  and  O_32
REMARK   12  A    between atoms: O_32  and  C_33
REMARK                            x       y       z     vdW  Elec       q    Type
REMARK                         _______ _______ _______ _____ _____    ______ ____
ROOT
ATOM      1  N   UNL     1      -9.963   5.318 131.403  0.00  0.00    +0.000 N 
ENDROOT
BRANCH   1   2
ATOM      2  C   UNL     1     -10.874   6.256 130.787  0.00  0.00    +0.000 A 
ATOM      3  C   UNL     1     -10.374   6.966 129.689  0.00  0.00    +0.000 A 
ATOM      4  C   UNL     1     -11.019   8.093 129.211  0.00  0.00    +0.000 A 
ATOM      5  C   UNL     1     -12.265   8.436 129.728  0.00  0.00    +0.000 A 
ATOM      6  C   UNL     1     -13.079   9.493 129.062  0.00  0.00    +0.000 C 
ATOM      7  C   UNL     1     -12.786   7.730 130.818  0.00  0.00    +0.000 A 
ATOM      8  C   UNL     1     -12.078   6.658 131.360  0.00  0.00    +0.000 A 
ENDBRANCH   1   2
BRANCH   1   9
ATOM      9  S   UNL     1      -9.926   3.543 130.645  0.00  0.00    +0.000 S 
ATOM     10  O   UNL     1     -11.245   3.407 130.034  0.00  0.00    +0.000 OA
ATOM     11  O   UNL     1      -9.593   2.622 131.726  0.00  0.00    +0.000 OA
BRANCH   9  15
ATOM     12  C   UNL     1      -6.696   2.526 127.215  0.00  0.00    +0.000 A 
ATOM     13  C   UNL     1      -7.621   1.553 127.651  0.00  0.00    +0.000 A 
ATOM     14  C   UNL     1      -8.619   1.749 128.707  0.00  0.00    +0.000 A 
ATOM     15  C   UNL     1      -8.738   2.977 129.305  0.00  0.00    +0.000 A 
ATOM     16  C   UNL     1      -7.768   3.790 128.799  0.00  0.00    +0.000 A 
ATOM     17  C   UNL     1      -6.678   3.632 128.006  0.00  0.00    +0.000 A 
BRANCH  12  19
ATOM     18  C   UNL     1      -6.133   3.113 124.909  0.00  0.00    +0.000 C 
ATOM     19  O   UNL     1      -5.997   2.263 126.055  0.00  0.00    +0.000 OA
ENDBRANCH  12  19
BRANCH  17  20
ATOM     20  O   UNL     1      -6.101   4.862 127.996  0.00  0.00    +0.000 OA
ATOM     21  C   UNL     1      -4.828   4.576 128.280  0.00  0.00    +0.000 C 
ENDBRANCH  17  20
ENDBRANCH   9  15
ENDBRANCH   1   9
BRANCH   1  22
ATOM     22  C   UNL     1      -9.370   5.944 132.910  0.00  0.00    +0.000 C 
BRANCH  22  23
ATOM     23  C   UNL     1      -7.905   5.995 132.918  0.00  0.00    +0.000 C 
ATOM     24  O   UNL     1      -7.843   5.725 134.144  0.00  0.00    +0.000 OA
ATOM     25  N   UNL     1      -6.860   6.340 132.120  0.00  0.00    +0.000 N 
ATOM     26  H   UNL     1      -7.077   7.162 131.562  0.00  0.00    +0.000 HD
BRANCH  25  27
ATOM     27  C   UNL     1      -5.312   5.962 132.091  0.00  0.00    +0.000 A 
ATOM     28  C   UNL     1      -4.888   4.515 132.754  0.00  0.00    +0.000 A 
ATOM     29  C   UNL     1      -3.427   3.866 132.463  0.00  0.00    +0.000 A 
ATOM     30  C   UNL     1      -2.417   4.630 131.592  0.00  0.00    +0.000 A 
ATOM     31  C   UNL     1      -2.774   6.007 131.016  0.00  0.00    +0.000 A 
ATOM     32 CL   UNL     1      -1.745   6.515 129.577  0.00  0.00    +0.000 Cl
ATOM     33  C   UNL     1      -4.198   6.685 131.187  0.00  0.00    +0.000 A 
ATOM     34  C   UNL     1      -4.505   7.892 130.169  0.00  0.00    +0.000 C 
ENDBRANCH  25  27
ENDBRANCH  22  23
ENDBRANCH   1  22
TORSDOF 8
ENDMDL
