MODEL 1
REMARK VINA RESULT:     -10.6      0.000      0.000
REMARK  Name = CHEMBL284688
REMARK  8 active torsions:
REMARK  status: ('A' for Active; 'I' for Inactive)
REMARK    1  A    between atoms: C_1  and  C_2
REMARK    2  A    between atoms: C_2  and  C_3
REMARK    3  A    between atoms: N_7  and  C_8
REMARK    4  A    between atoms: C_8  and  C_9
REMARK    5  A    between atoms: N_11  and  C_12
REMARK    6  A    between atoms: C_12  and  C_13
REMARK    7  A    between atoms: C_17  and  C_18
REMARK    8  A    between atoms: C_23  and  N_24
REMARK                            x       y       z     vdW  Elec       q    Type
REMARK                         _______ _______ _______ _____ _____    ______ ____
ROOT
ATOM      1  C   UNL     1      -8.297  -2.878 127.397  0.00  0.00    +0.000 A 
ATOM      2  C   UNL     1      -8.207  -1.507 127.545  0.00  0.00    +0.000 A 
ATOM      3  C   UNL     1      -7.882  -1.258 128.897  0.00  0.00    +0.000 A 
ATOM      4  C   UNL     1      -7.648  -0.105 129.674  0.00  0.00    +0.000 A 
ATOM      5  C   UNL     1      -7.355  -0.244 131.043  0.00  0.00    +0.000 A 
ATOM      6  C   UNL     1      -7.336  -1.530 131.611  0.00  0.00    +0.000 A 
ATOM      7  C   UNL     1      -7.530  -2.691 130.848  0.00  0.00    +0.000 A 
ATOM      8  C   UNL     1      -7.807  -2.510 129.499  0.00  0.00    +0.000 A 
ATOM      9  O   UNL     1      -8.052  -3.500 128.586  0.00  0.00    +0.000 OA
ENDROOT
BRANCH   5  10
ATOM     10  C   UNL     1      -7.172   1.004 131.865  0.00  0.00    +0.000 C 
ATOM     11  O   UNL     1      -6.322   1.045 132.751  0.00  0.00    +0.000 OA
ATOM     12  N   UNL     1      -7.921   2.117 131.521  0.00  0.00    +0.000 N 
ATOM     13  C   UNL     1      -7.250   3.388 131.262  0.00  0.00    +0.000 C 
ATOM     14  C   UNL     1      -7.775   4.494 132.158  0.00  0.00    +0.000 C 
ATOM     15  C   UNL     1      -9.314   4.595 132.082  0.00  0.00    +0.000 C 
ATOM     16  C   UNL     1      -9.939   3.231 132.416  0.00  0.00    +0.000 C 
ATOM     17  C   UNL     1      -9.379   2.103 131.566  0.00  0.00    +0.000 C 
BRANCH  15  18
ATOM     18  N   UNL     1      -9.793   5.242 130.814  0.00  0.00    +0.000 N 
ATOM     19  C   UNL     1      -9.274   4.964 129.549  0.00  0.00    +0.000 C 
ATOM     20  O   UNL     1      -9.049   3.869 129.045  0.00  0.00    +0.000 OA
ATOM     21  O   UNL     1      -8.927   6.075 128.857  0.00  0.00    +0.000 OA
ATOM     22  C   UNL     1     -10.085   6.781 128.474  0.00  0.00    +0.000 C 
ATOM     23  C   UNL     1     -10.972   7.018 129.655  0.00  0.00    +0.000 A 
ATOM     24  C   UNL     1     -11.987   7.971 129.554  0.00  0.00    +0.000 A 
ATOM     25  C   UNL     1     -12.837   8.188 130.627  0.00  0.00    +0.000 A 
ATOM     26  C   UNL     1     -12.680   7.446 131.795  0.00  0.00    +0.000 A 
ATOM     27  C   UNL     1     -11.665   6.488 131.903  0.00  0.00    +0.000 A 
ATOM     28  C   UNL     1     -10.795   6.264 130.833  0.00  0.00    +0.000 A 
ENDBRANCH  15  18
ENDBRANCH   5  10
BRANCH   1  29
ATOM     29  C   UNL     1      -8.582  -3.666 126.181  0.00  0.00    +0.000 C 
BRANCH  29  32
ATOM     30  C   UNL     1      -8.329  -2.432 124.160  0.00  0.00    +0.000 C 
ATOM     31  O   UNL     1      -7.143  -2.655 124.381  0.00  0.00    +0.000 OA
ATOM     32  N   UNL     1      -9.214  -2.954 125.082  0.00  0.00    +0.000 N 
ATOM     33  H   UNL     1     -10.220  -2.888 125.028  0.00  0.00    +0.000 HD
BRANCH  30  34
ATOM     34  C   UNL     1      -8.834  -1.634 122.930  0.00  0.00    +0.000 C 
BRANCH  34  41
ATOM     35  C   UNL     1      -7.406   3.109 122.728  0.00  0.00    +0.000 C 
ATOM     36  C   UNL     1      -8.430   2.154 123.318  0.00  0.00    +0.000 C 
ATOM     37  C   UNL     1      -8.774   2.577 124.749  0.00  0.00    +0.000 C 
ATOM     38  N   UNL     1      -9.603   1.906 122.536  0.00  0.00    +0.000 N 
ATOM     39  C   UNL     1     -10.003   0.584 122.695  0.00  0.00    +0.000 C 
ATOM     40  O   UNL     1     -11.149   0.199 122.538  0.00  0.00    +0.000 OA
ATOM     41  N   UNL     1      -8.897  -0.152 123.043  0.00  0.00    +0.000 N 
ATOM     42  C   UNL     1      -7.892   0.735 123.355  0.00  0.00    +0.000 C 
ATOM     43  O   UNL     1      -6.739   0.553 123.709  0.00  0.00    +0.000 OA
ATOM     44  H   UNL     1     -10.202   2.613 122.131  0.00  0.00    +0.000 HD
ENDBRANCH  34  41
ENDBRANCH  30  34
ENDBRANCH  29  32
ENDBRANCH   1  29
TORSDOF 6
ENDMDL
MODEL 2
REMARK VINA RESULT:     -10.3      4.128      6.406
REMARK  Name = CHEMBL284688
REMARK  8 active torsions:
REMARK  status: ('A' for Active; 'I' for Inactive)
REMARK    1  A    between atoms: C_1  and  C_2
REMARK    2  A    between atoms: C_2  and  C_3
REMARK    3  A    between atoms: N_7  and  C_8
REMARK    4  A    between atoms: C_8  and  C_9
REMARK    5  A    between atoms: N_11  and  C_12
REMARK    6  A    between atoms: C_12  and  C_13
REMARK    7  A    between atoms: C_17  and  C_18
REMARK    8  A    between atoms: C_23  and  N_24
REMARK                            x       y       z     vdW  Elec       q    Type
REMARK                         _______ _______ _______ _____ _____    ______ ____
ROOT
ATOM      1  C   UNL     1      -5.863   4.023 124.968  0.00  0.00    +0.000 A 
ATOM      2  C   UNL     1      -6.005   4.889 126.035  0.00  0.00    +0.000 A 
ATOM      3  C   UNL     1      -4.811   4.816 126.788  0.00  0.00    +0.000 A 
ATOM      4  C   UNL     1      -4.327   5.435 127.958  0.00  0.00    +0.000 A 
ATOM      5  C   UNL     1      -3.051   5.094 128.441  0.00  0.00    +0.000 A 
ATOM      6  C   UNL     1      -2.302   4.116 127.763  0.00  0.00    +0.000 A 
ATOM      7  C   UNL     1      -2.751   3.514 126.577  0.00  0.00    +0.000 A 
ATOM      8  C   UNL     1      -4.013   3.888 126.129  0.00  0.00    +0.000 A 
ATOM      9  O   UNL     1      -4.646   3.407 125.015  0.00  0.00    +0.000 OA
ENDROOT
BRANCH   5  10
ATOM     10  C   UNL     1      -2.581   5.720 129.727  0.00  0.00    +0.000 C 
ATOM     11  O   UNL     1      -1.719   6.594 129.713  0.00  0.00    +0.000 OA
ATOM     12  N   UNL     1      -3.224   5.348 130.896  0.00  0.00    +0.000 N 
ATOM     13  C   UNL     1      -3.792   6.372 131.767  0.00  0.00    +0.000 C 
ATOM     14  C   UNL     1      -3.231   6.289 133.174  0.00  0.00    +0.000 C 
ATOM     15  C   UNL     1      -3.366   4.862 133.749  0.00  0.00    +0.000 C 
ATOM     16  C   UNL     1      -2.699   3.856 132.798  0.00  0.00    +0.000 C 
ATOM     17  C   UNL     1      -3.210   3.968 131.372  0.00  0.00    +0.000 C 
BRANCH  15  18
ATOM     18  N   UNL     1      -4.771   4.535 134.170  0.00  0.00    +0.000 N 
ATOM     19  C   UNL     1      -5.500   3.450 133.685  0.00  0.00    +0.000 C 
ATOM     20  O   UNL     1      -5.139   2.284 133.566  0.00  0.00    +0.000 OA
ATOM     21  O   UNL     1      -6.732   3.791 133.238  0.00  0.00    +0.000 OA
ATOM     22  C   UNL     1      -7.555   4.145 134.327  0.00  0.00    +0.000 C 
ATOM     23  C   UNL     1      -6.882   5.170 135.183  0.00  0.00    +0.000 A 
ATOM     24  C   UNL     1      -7.649   5.886 136.104  0.00  0.00    +0.000 A 
ATOM     25  C   UNL     1      -7.041   6.822 136.926  0.00  0.00    +0.000 A 
ATOM     26  C   UNL     1      -5.668   7.036 136.835  0.00  0.00    +0.000 A 
ATOM     27  C   UNL     1      -4.893   6.321 135.913  0.00  0.00    +0.000 A 
ATOM     28  C   UNL     1      -5.493   5.380 135.073  0.00  0.00    +0.000 A 
ENDBRANCH  15  18
ENDBRANCH   5  10
BRANCH   1  29
ATOM     29  C   UNL     1      -6.804   3.743 123.865  0.00  0.00    +0.000 C 
BRANCH  29  32
ATOM     30  C   UNL     1      -8.699   2.484 124.573  0.00  0.00    +0.000 C 
ATOM     31  O   UNL     1      -9.039   3.579 125.012  0.00  0.00    +0.000 OA
ATOM     32  N   UNL     1      -7.489   2.460 123.910  0.00  0.00    +0.000 N 
ATOM     33  H   UNL     1      -7.084   1.650 123.463  0.00  0.00    +0.000 HD
BRANCH  30  34
ATOM     34  C   UNL     1      -9.556   1.200 124.721  0.00  0.00    +0.000 C 
BRANCH  34  41
ATOM     35  C   UNL     1      -7.684  -3.371 124.309  0.00  0.00    +0.000 C 
ATOM     36  C   UNL     1      -7.924  -2.066 123.568  0.00  0.00    +0.000 C 
ATOM     37  C   UNL     1      -6.742  -1.766 122.642  0.00  0.00    +0.000 C 
ATOM     38  N   UNL     1      -9.181  -1.931 122.895  0.00  0.00    +0.000 N 
ATOM     39  C   UNL     1      -9.616  -0.613 122.975  0.00  0.00    +0.000 C 
ATOM     40  O   UNL     1     -10.373  -0.099 122.169  0.00  0.00    +0.000 OA
ATOM     41  N   UNL     1      -9.048  -0.048 124.090  0.00  0.00    +0.000 N 
ATOM     42  C   UNL     1      -8.075  -0.909 124.540  0.00  0.00    +0.000 C 
ATOM     43  O   UNL     1      -7.317  -0.842 125.493  0.00  0.00    +0.000 OA
ATOM     44  H   UNL     1      -9.579  -2.601 122.251  0.00  0.00    +0.000 HD
ENDBRANCH  34  41
ENDBRANCH  30  34
ENDBRANCH  29  32
ENDBRANCH   1  29
TORSDOF 6
ENDMDL
MODEL 3
REMARK VINA RESULT:     -10.2      7.286      9.192
REMARK  Name = CHEMBL284688
REMARK  8 active torsions:
REMARK  status: ('A' for Active; 'I' for Inactive)
REMARK    1  A    between atoms: C_1  and  C_2
REMARK    2  A    between atoms: C_2  and  C_3
REMARK    3  A    between atoms: N_7  and  C_8
REMARK    4  A    between atoms: C_8  and  C_9
REMARK    5  A    between atoms: N_11  and  C_12
REMARK    6  A    between atoms: C_12  and  C_13
REMARK    7  A    between atoms: C_17  and  C_18
REMARK    8  A    between atoms: C_23  and  N_24
REMARK                            x       y       z     vdW  Elec       q    Type
REMARK                         _______ _______ _______ _____ _____    ______ ____
ROOT
ATOM      1  C   UNL     1      -5.613   4.320 127.941  0.00  0.00    +0.000 A 
ATOM      2  C   UNL     1      -5.406   4.150 129.297  0.00  0.00    +0.000 A 
ATOM      3  C   UNL     1      -4.253   4.893 129.635  0.00  0.00    +0.000 A 
ATOM      4  C   UNL     1      -3.533   5.138 130.822  0.00  0.00    +0.000 A 
ATOM      5  C   UNL     1      -2.383   5.946 130.776  0.00  0.00    +0.000 A 
ATOM      6  C   UNL     1      -1.959   6.463 129.539  0.00  0.00    +0.000 A 
ATOM      7  C   UNL     1      -2.682   6.261 128.353  0.00  0.00    +0.000 A 
ATOM      8  C   UNL     1      -3.817   5.465 128.444  0.00  0.00    +0.000 A 
ATOM      9  O   UNL     1      -4.647   5.125 127.411  0.00  0.00    +0.000 OA
ENDROOT
BRANCH   5  10
ATOM     10  C   UNL     1      -1.594   6.140 132.043  0.00  0.00    +0.000 C 
ATOM     11  O   UNL     1      -1.064   5.180 132.597  0.00  0.00    +0.000 OA
ATOM     12  N   UNL     1      -1.409   7.436 132.495  0.00  0.00    +0.000 N 
ATOM     13  C   UNL     1      -0.059   7.924 132.759  0.00  0.00    +0.000 C 
ATOM     14  C   UNL     1       0.091   8.421 134.184  0.00  0.00    +0.000 C 
ATOM     15  C   UNL     1      -1.005   9.450 134.538  0.00  0.00    +0.000 C 
ATOM     16  C   UNL     1      -2.391   8.839 134.279  0.00  0.00    +0.000 C 
ATOM     17  C   UNL     1      -2.535   8.284 132.872  0.00  0.00    +0.000 C 
BRANCH  15  18
ATOM     18  N   UNL     1      -0.757  10.798 133.923  0.00  0.00    +0.000 N 
ATOM     19  C   UNL     1      -1.683  11.480 133.133  0.00  0.00    +0.000 C 
ATOM     20  O   UNL     1      -2.876  11.666 133.351  0.00  0.00    +0.000 OA
ATOM     21  O   UNL     1      -1.168  11.910 131.957  0.00  0.00    +0.000 OA
ATOM     22  C   UNL     1      -0.257  12.961 132.191  0.00  0.00    +0.000 C 
ATOM     23  C   UNL     1       0.753  12.562 133.220  0.00  0.00    +0.000 A 
ATOM     24  C   UNL     1       1.919  13.319 133.347  0.00  0.00    +0.000 A 
ATOM     25  C   UNL     1       2.855  12.984 134.313  0.00  0.00    +0.000 A 
ATOM     26  C   UNL     1       2.623  11.899 135.156  0.00  0.00    +0.000 A 
ATOM     27  C   UNL     1       1.455  11.137 135.034  0.00  0.00    +0.000 A 
ATOM     28  C   UNL     1       0.506  11.458 134.060  0.00  0.00    +0.000 A 
ENDBRANCH  15  18
ENDBRANCH   5  10
BRANCH   1  29
ATOM     29  C   UNL     1      -6.694   3.783 127.090  0.00  0.00    +0.000 C 
BRANCH  29  32
ATOM     30  C   UNL     1      -7.332   2.271 125.363  0.00  0.00    +0.000 C 
ATOM     31  O   UNL     1      -8.452   2.544 125.783  0.00  0.00    +0.000 OA
ATOM     32  N   UNL     1      -6.287   2.908 126.002  0.00  0.00    +0.000 N 
ATOM     33  H   UNL     1      -5.311   2.819 125.757  0.00  0.00    +0.000 HD
BRANCH  30  34
ATOM     34  C   UNL     1      -7.073   1.294 124.186  0.00  0.00    +0.000 C 
BRANCH  34  41
ATOM     35  C   UNL     1      -9.387  -3.024 123.429  0.00  0.00    +0.000 C 
ATOM     36  C   UNL     1      -8.590  -2.212 124.437  0.00  0.00    +0.000 C 
ATOM     37  C   UNL     1      -9.136  -2.450 125.848  0.00  0.00    +0.000 C 
ATOM     38  N   UNL     1      -7.165  -2.343 124.385  0.00  0.00    +0.000 N 
ATOM     39  C   UNL     1      -6.571  -1.123 124.684  0.00  0.00    +0.000 C 
ATOM     40  O   UNL     1      -5.446  -1.010 125.143  0.00  0.00    +0.000 OA
ATOM     41  N   UNL     1      -7.465  -0.129 124.368  0.00  0.00    +0.000 N 
ATOM     42  C   UNL     1      -8.681  -0.727 124.134  0.00  0.00    +0.000 C 
ATOM     43  O   UNL     1      -9.762  -0.259 123.818  0.00  0.00    +0.000 OA
ATOM     44  H   UNL     1      -6.654  -3.215 124.383  0.00  0.00    +0.000 HD
ENDBRANCH  34  41
ENDBRANCH  30  34
ENDBRANCH  29  32
ENDBRANCH   1  29
TORSDOF 6
ENDMDL
MODEL 4
REMARK VINA RESULT:     -10.2      2.255      8.605
REMARK  Name = CHEMBL284688
REMARK  8 active torsions:
REMARK  status: ('A' for Active; 'I' for Inactive)
REMARK    1  A    between atoms: C_1  and  C_2
REMARK    2  A    between atoms: C_2  and  C_3
REMARK    3  A    between atoms: N_7  and  C_8
REMARK    4  A    between atoms: C_8  and  C_9
REMARK    5  A    between atoms: N_11  and  C_12
REMARK    6  A    between atoms: C_12  and  C_13
REMARK    7  A    between atoms: C_17  and  C_18
REMARK    8  A    between atoms: C_23  and  N_24
REMARK                            x       y       z     vdW  Elec       q    Type
REMARK                         _______ _______ _______ _____ _____    ______ ____
ROOT
ATOM      1  C   UNL     1      -8.015   3.471 132.474  0.00  0.00    +0.000 A 
ATOM      2  C   UNL     1      -8.523   2.530 131.599  0.00  0.00    +0.000 A 
ATOM      3  C   UNL     1      -7.436   1.739 131.166  0.00  0.00    +0.000 A 
ATOM      4  C   UNL     1      -7.282   0.638 130.300  0.00  0.00    +0.000 A 
ATOM      5  C   UNL     1      -6.000   0.100 130.090  0.00  0.00    +0.000 A 
ATOM      6  C   UNL     1      -4.896   0.696 130.724  0.00  0.00    +0.000 A 
ATOM      7  C   UNL     1      -5.032   1.769 131.618  0.00  0.00    +0.000 A 
ATOM      8  C   UNL     1      -6.317   2.264 131.804  0.00  0.00    +0.000 A 
ATOM      9  O   UNL     1      -6.666   3.315 132.608  0.00  0.00    +0.000 OA
ENDROOT
BRANCH   5  10
ATOM     10  C   UNL     1      -5.851  -1.034 129.111  0.00  0.00    +0.000 C 
ATOM     11  O   UNL     1      -5.336  -2.093 129.460  0.00  0.00    +0.000 OA
ATOM     12  N   UNL     1      -6.402  -0.873 127.850  0.00  0.00    +0.000 N 
ATOM     13  C   UNL     1      -7.337  -1.869 127.335  0.00  0.00    +0.000 C 
ATOM     14  C   UNL     1      -6.870  -2.449 126.014  0.00  0.00    +0.000 C 
ATOM     15  C   UNL     1      -6.550  -1.334 124.993  0.00  0.00    +0.000 C 
ATOM     16  C   UNL     1      -5.525  -0.362 125.595  0.00  0.00    +0.000 C 
ATOM     17  C   UNL     1      -5.953   0.183 126.947  0.00  0.00    +0.000 C 
BRANCH  15  18
ATOM     18  N   UNL     1      -7.785  -0.708 124.410  0.00  0.00    +0.000 N 
ATOM     19  C   UNL     1      -9.005  -1.370 124.267  0.00  0.00    +0.000 C 
ATOM     20  O   UNL     1      -9.599  -2.054 125.093  0.00  0.00    +0.000 OA
ATOM     21  O   UNL     1      -9.525  -1.269 123.021  0.00  0.00    +0.000 OA
ATOM     22  C   UNL     1      -9.958   0.052 122.788  0.00  0.00    +0.000 C 
ATOM     23  C   UNL     1      -8.867   1.026 123.104  0.00  0.00    +0.000 A 
ATOM     24  C   UNL     1      -8.977   2.336 122.631  0.00  0.00    +0.000 A 
ATOM     25  C   UNL     1      -7.992   3.261 122.935  0.00  0.00    +0.000 A 
ATOM     26  C   UNL     1      -6.902   2.883 123.716  0.00  0.00    +0.000 A 
ATOM     27  C   UNL     1      -6.787   1.572 124.193  0.00  0.00    +0.000 A 
ATOM     28  C   UNL     1      -7.768   0.625 123.890  0.00  0.00    +0.000 A 
ENDBRANCH  15  18
ENDBRANCH   5  10
BRANCH   1  29
ATOM     29  C   UNL     1      -8.729   4.520 133.232  0.00  0.00    +0.000 C 
BRANCH  29  32
ATOM     30  C   UNL     1     -10.342   5.991 132.278  0.00  0.00    +0.000 C 
ATOM     31  O   UNL     1      -9.351   6.701 132.142  0.00  0.00    +0.000 OA
ATOM     32  N   UNL     1     -10.113   4.758 132.857  0.00  0.00    +0.000 N 
ATOM     33  H   UNL     1     -10.813   4.046 133.009  0.00  0.00    +0.000 HD
BRANCH  30  34
ATOM     34  C   UNL     1     -11.765   6.412 131.828  0.00  0.00    +0.000 C 
BRANCH  34  41
ATOM     35  C   UNL     1     -12.287   6.998 126.934  0.00  0.00    +0.000 C 
ATOM     36  C   UNL     1     -11.866   7.689 128.220  0.00  0.00    +0.000 C 
ATOM     37  C   UNL     1     -10.671   8.608 127.952  0.00  0.00    +0.000 C 
ATOM     38  N   UNL     1     -12.897   8.353 128.960  0.00  0.00    +0.000 N 
ATOM     39  C   UNL     1     -12.655   8.224 130.322  0.00  0.00    +0.000 C 
ATOM     40  O   UNL     1     -13.064   9.008 131.162  0.00  0.00    +0.000 OA
ATOM     41  N   UNL     1     -11.903   7.089 130.511  0.00  0.00    +0.000 N 
ATOM     42  C   UNL     1     -11.463   6.675 129.276  0.00  0.00    +0.000 C 
ATOM     43  O   UNL     1     -10.778   5.722 128.942  0.00  0.00    +0.000 OA
ATOM     44  H   UNL     1     -13.556   9.020 128.583  0.00  0.00    +0.000 HD
ENDBRANCH  34  41
ENDBRANCH  30  34
ENDBRANCH  29  32
ENDBRANCH   1  29
TORSDOF 6
ENDMDL
MODEL 5
REMARK VINA RESULT:     -10.0      3.306      5.065
REMARK  Name = CHEMBL284688
REMARK  8 active torsions:
REMARK  status: ('A' for Active; 'I' for Inactive)
REMARK    1  A    between atoms: C_1  and  C_2
REMARK    2  A    between atoms: C_2  and  C_3
REMARK    3  A    between atoms: N_7  and  C_8
REMARK    4  A    between atoms: C_8  and  C_9
REMARK    5  A    between atoms: N_11  and  C_12
REMARK    6  A    between atoms: C_12  and  C_13
REMARK    7  A    between atoms: C_17  and  C_18
REMARK    8  A    between atoms: C_23  and  N_24
REMARK                            x       y       z     vdW  Elec       q    Type
REMARK                         _______ _______ _______ _____ _____    ______ ____
ROOT
ATOM      1  C   UNL     1      -8.983  -1.752 124.644  0.00  0.00    +0.000 A 
ATOM      2  C   UNL     1      -8.096  -1.122 125.496  0.00  0.00    +0.000 A 
ATOM      3  C   UNL     1      -8.089  -1.857 126.702  0.00  0.00    +0.000 A 
ATOM      4  C   UNL     1      -7.415  -1.750 127.935  0.00  0.00    +0.000 A 
ATOM      5  C   UNL     1      -7.680  -2.687 128.950  0.00  0.00    +0.000 A 
ATOM      6  C   UNL     1      -8.638  -3.690 128.721  0.00  0.00    +0.000 A 
ATOM      7  C   UNL     1      -9.293  -3.836 127.488  0.00  0.00    +0.000 A 
ATOM      8  C   UNL     1      -8.995  -2.895 126.510  0.00  0.00    +0.000 A 
ATOM      9  O   UNL     1      -9.536  -2.839 125.255  0.00  0.00    +0.000 OA
ENDROOT
BRANCH   5  10
ATOM     10  C   UNL     1      -6.996  -2.514 130.280  0.00  0.00    +0.000 C 
ATOM     11  O   UNL     1      -6.554  -3.489 130.882  0.00  0.00    +0.000 OA
ATOM     12  N   UNL     1      -6.799  -1.223 130.740  0.00  0.00    +0.000 N 
ATOM     13  C   UNL     1      -5.459  -0.785 131.117  0.00  0.00    +0.000 C 
ATOM     14  C   UNL     1      -5.413  -0.283 132.548  0.00  0.00    +0.000 C 
ATOM     15  C   UNL     1      -6.494   0.790 132.801  0.00  0.00    +0.000 C 
ATOM     16  C   UNL     1      -7.875   0.232 132.426  0.00  0.00    +0.000 C 
ATOM     17  C   UNL     1      -7.919  -0.328 131.014  0.00  0.00    +0.000 C 
BRANCH  15  18
ATOM     18  N   UNL     1      -6.141   2.123 132.204  0.00  0.00    +0.000 N 
ATOM     19  C   UNL     1      -7.023   2.904 131.456  0.00  0.00    +0.000 C 
ATOM     20  O   UNL     1      -8.186   3.195 131.715  0.00  0.00    +0.000 OA
ATOM     21  O   UNL     1      -6.506   3.310 130.273  0.00  0.00    +0.000 OA
ATOM     22  C   UNL     1      -5.494   4.267 130.496  0.00  0.00    +0.000 C 
ATOM     23  C   UNL     1      -4.496   3.754 131.485  0.00  0.00    +0.000 A 
ATOM     24  C   UNL     1      -3.261   4.398 131.589  0.00  0.00    +0.000 A 
ATOM     25  C   UNL     1      -2.331   3.957 132.518  0.00  0.00    +0.000 A 
ATOM     26  C   UNL     1      -2.638   2.881 133.348  0.00  0.00    +0.000 A 
ATOM     27  C   UNL     1      -3.874   2.232 133.249  0.00  0.00    +0.000 A 
ATOM     28  C   UNL     1      -4.819   2.660 132.312  0.00  0.00    +0.000 A 
ENDBRANCH  15  18
ENDBRANCH   5  10
BRANCH   1  29
ATOM     29  C   UNL     1      -9.339  -1.410 123.252  0.00  0.00    +0.000 C 
BRANCH  29  32
ATOM     30  C   UNL     1      -9.520   0.947 122.958  0.00  0.00    +0.000 C 
ATOM     31  O   UNL     1     -10.552   0.768 123.597  0.00  0.00    +0.000 OA
ATOM     32  N   UNL     1      -8.765  -0.184 122.720  0.00  0.00    +0.000 N 
ATOM     33  H   UNL     1      -7.877  -0.203 122.240  0.00  0.00    +0.000 HD
BRANCH  30  34
ATOM     34  C   UNL     1      -9.058   2.338 122.451  0.00  0.00    +0.000 C 
BRANCH  34  41
ATOM     35  C   UNL     1      -5.263   2.956 125.580  0.00  0.00    +0.000 C 
ATOM     36  C   UNL     1      -6.130   3.649 124.541  0.00  0.00    +0.000 C 
ATOM     37  C   UNL     1      -6.389   5.098 124.961  0.00  0.00    +0.000 C 
ATOM     38  N   UNL     1      -5.701   3.553 123.179  0.00  0.00    +0.000 N 
ATOM     39  C   UNL     1      -6.808   3.464 122.343  0.00  0.00    +0.000 C 
ATOM     40  O   UNL     1      -6.804   3.807 121.173  0.00  0.00    +0.000 OA
ATOM     41  N   UNL     1      -7.844   2.934 123.072  0.00  0.00    +0.000 N 
ATOM     42  C   UNL     1      -7.468   2.947 124.395  0.00  0.00    +0.000 C 
ATOM     43  O   UNL     1      -8.048   2.575 125.401  0.00  0.00    +0.000 OA
ATOM     44  H   UNL     1      -4.773   3.766 122.837  0.00  0.00    +0.000 HD
ENDBRANCH  34  41
ENDBRANCH  30  34
ENDBRANCH  29  32
ENDBRANCH   1  29
TORSDOF 6
ENDMDL
MODEL 6
REMARK VINA RESULT:      -9.9      2.668      3.721
REMARK  Name = CHEMBL284688
REMARK  8 active torsions:
REMARK  status: ('A' for Active; 'I' for Inactive)
REMARK    1  A    between atoms: C_1  and  C_2
REMARK    2  A    between atoms: C_2  and  C_3
REMARK    3  A    between atoms: N_7  and  C_8
REMARK    4  A    between atoms: C_8  and  C_9
REMARK    5  A    between atoms: N_11  and  C_12
REMARK    6  A    between atoms: C_12  and  C_13
REMARK    7  A    between atoms: C_17  and  C_18
REMARK    8  A    between atoms: C_23  and  N_24
REMARK                            x       y       z     vdW  Elec       q    Type
REMARK                         _______ _______ _______ _____ _____    ______ ____
ROOT
ATOM      1  C   UNL     1      -8.307  -2.869 127.667  0.00  0.00    +0.000 A 
ATOM      2  C   UNL     1      -7.341  -1.882 127.709  0.00  0.00    +0.000 A 
ATOM      3  C   UNL     1      -6.847  -1.844 129.032  0.00  0.00    +0.000 A 
ATOM      4  C   UNL     1      -5.872  -1.088 129.714  0.00  0.00    +0.000 A 
ATOM      5  C   UNL     1      -5.651  -1.323 131.083  0.00  0.00    +0.000 A 
ATOM      6  C   UNL     1      -6.433  -2.285 131.747  0.00  0.00    +0.000 A 
ATOM      7  C   UNL     1      -7.382  -3.074 131.078  0.00  0.00    +0.000 A 
ATOM      8  C   UNL     1      -7.562  -2.815 129.724  0.00  0.00    +0.000 A 
ATOM      9  O   UNL     1      -8.448  -3.448 128.895  0.00  0.00    +0.000 OA
ENDROOT
BRANCH   5  10
ATOM     10  C   UNL     1      -4.652  -0.460 131.806  0.00  0.00    +0.000 C 
ATOM     11  O   UNL     1      -3.551  -0.909 132.113  0.00  0.00    +0.000 OA
ATOM     12  N   UNL     1      -4.981   0.869 132.015  0.00  0.00    +0.000 N 
ATOM     13  C   UNL     1      -4.071   1.920 131.568  0.00  0.00    +0.000 C 
ATOM     14  C   UNL     1      -3.661   2.832 132.709  0.00  0.00    +0.000 C 
ATOM     15  C   UNL     1      -4.895   3.379 133.461  0.00  0.00    +0.000 C 
ATOM     16  C   UNL     1      -5.770   2.209 133.938  0.00  0.00    +0.000 C 
ATOM     17  C   UNL     1      -6.139   1.255 132.815  0.00  0.00    +0.000 C 
BRANCH  15  18
ATOM     18  N   UNL     1      -5.605   4.462 132.702  0.00  0.00    +0.000 N 
ATOM     19  C   UNL     1      -6.979   4.475 132.457  0.00  0.00    +0.000 C 
ATOM     20  O   UNL     1      -7.893   4.266 133.248  0.00  0.00    +0.000 OA
ATOM     21  O   UNL     1      -7.289   4.680 131.155  0.00  0.00    +0.000 OA
ATOM     22  C   UNL     1      -6.985   6.008 130.795  0.00  0.00    +0.000 C 
ATOM     23  C   UNL     1      -5.579   6.348 131.176  0.00  0.00    +0.000 A 
ATOM     24  C   UNL     1      -4.985   7.482 130.616  0.00  0.00    +0.000 A 
ATOM     25  C   UNL     1      -3.693   7.830 130.976  0.00  0.00    +0.000 A 
ATOM     26  C   UNL     1      -2.998   7.054 131.900  0.00  0.00    +0.000 A 
ATOM     27  C   UNL     1      -3.588   5.917 132.465  0.00  0.00    +0.000 A 
ATOM     28  C   UNL     1      -4.887   5.549 132.107  0.00  0.00    +0.000 A 
ENDBRANCH  15  18
ENDBRANCH   5  10
BRANCH   1  29
ATOM     29  C   UNL     1      -9.113  -3.335 126.521  0.00  0.00    +0.000 C 
BRANCH  29  32
ATOM     30  C   UNL     1      -8.816  -2.709 124.241  0.00  0.00    +0.000 C 
ATOM     31  O   UNL     1      -8.228  -3.786 124.208  0.00  0.00    +0.000 OA
ATOM     32  N   UNL     1      -9.356  -2.366 125.464  0.00  0.00    +0.000 N 
ATOM     33  H   UNL     1      -9.896  -1.533 125.651  0.00  0.00    +0.000 HD
BRANCH  30  34
ATOM     34  C   UNL     1      -8.974  -1.782 123.008  0.00  0.00    +0.000 C 
BRANCH  34  41
ATOM     35  C   UNL     1      -6.987   2.752 123.251  0.00  0.00    +0.000 C 
ATOM     36  C   UNL     1      -8.157   1.893 123.702  0.00  0.00    +0.000 C 
ATOM     37  C   UNL     1      -8.551   2.260 125.135  0.00  0.00    +0.000 C 
ATOM     38  N   UNL     1      -9.291   1.843 122.830  0.00  0.00    +0.000 N 
ATOM     39  C   UNL     1      -9.854   0.573 122.864  0.00  0.00    +0.000 C 
ATOM     40  O   UNL     1     -11.023   0.342 122.606  0.00  0.00    +0.000 OA
ATOM     41  N   UNL     1      -8.871  -0.314 123.227  0.00  0.00    +0.000 N 
ATOM     42  C   UNL     1      -7.794   0.419 123.668  0.00  0.00    +0.000 C 
ATOM     43  O   UNL     1      -6.699   0.075 124.080  0.00  0.00    +0.000 OA
ATOM     44  H   UNL     1      -9.771   2.644 122.441  0.00  0.00    +0.000 HD
ENDBRANCH  34  41
ENDBRANCH  30  34
ENDBRANCH  29  32
ENDBRANCH   1  29
TORSDOF 6
ENDMDL
MODEL 7
REMARK VINA RESULT:      -9.8      7.303     10.252
REMARK  Name = CHEMBL284688
REMARK  8 active torsions:
REMARK  status: ('A' for Active; 'I' for Inactive)
REMARK    1  A    between atoms: C_1  and  C_2
REMARK    2  A    between atoms: C_2  and  C_3
REMARK    3  A    between atoms: N_7  and  C_8
REMARK    4  A    between atoms: C_8  and  C_9
REMARK    5  A    between atoms: N_11  and  C_12
REMARK    6  A    between atoms: C_12  and  C_13
REMARK    7  A    between atoms: C_17  and  C_18
REMARK    8  A    between atoms: C_23  and  N_24
REMARK                            x       y       z     vdW  Elec       q    Type
REMARK                         _______ _______ _______ _____ _____    ______ ____
ROOT
ATOM      1  C   UNL     1      -6.384   4.159 129.578  0.00  0.00    +0.000 A 
ATOM      2  C   UNL     1      -5.849   3.986 130.841  0.00  0.00    +0.000 A 
ATOM      3  C   UNL     1      -4.679   4.775 130.905  0.00  0.00    +0.000 A 
ATOM      4  C   UNL     1      -3.704   5.040 131.888  0.00  0.00    +0.000 A 
ATOM      5  C   UNL     1      -2.632   5.897 131.582  0.00  0.00    +0.000 A 
ATOM      6  C   UNL     1      -2.541   6.444 130.290  0.00  0.00    +0.000 A 
ATOM      7  C   UNL     1      -3.521   6.222 129.309  0.00  0.00    +0.000 A 
ATOM      8  C   UNL     1      -4.567   5.377 129.656  0.00  0.00    +0.000 A 
ATOM      9  O   UNL     1      -5.608   5.010 128.847  0.00  0.00    +0.000 OA
ENDROOT
BRANCH   5  10
ATOM     10  C   UNL     1      -1.569   6.114 132.625  0.00  0.00    +0.000 C 
ATOM     11  O   UNL     1      -0.882   5.173 133.015  0.00  0.00    +0.000 OA
ATOM     12  N   UNL     1      -1.333   7.412 133.045  0.00  0.00    +0.000 N 
ATOM     13  C   UNL     1       0.020   7.958 132.986  0.00  0.00    +0.000 C 
ATOM     14  C   UNL     1       0.489   8.447 134.343  0.00  0.00    +0.000 C 
ATOM     15  C   UNL     1      -0.530   9.422 134.972  0.00  0.00    +0.000 C 
ATOM     16  C   UNL     1      -1.911   8.752 135.042  0.00  0.00    +0.000 C 
ATOM     17  C   UNL     1      -2.368   8.205 133.700  0.00  0.00    +0.000 C 
BRANCH  15  18
ATOM     18  N   UNL     1      -0.494  10.786 134.344  0.00  0.00    +0.000 N 
ATOM     19  C   UNL     1      -1.579  11.378 133.696  0.00  0.00    +0.000 C 
ATOM     20  O   UNL     1      -2.741  11.455 134.079  0.00  0.00    +0.000 OA
ATOM     21  O   UNL     1      -1.273  11.852 132.465  0.00  0.00    +0.000 OA
ATOM     22  C   UNL     1      -0.438  12.982 132.581  0.00  0.00    +0.000 C 
ATOM     23  C   UNL     1       0.737  12.679 133.457  0.00  0.00    +0.000 A 
ATOM     24  C   UNL     1       1.836  13.541 133.430  0.00  0.00    +0.000 A 
ATOM     25  C   UNL     1       2.923  13.294 134.252  0.00  0.00    +0.000 A 
ATOM     26  C   UNL     1       2.910  12.195 135.108  0.00  0.00    +0.000 A 
ATOM     27  C   UNL     1       1.811  11.328 135.140  0.00  0.00    +0.000 A 
ATOM     28  C   UNL     1       0.711  11.559 134.311  0.00  0.00    +0.000 A 
ENDBRANCH  15  18
ENDBRANCH   5  10
BRANCH   1  29
ATOM     29  C   UNL     1      -7.617   3.584 129.002  0.00  0.00    +0.000 C 
BRANCH  29  32
ATOM     30  C   UNL     1      -9.596   4.214 130.169  0.00  0.00    +0.000 C 
ATOM     31  O   UNL     1      -9.181   3.376 130.963  0.00  0.00    +0.000 OA
ATOM     32  N   UNL     1      -8.806   4.419 129.056  0.00  0.00    +0.000 N 
ATOM     33  H   UNL     1      -8.988   5.094 128.327  0.00  0.00    +0.000 HD
BRANCH  30  34
ATOM     34  C   UNL     1     -10.907   5.015 130.378  0.00  0.00    +0.000 C 
BRANCH  34  41
ATOM     35  C   UNL     1     -13.138   8.897 128.250  0.00  0.00    +0.000 C 
ATOM     36  C   UNL     1     -11.868   8.063 128.269  0.00  0.00    +0.000 C 
ATOM     37  C   UNL     1     -11.320   7.914 126.847  0.00  0.00    +0.000 C 
ATOM     38  N   UNL     1     -10.851   8.462 129.195  0.00  0.00    +0.000 N 
ATOM     39  C   UNL     1     -10.207   7.337 129.698  0.00  0.00    +0.000 C 
ATOM     40  O   UNL     1      -9.067   7.345 130.132  0.00  0.00    +0.000 OA
ATOM     41  N   UNL     1     -11.078   6.278 129.610  0.00  0.00    +0.000 N 
ATOM     42  C   UNL     1     -12.135   6.677 128.826  0.00  0.00    +0.000 C 
ATOM     43  O   UNL     1     -13.145   6.089 128.476  0.00  0.00    +0.000 OA
ATOM     44  H   UNL     1     -10.478   9.396 129.294  0.00  0.00    +0.000 HD
ENDBRANCH  34  41
ENDBRANCH  30  34
ENDBRANCH  29  32
ENDBRANCH   1  29
TORSDOF 6
ENDMDL
MODEL 8
REMARK VINA RESULT:      -9.5      3.909     10.313
REMARK  Name = CHEMBL284688
REMARK  8 active torsions:
REMARK  status: ('A' for Active; 'I' for Inactive)
REMARK    1  A    between atoms: C_1  and  C_2
REMARK    2  A    between atoms: C_2  and  C_3
REMARK    3  A    between atoms: N_7  and  C_8
REMARK    4  A    between atoms: C_8  and  C_9
REMARK    5  A    between atoms: N_11  and  C_12
REMARK    6  A    between atoms: C_12  and  C_13
REMARK    7  A    between atoms: C_17  and  C_18
REMARK    8  A    between atoms: C_23  and  N_24
REMARK                            x       y       z     vdW  Elec       q    Type
REMARK                         _______ _______ _______ _____ _____    ______ ____
ROOT
ATOM      1  C   UNL     1      -7.729   3.986 134.517  0.00  0.00    +0.000 A 
ATOM      2  C   UNL     1      -6.825   2.986 134.215  0.00  0.00    +0.000 A 
ATOM      3  C   UNL     1      -7.473   2.097 133.329  0.00  0.00    +0.000 A 
ATOM      4  C   UNL     1      -7.111   0.910 132.659  0.00  0.00    +0.000 A 
ATOM      5  C   UNL     1      -8.055   0.266 131.839  0.00  0.00    +0.000 A 
ATOM      6  C   UNL     1      -9.350   0.804 131.734  0.00  0.00    +0.000 A 
ATOM      7  C   UNL     1      -9.719   2.003 132.364  0.00  0.00    +0.000 A 
ATOM      8  C   UNL     1      -8.753   2.612 133.156  0.00  0.00    +0.000 A 
ATOM      9  O   UNL     1      -8.911   3.767 133.872  0.00  0.00    +0.000 OA
ENDROOT
BRANCH   5  10
ATOM     10  C   UNL     1      -7.667  -1.034 131.186  0.00  0.00    +0.000 C 
ATOM     11  O   UNL     1      -7.698  -2.083 131.824  0.00  0.00    +0.000 OA
ATOM     12  N   UNL     1      -7.376  -1.013 129.832  0.00  0.00    +0.000 N 
ATOM     13  C   UNL     1      -8.078  -1.917 128.927  0.00  0.00    +0.000 C 
ATOM     14  C   UNL     1      -7.115  -2.794 128.149  0.00  0.00    +0.000 C 
ATOM     15  C   UNL     1      -6.033  -1.948 127.441  0.00  0.00    +0.000 C 
ATOM     16  C   UNL     1      -5.312  -1.065 128.471  0.00  0.00    +0.000 C 
ATOM     17  C   UNL     1      -6.269  -0.225 129.299  0.00  0.00    +0.000 C 
BRANCH  15  18
ATOM     18  N   UNL     1      -6.552  -1.242 126.221  0.00  0.00    +0.000 N 
ATOM     19  C   UNL     1      -6.248   0.079 125.893  0.00  0.00    +0.000 C 
ATOM     20  O   UNL     1      -5.151   0.628 125.889  0.00  0.00    +0.000 OA
ATOM     21  O   UNL     1      -7.343   0.827 125.619  0.00  0.00    +0.000 OA
ATOM     22  C   UNL     1      -7.909   0.417 124.395  0.00  0.00    +0.000 C 
ATOM     23  C   UNL     1      -8.130  -1.063 124.387  0.00  0.00    +0.000 A 
ATOM     24  C   UNL     1      -8.973  -1.612 123.419  0.00  0.00    +0.000 A 
ATOM     25  C   UNL     1      -9.171  -2.983 123.377  0.00  0.00    +0.000 A 
ATOM     26  C   UNL     1      -8.521  -3.805 124.295  0.00  0.00    +0.000 A 
ATOM     27  C   UNL     1      -7.675  -3.261 125.268  0.00  0.00    +0.000 A 
ATOM     28  C   UNL     1      -7.471  -1.880 125.327  0.00  0.00    +0.000 A 
ENDBRANCH  15  18
ENDBRANCH   5  10
BRANCH   1  29
ATOM     29  C   UNL     1      -7.550   5.175 135.374  0.00  0.00    +0.000 C 
BRANCH  29  32
ATOM     30  C   UNL     1      -5.404   6.108 135.824  0.00  0.00    +0.000 C 
ATOM     31  O   UNL     1      -5.459   5.325 136.767  0.00  0.00    +0.000 OA
ATOM     32  N   UNL     1      -6.499   6.101 134.983  0.00  0.00    +0.000 N 
ATOM     33  H   UNL     1      -6.595   6.659 134.146  0.00  0.00    +0.000 HD
BRANCH  30  34
ATOM     34  C   UNL     1      -4.197   7.044 135.558  0.00  0.00    +0.000 C 
BRANCH  34  41
ATOM     35  C   UNL     1      -2.092   6.262 131.138  0.00  0.00    +0.000 C 
ATOM     36  C   UNL     1      -2.067   5.861 132.604  0.00  0.00    +0.000 C 
ATOM     37  C   UNL     1      -1.776   4.363 132.731  0.00  0.00    +0.000 C 
ATOM     38  N   UNL     1      -1.237   6.643 133.470  0.00  0.00    +0.000 N 
ATOM     39  C   UNL     1      -1.840   6.760 134.717  0.00  0.00    +0.000 C 
ATOM     40  O   UNL     1      -1.225   6.963 135.751  0.00  0.00    +0.000 OA
ATOM     41  N   UNL     1      -3.194   6.612 134.547  0.00  0.00    +0.000 N 
ATOM     42  C   UNL     1      -3.402   6.147 133.269  0.00  0.00    +0.000 C 
ATOM     43  O   UNL     1      -4.427   5.875 132.667  0.00  0.00    +0.000 OA
ATOM     44  H   UNL     1      -0.265   6.868 133.309  0.00  0.00    +0.000 HD
ENDBRANCH  34  41
ENDBRANCH  30  34
ENDBRANCH  29  32
ENDBRANCH   1  29
TORSDOF 6
ENDMDL
MODEL 9
REMARK VINA RESULT:      -9.5      7.363     12.440
REMARK  Name = CHEMBL284688
REMARK  8 active torsions:
REMARK  status: ('A' for Active; 'I' for Inactive)
REMARK    1  A    between atoms: C_1  and  C_2
REMARK    2  A    between atoms: C_2  and  C_3
REMARK    3  A    between atoms: N_7  and  C_8
REMARK    4  A    between atoms: C_8  and  C_9
REMARK    5  A    between atoms: N_11  and  C_12
REMARK    6  A    between atoms: C_12  and  C_13
REMARK    7  A    between atoms: C_17  and  C_18
REMARK    8  A    between atoms: C_23  and  N_24
REMARK                            x       y       z     vdW  Elec       q    Type
REMARK                         _______ _______ _______ _____ _____    ______ ____
ROOT
ATOM      1  C   UNL     1      -2.170   6.535 131.950  0.00  0.00    +0.000 A 
ATOM      2  C   UNL     1      -2.272   5.239 131.480  0.00  0.00    +0.000 A 
ATOM      3  C   UNL     1      -2.802   5.314 130.173  0.00  0.00    +0.000 A 
ATOM      4  C   UNL     1      -3.134   4.378 129.173  0.00  0.00    +0.000 A 
ATOM      5  C   UNL     1      -3.672   4.832 127.955  0.00  0.00    +0.000 A 
ATOM      6  C   UNL     1      -3.899   6.208 127.778  0.00  0.00    +0.000 A 
ATOM      7  C   UNL     1      -3.542   7.159 128.747  0.00  0.00    +0.000 A 
ATOM      8  C   UNL     1      -3.004   6.669 129.931  0.00  0.00    +0.000 A 
ATOM      9  O   UNL     1      -2.613   7.417 131.008  0.00  0.00    +0.000 OA
ENDROOT
BRANCH   5  10
ATOM     10  C   UNL     1      -4.079   3.810 126.928  0.00  0.00    +0.000 C 
ATOM     11  O   UNL     1      -3.507   3.758 125.843  0.00  0.00    +0.000 OA
ATOM     12  N   UNL     1      -5.041   2.880 127.290  0.00  0.00    +0.000 N 
ATOM     13  C   UNL     1      -4.761   1.455 127.143  0.00  0.00    +0.000 C 
ATOM     14  C   UNL     1      -5.793   0.767 126.269  0.00  0.00    +0.000 C 
ATOM     15  C   UNL     1      -7.228   1.054 126.763  0.00  0.00    +0.000 C 
ATOM     16  C   UNL     1      -7.453   2.572 126.840  0.00  0.00    +0.000 C 
ATOM     17  C   UNL     1      -6.392   3.283 127.665  0.00  0.00    +0.000 C 
BRANCH  15  18
ATOM     18  N   UNL     1      -7.586   0.274 127.995  0.00  0.00    +0.000 N 
ATOM     19  C   UNL     1      -7.594   0.807 129.285  0.00  0.00    +0.000 C 
ATOM     20  O   UNL     1      -8.086   1.864 129.666  0.00  0.00    +0.000 OA
ATOM     21  O   UNL     1      -6.898   0.062 130.176  0.00  0.00    +0.000 OA
ATOM     22  C   UNL     1      -7.584  -1.144 130.428  0.00  0.00    +0.000 C 
ATOM     23  C   UNL     1      -7.921  -1.836 129.145  0.00  0.00    +0.000 A 
ATOM     24  C   UNL     1      -8.295  -3.180 129.184  0.00  0.00    +0.000 A 
ATOM     25  C   UNL     1      -8.638  -3.833 128.011  0.00  0.00    +0.000 A 
ATOM     26  C   UNL     1      -8.617  -3.142 126.802  0.00  0.00    +0.000 A 
ATOM     27  C   UNL     1      -8.243  -1.794 126.756  0.00  0.00    +0.000 A 
ATOM     28  C   UNL     1      -7.888  -1.124 127.929  0.00  0.00    +0.000 A 
ENDBRANCH  15  18
ENDBRANCH   5  10
BRANCH   1  29
ATOM     29  C   UNL     1      -1.651   7.018 133.246  0.00  0.00    +0.000 C 
BRANCH  29  32
ATOM     30  C   UNL     1      -1.024   9.293 133.570  0.00  0.00    +0.000 C 
ATOM     31  O   UNL     1       0.056   8.866 133.173  0.00  0.00    +0.000 OA
ATOM     32  N   UNL     1      -2.042   8.363 133.638  0.00  0.00    +0.000 N 
ATOM     33  H   UNL     1      -2.994   8.558 133.912  0.00  0.00    +0.000 HD
BRANCH  30  34
ATOM     34  C   UNL     1      -1.266  10.774 133.963  0.00  0.00    +0.000 C 
BRANCH  34  41
ATOM     35  C   UNL     1       3.369  12.503 134.278  0.00  0.00    +0.000 C 
ATOM     36  C   UNL     1       1.909  12.905 134.147  0.00  0.00    +0.000 C 
ATOM     37  C   UNL     1       1.643  14.178 134.956  0.00  0.00    +0.000 C 
ATOM     38  N   UNL     1       1.384  12.996 132.818  0.00  0.00    +0.000 N 
ATOM     39  C   UNL     1       0.060  12.575 132.806  0.00  0.00    +0.000 C 
ATOM     40  O   UNL     1      -0.759  12.936 131.977  0.00  0.00    +0.000 OA
ATOM     41  N   UNL     1      -0.118  11.714 133.861  0.00  0.00    +0.000 N 
ATOM     42  C   UNL     1       0.994  11.810 134.664  0.00  0.00    +0.000 C 
ATOM     43  O   UNL     1       1.291  11.239 135.701  0.00  0.00    +0.000 OA
ATOM     44  H   UNL     1       1.801  13.510 132.054  0.00  0.00    +0.000 HD
ENDBRANCH  34  41
ENDBRANCH  30  34
ENDBRANCH  29  32
ENDBRANCH   1  29
TORSDOF 6
ENDMDL
