MODEL 1
REMARK VINA RESULT:      -9.8      0.000      0.000
REMARK  Name = CHEMBL28627
REMARK  5 active torsions:
REMARK  status: ('A' for Active; 'I' for Inactive)
REMARK    1  A    between atoms: C_1  and  C_2
REMARK    2  A    between atoms: N_7  and  C_8
REMARK    3  A    between atoms: C_8  and  C_9
REMARK    4  A    between atoms: C_13  and  C_14
REMARK    5  A    between atoms: C_19  and  N_20
REMARK                            x       y       z     vdW  Elec       q    Type
REMARK                         _______ _______ _______ _____ _____    ______ ____
ROOT
ATOM      1  C   UNL     1      -4.524   3.876 127.498  0.00  0.00    +0.000 A 
ATOM      2  C   UNL     1      -4.373   3.586 128.833  0.00  0.00    +0.000 A 
ATOM      3  C   UNL     1      -3.502   4.559 129.368  0.00  0.00    +0.000 A 
ATOM      4  C   UNL     1      -2.964   4.804 130.640  0.00  0.00    +0.000 A 
ATOM      5  C   UNL     1      -2.076   5.878 130.812  0.00  0.00    +0.000 A 
ATOM      6  C   UNL     1      -1.713   6.662 129.702  0.00  0.00    +0.000 A 
ATOM      7  C   UNL     1      -2.275   6.462 128.431  0.00  0.00    +0.000 A 
ATOM      8  C   UNL     1      -3.168   5.401 128.314  0.00  0.00    +0.000 A 
ATOM      9  O   UNL     1      -3.836   5.020 127.187  0.00  0.00    +0.000 OA
ENDROOT
BRANCH   5  10
ATOM     10  C   UNL     1      -1.478   6.072 132.174  0.00  0.00    +0.000 C 
ATOM     11  O   UNL     1      -1.084   5.107 132.824  0.00  0.00    +0.000 OA
ATOM     12  N   UNL     1      -1.302   7.370 132.616  0.00  0.00    +0.000 N 
ATOM     13  C   UNL     1       0.021   7.814 133.040  0.00  0.00    +0.000 C 
ATOM     14  C   UNL     1      -0.002   8.356 134.456  0.00  0.00    +0.000 C 
ATOM     15  C   UNL     1      -1.092   9.437 134.622  0.00  0.00    +0.000 C 
ATOM     16  C   UNL     1      -2.455   8.875 134.194  0.00  0.00    +0.000 C 
ATOM     17  C   UNL     1      -2.429   8.276 132.798  0.00  0.00    +0.000 C 
BRANCH  15  18
ATOM     18  N   UNL     1      -0.702  10.753 134.012  0.00  0.00    +0.000 N 
ATOM     19  C   UNL     1      -1.491  11.463 133.104  0.00  0.00    +0.000 C 
ATOM     20  O   UNL     1      -2.688  11.715 133.176  0.00  0.00    +0.000 OA
ATOM     21  O   UNL     1      -0.819  11.838 131.989  0.00  0.00    +0.000 OA
ATOM     22  C   UNL     1       0.128  12.834 132.306  0.00  0.00    +0.000 C 
ATOM     23  C   UNL     1       0.983  12.405 133.457  0.00  0.00    +0.000 A 
ATOM     24  C   UNL     1       2.173  13.093 133.706  0.00  0.00    +0.000 A 
ATOM     25  C   UNL     1       2.965  12.730 134.784  0.00  0.00    +0.000 A 
ATOM     26  C   UNL     1       2.566  11.688 135.617  0.00  0.00    +0.000 A 
ATOM     27  C   UNL     1       1.376  10.996 135.372  0.00  0.00    +0.000 A 
ATOM     28  C   UNL     1       0.571  11.344 134.285  0.00  0.00    +0.000 A 
ENDBRANCH  15  18
ENDBRANCH   5  10
BRANCH   1  29
ATOM     29  C   UNL     1      -5.351   3.198 126.462  0.00  0.00    +0.000 C 
BRANCH  29  36
ATOM     30  C   UNL     1      -8.685   3.080 121.786  0.00  0.00    +0.000 C 
ATOM     31  C   UNL     1      -7.219   3.449 121.917  0.00  0.00    +0.000 C 
ATOM     32  O   UNL     1      -6.572   3.859 120.957  0.00  0.00    +0.000 OA
ATOM     33  N   UNL     1      -6.721   3.424 123.201  0.00  0.00    +0.000 N 
ATOM     34  C   UNL     1      -5.747   4.408 123.697  0.00  0.00    +0.000 C 
ATOM     35  C   UNL     1      -6.239   4.971 125.064  0.00  0.00    +0.000 C 
ATOM     36  N   UNL     1      -6.579   3.916 126.066  0.00  0.00    +0.000 NA
ATOM     37  C   UNL     1      -7.571   3.002 125.447  0.00  0.00    +0.000 C 
ATOM     38  C   UNL     1      -7.058   2.373 124.150  0.00  0.00    +0.000 C 
ENDBRANCH  29  36
ENDBRANCH   1  29
TORSDOF 4
ENDMDL
MODEL 2
REMARK VINA RESULT:      -9.2      6.898     12.258
REMARK  Name = CHEMBL28627
REMARK  5 active torsions:
REMARK  status: ('A' for Active; 'I' for Inactive)
REMARK    1  A    between atoms: C_1  and  C_2
REMARK    2  A    between atoms: N_7  and  C_8
REMARK    3  A    between atoms: C_8  and  C_9
REMARK    4  A    between atoms: C_13  and  C_14
REMARK    5  A    between atoms: C_19  and  N_20
REMARK                            x       y       z     vdW  Elec       q    Type
REMARK                         _______ _______ _______ _____ _____    ______ ____
ROOT
ATOM      1  C   UNL     1      -9.566   5.664 131.453  0.00  0.00    +0.000 A 
ATOM      2  C   UNL     1      -9.577   4.348 131.056  0.00  0.00    +0.000 A 
ATOM      3  C   UNL     1      -8.237   3.985 130.806  0.00  0.00    +0.000 A 
ATOM      4  C   UNL     1      -7.601   2.810 130.378  0.00  0.00    +0.000 A 
ATOM      5  C   UNL     1      -6.208   2.813 130.199  0.00  0.00    +0.000 A 
ATOM      6  C   UNL     1      -5.484   3.999 130.412  0.00  0.00    +0.000 A 
ATOM      7  C   UNL     1      -6.094   5.172 130.883  0.00  0.00    +0.000 A 
ATOM      8  C   UNL     1      -7.472   5.115 131.069  0.00  0.00    +0.000 A 
ATOM      9  O   UNL     1      -8.276   6.123 131.519  0.00  0.00    +0.000 OA
ENDROOT
BRANCH   5  10
ATOM     10  C   UNL     1      -5.572   1.554 129.687  0.00  0.00    +0.000 C 
ATOM     11  O   UNL     1      -4.870   0.868 130.424  0.00  0.00    +0.000 OA
ATOM     12  N   UNL     1      -5.887   1.156 128.401  0.00  0.00    +0.000 N 
ATOM     13  C   UNL     1      -6.426  -0.179 128.171  0.00  0.00    +0.000 C 
ATOM     14  C   UNL     1      -5.586  -0.955 127.176  0.00  0.00    +0.000 C 
ATOM     15  C   UNL     1      -5.376  -0.149 125.875  0.00  0.00    +0.000 C 
ATOM     16  C   UNL     1      -4.768   1.222 126.203  0.00  0.00    +0.000 C 
ATOM     17  C   UNL     1      -5.570   1.985 127.244  0.00  0.00    +0.000 C 
BRANCH  15  18
ATOM     18  N   UNL     1      -6.594  -0.135 124.998  0.00  0.00    +0.000 N 
ATOM     19  C   UNL     1      -7.166   1.022 124.464  0.00  0.00    +0.000 C 
ATOM     20  O   UNL     1      -6.605   1.956 123.903  0.00  0.00    +0.000 OA
ATOM     21  O   UNL     1      -8.500   1.109 124.682  0.00  0.00    +0.000 OA
ATOM     22  C   UNL     1      -9.181   0.139 123.918  0.00  0.00    +0.000 C 
ATOM     23  C   UNL     1      -8.584  -1.217 124.131  0.00  0.00    +0.000 A 
ATOM     24  C   UNL     1      -9.307  -2.343 123.731  0.00  0.00    +0.000 A 
ATOM     25  C   UNL     1      -8.759  -3.607 123.894  0.00  0.00    +0.000 A 
ATOM     26  C   UNL     1      -7.489  -3.744 124.446  0.00  0.00    +0.000 A 
ATOM     27  C   UNL     1      -6.760  -2.621 124.848  0.00  0.00    +0.000 A 
ATOM     28  C   UNL     1      -7.301  -1.342 124.699  0.00  0.00    +0.000 A 
ENDBRANCH  15  18
ENDBRANCH   5  10
BRANCH   1  29
ATOM     29  C   UNL     1     -10.693   6.546 131.867  0.00  0.00    +0.000 C 
BRANCH  29  36
ATOM     30  C   UNL     1     -13.865   8.095 127.336  0.00  0.00    +0.000 C 
ATOM     31  C   UNL     1     -13.362   8.936 128.495  0.00  0.00    +0.000 C 
ATOM     32  O   UNL     1     -13.673  10.119 128.613  0.00  0.00    +0.000 OA
ATOM     33  N   UNL     1     -12.659   8.245 129.458  0.00  0.00    +0.000 N 
ATOM     34  C   UNL     1     -12.773   8.543 130.893  0.00  0.00    +0.000 C 
ATOM     35  C   UNL     1     -13.017   7.217 131.673  0.00  0.00    +0.000 C 
ATOM     36  N   UNL     1     -12.024   6.143 131.367  0.00  0.00    +0.000 NA
ATOM     37  C   UNL     1     -12.015   5.936 129.898  0.00  0.00    +0.000 C 
ATOM     38  C   UNL     1     -11.685   7.216 129.128  0.00  0.00    +0.000 C 
ENDBRANCH  29  36
ENDBRANCH   1  29
TORSDOF 4
ENDMDL
MODEL 3
REMARK VINA RESULT:      -9.2      4.444      6.328
REMARK  Name = CHEMBL28627
REMARK  5 active torsions:
REMARK  status: ('A' for Active; 'I' for Inactive)
REMARK    1  A    between atoms: C_1  and  C_2
REMARK    2  A    between atoms: N_7  and  C_8
REMARK    3  A    between atoms: C_8  and  C_9
REMARK    4  A    between atoms: C_13  and  C_14
REMARK    5  A    between atoms: C_19  and  N_20
REMARK                            x       y       z     vdW  Elec       q    Type
REMARK                         _______ _______ _______ _____ _____    ______ ____
ROOT
ATOM      1  C   UNL     1      -6.567   3.190 125.567  0.00  0.00    +0.000 A 
ATOM      2  C   UNL     1      -6.643   4.049 126.637  0.00  0.00    +0.000 A 
ATOM      3  C   UNL     1      -5.331   4.200 127.135  0.00  0.00    +0.000 A 
ATOM      4  C   UNL     1      -4.758   4.922 128.192  0.00  0.00    +0.000 A 
ATOM      5  C   UNL     1      -3.379   4.811 128.427  0.00  0.00    +0.000 A 
ATOM      6  C   UNL     1      -2.606   3.951 127.628  0.00  0.00    +0.000 A 
ATOM      7  C   UNL     1      -3.151   3.254 126.538  0.00  0.00    +0.000 A 
ATOM      8  C   UNL     1      -4.517   3.414 126.328  0.00  0.00    +0.000 A 
ATOM      9  O   UNL     1      -5.261   2.843 125.337  0.00  0.00    +0.000 OA
ENDROOT
BRANCH   5  10
ATOM     10  C   UNL     1      -2.813   5.555 129.601  0.00  0.00    +0.000 C 
ATOM     11  O   UNL     1      -1.966   6.428 129.435  0.00  0.00    +0.000 OA
ATOM     12  N   UNL     1      -3.351   5.289 130.847  0.00  0.00    +0.000 N 
ATOM     13  C   UNL     1      -3.885   6.382 131.650  0.00  0.00    +0.000 C 
ATOM     14  C   UNL     1      -3.224   6.445 133.013  0.00  0.00    +0.000 C 
ATOM     15  C   UNL     1      -3.284   5.076 133.726  0.00  0.00    +0.000 C 
ATOM     16  C   UNL     1      -2.665   3.993 132.831  0.00  0.00    +0.000 C 
ATOM     17  C   UNL     1      -3.281   3.960 131.443  0.00  0.00    +0.000 C 
BRANCH  15  18
ATOM     18  N   UNL     1      -4.645   4.771 134.283  0.00  0.00    +0.000 N 
ATOM     19  C   UNL     1      -5.419   3.671 133.908  0.00  0.00    +0.000 C 
ATOM     20  O   UNL     1      -5.071   2.502 133.797  0.00  0.00    +0.000 OA
ATOM     21  O   UNL     1      -6.688   4.001 133.567  0.00  0.00    +0.000 OA
ATOM     22  C   UNL     1      -7.406   4.415 134.707  0.00  0.00    +0.000 C 
ATOM     23  C   UNL     1      -6.650   5.466 135.457  0.00  0.00    +0.000 A 
ATOM     24  C   UNL     1      -7.323   6.229 136.414  0.00  0.00    +0.000 A 
ATOM     25  C   UNL     1      -6.634   7.189 137.139  0.00  0.00    +0.000 A 
ATOM     26  C   UNL     1      -5.273   7.380 136.916  0.00  0.00    +0.000 A 
ATOM     27  C   UNL     1      -4.594   6.619 135.959  0.00  0.00    +0.000 A 
ATOM     28  C   UNL     1      -5.275   5.655 135.214  0.00  0.00    +0.000 A 
ENDBRANCH  15  18
ENDBRANCH   5  10
BRANCH   1  29
ATOM     29  C   UNL     1      -7.640   2.704 124.656  0.00  0.00    +0.000 C 
BRANCH  29  36
ATOM     30  C   UNL     1      -9.265  -2.694 125.757  0.00  0.00    +0.000 C 
ATOM     31  C   UNL     1      -9.021  -2.013 124.422  0.00  0.00    +0.000 C 
ATOM     32  O   UNL     1      -9.233  -2.589 123.358  0.00  0.00    +0.000 OA
ATOM     33  N   UNL     1      -8.684  -0.679 124.499  0.00  0.00    +0.000 N 
ATOM     34  C   UNL     1      -9.160   0.319 123.530  0.00  0.00    +0.000 C 
ATOM     35  C   UNL     1      -9.741   1.543 124.299  0.00  0.00    +0.000 C 
ATOM     36  N   UNL     1      -8.814   2.108 125.326  0.00  0.00    +0.000 NA
ATOM     37  C   UNL     1      -8.421   1.007 126.240  0.00  0.00    +0.000 C 
ATOM     38  C   UNL     1      -7.764  -0.161 125.501  0.00  0.00    +0.000 C 
ENDBRANCH  29  36
ENDBRANCH   1  29
TORSDOF 4
ENDMDL
MODEL 4
REMARK VINA RESULT:      -9.1      3.958      5.623
REMARK  Name = CHEMBL28627
REMARK  5 active torsions:
REMARK  status: ('A' for Active; 'I' for Inactive)
REMARK    1  A    between atoms: C_1  and  C_2
REMARK    2  A    between atoms: N_7  and  C_8
REMARK    3  A    between atoms: C_8  and  C_9
REMARK    4  A    between atoms: C_13  and  C_14
REMARK    5  A    between atoms: C_19  and  N_20
REMARK                            x       y       z     vdW  Elec       q    Type
REMARK                         _______ _______ _______ _____ _____    ______ ____
ROOT
ATOM      1  C   UNL     1      -6.059   1.739 127.028  0.00  0.00    +0.000 A 
ATOM      2  C   UNL     1      -6.141   2.761 127.943  0.00  0.00    +0.000 A 
ATOM      3  C   UNL     1      -4.894   3.421 127.933  0.00  0.00    +0.000 A 
ATOM      4  C   UNL     1      -4.354   4.512 128.629  0.00  0.00    +0.000 A 
ATOM      5  C   UNL     1      -3.024   4.889 128.384  0.00  0.00    +0.000 A 
ATOM      6  C   UNL     1      -2.247   4.144 127.479  0.00  0.00    +0.000 A 
ATOM      7  C   UNL     1      -2.781   3.076 126.740  0.00  0.00    +0.000 A 
ATOM      8  C   UNL     1      -4.110   2.755 126.999  0.00  0.00    +0.000 A 
ATOM      9  O   UNL     1      -4.839   1.765 126.404  0.00  0.00    +0.000 OA
ENDROOT
BRANCH   5  10
ATOM     10  C   UNL     1      -2.466   6.026 129.189  0.00  0.00    +0.000 C 
ATOM     11  O   UNL     1      -1.922   6.975 128.630  0.00  0.00    +0.000 OA
ATOM     12  N   UNL     1      -2.675   6.006 130.555  0.00  0.00    +0.000 N 
ATOM     13  C   UNL     1      -3.318   7.143 131.203  0.00  0.00    +0.000 C 
ATOM     14  C   UNL     1      -2.456   7.711 132.313  0.00  0.00    +0.000 C 
ATOM     15  C   UNL     1      -2.023   6.609 133.304  0.00  0.00    +0.000 C 
ATOM     16  C   UNL     1      -1.319   5.474 132.547  0.00  0.00    +0.000 C 
ATOM     17  C   UNL     1      -2.150   4.935 131.394  0.00  0.00    +0.000 C 
BRANCH  15  18
ATOM     18  N   UNL     1      -3.129   6.195 134.230  0.00  0.00    +0.000 N 
ATOM     19  C   UNL     1      -3.738   4.938 134.216  0.00  0.00    +0.000 C 
ATOM     20  O   UNL     1      -3.203   3.836 134.170  0.00  0.00    +0.000 OA
ATOM     21  O   UNL     1      -5.091   4.999 134.177  0.00  0.00    +0.000 OA
ATOM     22  C   UNL     1      -5.590   5.486 135.403  0.00  0.00    +0.000 C 
ATOM     23  C   UNL     1      -4.901   6.758 135.787  0.00  0.00    +0.000 A 
ATOM     24  C   UNL     1      -5.469   7.559 136.780  0.00  0.00    +0.000 A 
ATOM     25  C   UNL     1      -4.832   8.728 137.170  0.00  0.00    +0.000 A 
ATOM     26  C   UNL     1      -3.626   9.089 136.577  0.00  0.00    +0.000 A 
ATOM     27  C   UNL     1      -3.052   8.291 135.583  0.00  0.00    +0.000 A 
ATOM     28  C   UNL     1      -3.686   7.116 135.172  0.00  0.00    +0.000 A 
ENDBRANCH  15  18
ENDBRANCH   5  10
BRANCH   1  29
ATOM     29  C   UNL     1      -7.089   0.747 126.611  0.00  0.00    +0.000 C 
BRANCH  29  36
ATOM     30  C   UNL     1      -9.625  -3.298 123.416  0.00  0.00    +0.000 C 
ATOM     31  C   UNL     1      -8.545  -3.440 124.474  0.00  0.00    +0.000 C 
ATOM     32  O   UNL     1      -8.021  -4.524 124.716  0.00  0.00    +0.000 OA
ATOM     33  N   UNL     1      -8.110  -2.256 125.028  0.00  0.00    +0.000 N 
ATOM     34  C   UNL     1      -6.704  -2.011 125.381  0.00  0.00    +0.000 C 
ATOM     35  C   UNL     1      -6.262  -0.636 124.796  0.00  0.00    +0.000 C 
ATOM     36  N   UNL     1      -7.168   0.495 125.157  0.00  0.00    +0.000 NA
ATOM     37  C   UNL     1      -8.545   0.126 124.741  0.00  0.00    +0.000 C 
ATOM     38  C   UNL     1      -9.021  -1.178 125.385  0.00  0.00    +0.000 C 
ENDBRANCH  29  36
ENDBRANCH   1  29
TORSDOF 4
ENDMDL
MODEL 5
REMARK VINA RESULT:      -9.1      5.233     11.505
REMARK  Name = CHEMBL28627
REMARK  5 active torsions:
REMARK  status: ('A' for Active; 'I' for Inactive)
REMARK    1  A    between atoms: C_1  and  C_2
REMARK    2  A    between atoms: N_7  and  C_8
REMARK    3  A    between atoms: C_8  and  C_9
REMARK    4  A    between atoms: C_13  and  C_14
REMARK    5  A    between atoms: C_19  and  N_20
REMARK                            x       y       z     vdW  Elec       q    Type
REMARK                         _______ _______ _______ _____ _____    ______ ____
ROOT
ATOM      1  C   UNL     1      -2.004   7.365 134.410  0.00  0.00    +0.000 A 
ATOM      2  C   UNL     1      -2.477   6.796 133.252  0.00  0.00    +0.000 A 
ATOM      3  C   UNL     1      -3.679   6.135 133.582  0.00  0.00    +0.000 A 
ATOM      4  C   UNL     1      -4.615   5.379 132.861  0.00  0.00    +0.000 A 
ATOM      5  C   UNL     1      -5.714   4.825 133.537  0.00  0.00    +0.000 A 
ATOM      6  C   UNL     1      -5.835   5.005 134.926  0.00  0.00    +0.000 A 
ATOM      7  C   UNL     1      -4.935   5.794 135.659  0.00  0.00    +0.000 A 
ATOM      8  C   UNL     1      -3.875   6.342 134.942  0.00  0.00    +0.000 A 
ATOM      9  O   UNL     1      -2.885   7.141 135.436  0.00  0.00    +0.000 OA
ENDROOT
BRANCH   5  10
ATOM     10  C   UNL     1      -6.662   3.977 132.742  0.00  0.00    +0.000 C 
ATOM     11  O   UNL     1      -6.515   2.759 132.693  0.00  0.00    +0.000 OA
ATOM     12  N   UNL     1      -7.746   4.605 132.158  0.00  0.00    +0.000 N 
ATOM     13  C   UNL     1      -9.094   4.130 132.443  0.00  0.00    +0.000 C 
ATOM     14  C   UNL     1      -9.839   3.772 131.172  0.00  0.00    +0.000 C 
ATOM     15  C   UNL     1      -9.804   4.937 130.158  0.00  0.00    +0.000 C 
ATOM     16  C   UNL     1      -8.350   5.346 129.883  0.00  0.00    +0.000 C 
ATOM     17  C   UNL     1      -7.577   5.650 131.155  0.00  0.00    +0.000 C 
BRANCH  15  18
ATOM     18  N   UNL     1     -10.743   6.050 130.521  0.00  0.00    +0.000 N 
ATOM     19  C   UNL     1     -11.124   6.363 131.828  0.00  0.00    +0.000 C 
ATOM     20  O   UNL     1     -10.411   6.482 132.818  0.00  0.00    +0.000 OA
ATOM     21  O   UNL     1     -12.465   6.471 131.983  0.00  0.00    +0.000 OA
ATOM     22  C   UNL     1     -12.941   7.620 131.320  0.00  0.00    +0.000 C 
ATOM     23  C   UNL     1     -12.454   7.654 129.905  0.00  0.00    +0.000 A 
ATOM     24  C   UNL     1     -13.071   8.521 129.000  0.00  0.00    +0.000 A 
ATOM     25  C   UNL     1     -12.617   8.588 127.691  0.00  0.00    +0.000 A 
ATOM     26  C   UNL     1     -11.543   7.798 127.290  0.00  0.00    +0.000 A 
ATOM     27  C   UNL     1     -10.922   6.928 128.192  0.00  0.00    +0.000 A 
ATOM     28  C   UNL     1     -11.373   6.842 129.511  0.00  0.00    +0.000 A 
ENDBRANCH  15  18
ENDBRANCH   5  10
BRANCH   1  29
ATOM     29  C   UNL     1      -0.792   8.200 134.637  0.00  0.00    +0.000 C 
BRANCH  29  36
ATOM     30  C   UNL     1      -1.251  13.351 132.136  0.00  0.00    +0.000 C 
ATOM     31  C   UNL     1      -0.070  12.398 132.172  0.00  0.00    +0.000 C 
ATOM     32  O   UNL     1       1.015  12.699 131.682  0.00  0.00    +0.000 OA
ATOM     33  N   UNL     1      -0.268  11.249 132.908  0.00  0.00    +0.000 N 
ATOM     34  C   UNL     1       0.787  10.640 133.731  0.00  0.00    +0.000 C 
ATOM     35  C   UNL     1       0.221  10.345 135.152  0.00  0.00    +0.000 C 
ATOM     36  N   UNL     1      -1.052   9.563 135.146  0.00  0.00    +0.000 NA
ATOM     37  C   UNL     1      -2.027  10.287 134.294  0.00  0.00    +0.000 C 
ATOM     38  C   UNL     1      -1.514  10.500 132.868  0.00  0.00    +0.000 C 
ENDBRANCH  29  36
ENDBRANCH   1  29
TORSDOF 4
ENDMDL
MODEL 6
REMARK VINA RESULT:      -8.9      6.928     13.836
REMARK  Name = CHEMBL28627
REMARK  5 active torsions:
REMARK  status: ('A' for Active; 'I' for Inactive)
REMARK    1  A    between atoms: C_1  and  C_2
REMARK    2  A    between atoms: N_7  and  C_8
REMARK    3  A    between atoms: C_8  and  C_9
REMARK    4  A    between atoms: C_13  and  C_14
REMARK    5  A    between atoms: C_19  and  N_20
REMARK                            x       y       z     vdW  Elec       q    Type
REMARK                         _______ _______ _______ _____ _____    ______ ____
ROOT
ATOM      1  C   UNL     1      -6.908   5.534 135.762  0.00  0.00    +0.000 A 
ATOM      2  C   UNL     1      -6.132   4.417 135.564  0.00  0.00    +0.000 A 
ATOM      3  C   UNL     1      -6.840   3.579 134.678  0.00  0.00    +0.000 A 
ATOM      4  C   UNL     1      -6.593   2.322 134.105  0.00  0.00    +0.000 A 
ATOM      5  C   UNL     1      -7.563   1.751 133.265  0.00  0.00    +0.000 A 
ATOM      6  C   UNL     1      -8.776   2.427 133.046  0.00  0.00    +0.000 A 
ATOM      7  C   UNL     1      -9.024   3.704 133.573  0.00  0.00    +0.000 A 
ATOM      8  C   UNL     1      -8.025   4.241 134.380  0.00  0.00    +0.000 A 
ATOM      9  O   UNL     1      -8.041   5.459 134.994  0.00  0.00    +0.000 OA
ENDROOT
BRANCH   5  10
ATOM     10  C   UNL     1      -7.285   0.382 132.717  0.00  0.00    +0.000 C 
ATOM     11  O   UNL     1      -7.155  -0.577 133.474  0.00  0.00    +0.000 OA
ATOM     12  N   UNL     1      -7.282   0.232 131.343  0.00  0.00    +0.000 N 
ATOM     13  C   UNL     1      -8.153  -0.759 130.723  0.00  0.00    +0.000 C 
ATOM     14  C   UNL     1      -7.368  -1.733 129.868  0.00  0.00    +0.000 C 
ATOM     15  C   UNL     1      -6.472  -0.989 128.853  0.00  0.00    +0.000 C 
ATOM     16  C   UNL     1      -5.560   0.002 129.591  0.00  0.00    +0.000 C 
ATOM     17  C   UNL     1      -6.332   0.946 130.497  0.00  0.00    +0.000 C 
BRANCH  15  18
ATOM     18  N   UNL     1      -7.248  -0.431 127.695  0.00  0.00    +0.000 N 
ATOM     19  C   UNL     1      -7.481   0.930 127.487  0.00  0.00    +0.000 C 
ATOM     20  O   UNL     1      -6.679   1.855 127.549  0.00  0.00    +0.000 OA
ATOM     21  O   UNL     1      -8.784   1.222 127.260  0.00  0.00    +0.000 OA
ATOM     22  C   UNL     1      -9.182   0.721 126.003  0.00  0.00    +0.000 C 
ATOM     23  C   UNL     1      -8.815  -0.723 125.867  0.00  0.00    +0.000 A 
ATOM     24  C   UNL     1      -9.405  -1.476 124.850  0.00  0.00    +0.000 A 
ATOM     25  C   UNL     1      -9.057  -2.809 124.689  0.00  0.00    +0.000 A 
ATOM     26  C   UNL     1      -8.115  -3.385 125.538  0.00  0.00    +0.000 A 
ATOM     27  C   UNL     1      -7.522  -2.636 126.558  0.00  0.00    +0.000 A 
ATOM     28  C   UNL     1      -7.868  -1.295 126.739  0.00  0.00    +0.000 A 
ENDBRANCH  15  18
ENDBRANCH   5  10
BRANCH   1  29
ATOM     29  C   UNL     1      -6.639   6.751 136.577  0.00  0.00    +0.000 C 
BRANCH  29  36
ATOM     30  C   UNL     1      -9.581  10.502 139.782  0.00  0.00    +0.000 C 
ATOM     31  C   UNL     1      -8.198  10.631 139.170  0.00  0.00    +0.000 C 
ATOM     32  O   UNL     1      -7.492  11.614 139.381  0.00  0.00    +0.000 OA
ATOM     33  N   UNL     1      -7.752   9.519 138.490  0.00  0.00    +0.000 N 
ATOM     34  C   UNL     1      -6.352   9.072 138.526  0.00  0.00    +0.000 C 
ATOM     35  C   UNL     1      -6.310   7.548 138.846  0.00  0.00    +0.000 C 
ATOM     36  N   UNL     1      -7.175   6.718 137.954  0.00  0.00    +0.000 NA
ATOM     37  C   UNL     1      -8.553   7.266 138.017  0.00  0.00    +0.000 C 
ATOM     38  C   UNL     1      -8.615   8.741 137.614  0.00  0.00    +0.000 C 
ENDBRANCH  29  36
ENDBRANCH   1  29
TORSDOF 4
ENDMDL
MODEL 7
REMARK VINA RESULT:      -8.7      3.063     12.771
REMARK  Name = CHEMBL28627
REMARK  5 active torsions:
REMARK  status: ('A' for Active; 'I' for Inactive)
REMARK    1  A    between atoms: C_1  and  C_2
REMARK    2  A    between atoms: N_7  and  C_8
REMARK    3  A    between atoms: C_8  and  C_9
REMARK    4  A    between atoms: C_13  and  C_14
REMARK    5  A    between atoms: C_19  and  N_20
REMARK                            x       y       z     vdW  Elec       q    Type
REMARK                         _______ _______ _______ _____ _____    ______ ____
ROOT
ATOM      1  C   UNL     1      -1.832   6.308 131.170  0.00  0.00    +0.000 A 
ATOM      2  C   UNL     1      -1.984   6.409 129.808  0.00  0.00    +0.000 A 
ATOM      3  C   UNL     1      -3.175   5.728 129.477  0.00  0.00    +0.000 A 
ATOM      4  C   UNL     1      -3.860   5.472 128.280  0.00  0.00    +0.000 A 
ATOM      5  C   UNL     1      -5.037   4.707 128.316  0.00  0.00    +0.000 A 
ATOM      6  C   UNL     1      -5.485   4.180 129.540  0.00  0.00    +0.000 A 
ATOM      7  C   UNL     1      -4.838   4.461 130.755  0.00  0.00    +0.000 A 
ATOM      8  C   UNL     1      -3.690   5.243 130.673  0.00  0.00    +0.000 A 
ATOM      9  O   UNL     1      -2.903   5.646 131.713  0.00  0.00    +0.000 OA
ENDROOT
BRANCH   5  10
ATOM     10  C   UNL     1      -5.710   4.409 127.009  0.00  0.00    +0.000 C 
ATOM     11  O   UNL     1      -5.844   5.289 126.163  0.00  0.00    +0.000 OA
ATOM     12  N   UNL     1      -6.077   3.099 126.763  0.00  0.00    +0.000 N 
ATOM     13  C   UNL     1      -5.602   2.431 125.557  0.00  0.00    +0.000 C 
ATOM     14  C   UNL     1      -6.752   1.898 124.726  0.00  0.00    +0.000 C 
ATOM     15  C   UNL     1      -7.697   1.022 125.577  0.00  0.00    +0.000 C 
ATOM     16  C   UNL     1      -8.183   1.813 126.800  0.00  0.00    +0.000 C 
ATOM     17  C   UNL     1      -7.039   2.402 127.608  0.00  0.00    +0.000 C 
BRANCH  15  18
ATOM     18  N   UNL     1      -7.129  -0.340 125.858  0.00  0.00    +0.000 N 
ATOM     19  C   UNL     1      -7.070  -0.921 127.127  0.00  0.00    +0.000 C 
ATOM     20  O   UNL     1      -7.954  -0.983 127.974  0.00  0.00    +0.000 OA
ATOM     21  O   UNL     1      -5.842  -1.399 127.440  0.00  0.00    +0.000 OA
ATOM     22  C   UNL     1      -5.546  -2.529 126.651  0.00  0.00    +0.000 C 
ATOM     23  C   UNL     1      -5.769  -2.236 125.201  0.00  0.00    +0.000 A 
ATOM     24  C   UNL     1      -5.227  -3.101 124.247  0.00  0.00    +0.000 A 
ATOM     25  C   UNL     1      -5.446  -2.863 122.898  0.00  0.00    +0.000 A 
ATOM     26  C   UNL     1      -6.212  -1.769 122.504  0.00  0.00    +0.000 A 
ATOM     27  C   UNL     1      -6.757  -0.900 123.455  0.00  0.00    +0.000 A 
ATOM     28  C   UNL     1      -6.538  -1.121 124.817  0.00  0.00    +0.000 A 
ENDBRANCH  15  18
ENDBRANCH   5  10
BRANCH   1  29
ATOM     29  C   UNL     1      -0.773   6.864 132.056  0.00  0.00    +0.000 C 
BRANCH  29  36
ATOM     30  C   UNL     1      -2.360  11.709 134.703  0.00  0.00    +0.000 C 
ATOM     31  C   UNL     1      -1.038  11.357 134.046  0.00  0.00    +0.000 C 
ATOM     32  O   UNL     1      -0.078  12.122 134.084  0.00  0.00    +0.000 OA
ATOM     33  N   UNL     1      -0.959  10.078 133.538  0.00  0.00    +0.000 N 
ATOM     34  C   UNL     1       0.265   9.268 133.611  0.00  0.00    +0.000 C 
ATOM     35  C   UNL     1      -0.090   7.855 134.164  0.00  0.00    +0.000 C 
ATOM     36  N   UNL     1      -1.205   7.181 133.433  0.00  0.00    +0.000 NA
ATOM     37  C   UNL     1      -2.374   8.095 133.442  0.00  0.00    +0.000 C 
ATOM     38  C   UNL     1      -2.058   9.455 132.815  0.00  0.00    +0.000 C 
ENDBRANCH  29  36
ENDBRANCH   1  29
TORSDOF 4
ENDMDL
MODEL 8
REMARK VINA RESULT:      -8.7      4.709      7.277
REMARK  Name = CHEMBL28627
REMARK  5 active torsions:
REMARK  status: ('A' for Active; 'I' for Inactive)
REMARK    1  A    between atoms: C_1  and  C_2
REMARK    2  A    between atoms: N_7  and  C_8
REMARK    3  A    between atoms: C_8  and  C_9
REMARK    4  A    between atoms: C_13  and  C_14
REMARK    5  A    between atoms: C_19  and  N_20
REMARK                            x       y       z     vdW  Elec       q    Type
REMARK                         _______ _______ _______ _____ _____    ______ ____
ROOT
ATOM      1  C   UNL     1      -6.948  -2.428 126.899  0.00  0.00    +0.000 A 
ATOM      2  C   UNL     1      -5.910  -1.693 127.420  0.00  0.00    +0.000 A 
ATOM      3  C   UNL     1      -6.061  -1.707 128.823  0.00  0.00    +0.000 A 
ATOM      4  C   UNL     1      -5.348  -1.150 129.894  0.00  0.00    +0.000 A 
ATOM      5  C   UNL     1      -5.818  -1.345 131.203  0.00  0.00    +0.000 A 
ATOM      6  C   UNL     1      -7.011  -2.059 131.413  0.00  0.00    +0.000 A 
ATOM      7  C   UNL     1      -7.715  -2.662 130.359  0.00  0.00    +0.000 A 
ATOM      8  C   UNL     1      -7.199  -2.462 129.082  0.00  0.00    +0.000 A 
ATOM      9  O   UNL     1      -7.708  -2.950 127.913  0.00  0.00    +0.000 OA
ENDROOT
BRANCH   5  10
ATOM     10  C   UNL     1      -5.058  -0.687 132.317  0.00  0.00    +0.000 C 
ATOM     11  O   UNL     1      -4.496  -1.365 133.173  0.00  0.00    +0.000 OA
ATOM     12  N   UNL     1      -4.937   0.690 132.283  0.00  0.00    +0.000 N 
ATOM     13  C   UNL     1      -3.614   1.299 132.326  0.00  0.00    +0.000 C 
ATOM     14  C   UNL     1      -3.490   2.279 133.476  0.00  0.00    +0.000 C 
ATOM     15  C   UNL     1      -4.637   3.313 133.455  0.00  0.00    +0.000 C 
ATOM     16  C   UNL     1      -5.991   2.590 133.452  0.00  0.00    +0.000 C 
ATOM     17  C   UNL     1      -6.104   1.562 132.339  0.00  0.00    +0.000 C 
BRANCH  15  18
ATOM     18  N   UNL     1      -4.451   4.364 132.399  0.00  0.00    +0.000 N 
ATOM     19  C   UNL     1      -5.435   4.740 131.482  0.00  0.00    +0.000 C 
ATOM     20  O   UNL     1      -6.614   4.995 131.697  0.00  0.00    +0.000 OA
ATOM     21  O   UNL     1      -4.999   4.741 130.199  0.00  0.00    +0.000 OA
ATOM     22  C   UNL     1      -4.079   5.791 130.000  0.00  0.00    +0.000 C 
ATOM     23  C   UNL     1      -3.006   5.761 131.042  0.00  0.00    +0.000 A 
ATOM     24  C   UNL     1      -1.839   6.499 130.831  0.00  0.00    +0.000 A 
ATOM     25  C   UNL     1      -0.845   6.507 131.797  0.00  0.00    +0.000 A 
ATOM     26  C   UNL     1      -1.019   5.785 132.975  0.00  0.00    +0.000 A 
ATOM     27  C   UNL     1      -2.184   5.044 133.192  0.00  0.00    +0.000 A 
ATOM     28  C   UNL     1      -3.192   5.019 132.224  0.00  0.00    +0.000 A 
ENDBRANCH  15  18
ENDBRANCH   5  10
BRANCH   1  29
ATOM     29  C   UNL     1      -7.262  -2.764 125.482  0.00  0.00    +0.000 C 
BRANCH  29  36
ATOM     30  C   UNL     1      -9.291   2.022 123.039  0.00  0.00    +0.000 C 
ATOM     31  C   UNL     1      -9.845   0.609 123.000  0.00  0.00    +0.000 C 
ATOM     32  O   UNL     1     -10.831   0.323 122.326  0.00  0.00    +0.000 OA
ATOM     33  N   UNL     1      -9.086  -0.335 123.656  0.00  0.00    +0.000 N 
ATOM     34  C   UNL     1      -8.909  -1.705 123.152  0.00  0.00    +0.000 C 
ATOM     35  C   UNL     1      -7.393  -2.063 123.163  0.00  0.00    +0.000 C 
ATOM     36  N   UNL     1      -6.724  -1.824 124.478  0.00  0.00    +0.000 NA
ATOM     37  C   UNL     1      -6.969  -0.412 124.864  0.00  0.00    +0.000 C 
ATOM     38  C   UNL     1      -8.461  -0.078 124.945  0.00  0.00    +0.000 C 
ENDBRANCH  29  36
ENDBRANCH   1  29
TORSDOF 4
ENDMDL
MODEL 9
REMARK VINA RESULT:      -8.6      3.631     12.718
REMARK  Name = CHEMBL28627
REMARK  5 active torsions:
REMARK  status: ('A' for Active; 'I' for Inactive)
REMARK    1  A    between atoms: C_1  and  C_2
REMARK    2  A    between atoms: N_7  and  C_8
REMARK    3  A    between atoms: C_8  and  C_9
REMARK    4  A    between atoms: C_13  and  C_14
REMARK    5  A    between atoms: C_19  and  N_20
REMARK                            x       y       z     vdW  Elec       q    Type
REMARK                         _______ _______ _______ _____ _____    ______ ____
ROOT
ATOM      1  C   UNL     1      -2.342   6.274 132.047  0.00  0.00    +0.000 A 
ATOM      2  C   UNL     1      -2.545   5.012 131.542  0.00  0.00    +0.000 A 
ATOM      3  C   UNL     1      -2.948   5.168 130.199  0.00  0.00    +0.000 A 
ATOM      4  C   UNL     1      -3.302   4.283 129.170  0.00  0.00    +0.000 A 
ATOM      5  C   UNL     1      -3.695   4.802 127.926  0.00  0.00    +0.000 A 
ATOM      6  C   UNL     1      -3.765   6.195 127.747  0.00  0.00    +0.000 A 
ATOM      7  C   UNL     1      -3.373   7.097 128.749  0.00  0.00    +0.000 A 
ATOM      8  C   UNL     1      -2.968   6.536 129.956  0.00  0.00    +0.000 A 
ATOM      9  O   UNL     1      -2.543   7.209 131.065  0.00  0.00    +0.000 OA
ENDROOT
BRANCH   5  10
ATOM     10  C   UNL     1      -4.119   3.825 126.870  0.00  0.00    +0.000 C 
ATOM     11  O   UNL     1      -3.570   3.820 125.771  0.00  0.00    +0.000 OA
ATOM     12  N   UNL     1      -5.069   2.882 127.215  0.00  0.00    +0.000 N 
ATOM     13  C   UNL     1      -4.778   1.465 127.031  0.00  0.00    +0.000 C 
ATOM     14  C   UNL     1      -5.820   0.791 126.160  0.00  0.00    +0.000 C 
ATOM     15  C   UNL     1      -7.246   1.058 126.689  0.00  0.00    +0.000 C 
ATOM     16  C   UNL     1      -7.483   2.570 126.812  0.00  0.00    +0.000 C 
ATOM     17  C   UNL     1      -6.411   3.265 127.635  0.00  0.00    +0.000 C 
BRANCH  15  18
ATOM     18  N   UNL     1      -7.578   0.240 127.903  0.00  0.00    +0.000 N 
ATOM     19  C   UNL     1      -7.552   0.728 129.211  0.00  0.00    +0.000 C 
ATOM     20  O   UNL     1      -8.027   1.773 129.640  0.00  0.00    +0.000 OA
ATOM     21  O   UNL     1      -6.843  -0.054 130.061  0.00  0.00    +0.000 OA
ATOM     22  C   UNL     1      -7.519  -1.272 130.279  0.00  0.00    +0.000 C 
ATOM     23  C   UNL     1      -7.890  -1.912 128.978  0.00  0.00    +0.000 A 
ATOM     24  C   UNL     1      -8.264  -3.257 128.970  0.00  0.00    +0.000 A 
ATOM     25  C   UNL     1      -8.640  -3.861 127.780  0.00  0.00    +0.000 A 
ATOM     26  C   UNL     1      -8.650  -3.120 126.601  0.00  0.00    +0.000 A 
ATOM     27  C   UNL     1      -8.276  -1.773 126.603  0.00  0.00    +0.000 A 
ATOM     28  C   UNL     1      -7.887  -1.152 127.792  0.00  0.00    +0.000 A 
ENDBRANCH  15  18
ENDBRANCH   5  10
BRANCH   1  29
ATOM     29  C   UNL     1      -1.884   6.699 133.399  0.00  0.00    +0.000 C 
BRANCH  29  36
ATOM     30  C   UNL     1       1.766   9.313 136.983  0.00  0.00    +0.000 C 
ATOM     31  C   UNL     1       0.417   8.680 137.271  0.00  0.00    +0.000 C 
ATOM     32  O   UNL     1      -0.093   8.734 138.388  0.00  0.00    +0.000 OA
ATOM     33  N   UNL     1      -0.240   8.174 136.171  0.00  0.00    +0.000 N 
ATOM     34  C   UNL     1      -1.697   8.269 136.001  0.00  0.00    +0.000 C 
ATOM     35  C   UNL     1      -2.011   8.817 134.576  0.00  0.00    +0.000 C 
ATOM     36  N   UNL     1      -1.333   8.068 133.476  0.00  0.00    +0.000 NA
ATOM     37  C   UNL     1       0.123   8.055 133.763  0.00  0.00    +0.000 C 
ATOM     38  C   UNL     1       0.446   7.433 135.123  0.00  0.00    +0.000 C 
ENDBRANCH  29  36
ENDBRANCH   1  29
TORSDOF 4
ENDMDL
