MODEL 1
REMARK VINA RESULT:      -9.5      0.000      0.000
REMARK  Name = CHEMBL4217872
REMARK  10 active torsions:
REMARK  status: ('A' for Active; 'I' for Inactive)
REMARK    1  A    between atoms: C_1  and  C_2
REMARK    2  A    between atoms: C_4  and  C_5
REMARK    3  A    between atoms: N_12  and  C_13
REMARK    4  A    between atoms: C_24  and  C_25
REMARK    5  A    between atoms: C_25  and  N_26
REMARK    6  A    between atoms: N_29  and  C_30
REMARK    7  A    between atoms: C_30  and  C_31
REMARK    8  A    between atoms: C_31  and  N_33
REMARK    9  A    between atoms: N_33  and  C_34
REMARK   10  A    between atoms: N_33  and  C_35
REMARK                            x       y       z     vdW  Elec       q    Type
REMARK                         _______ _______ _______ _____ _____    ______ ____
ROOT
ATOM      1  C   UNL     1      -8.256   0.881 132.206  0.00  0.00    +0.000 C 
ATOM      2  C   UNL     1      -8.370   1.205 130.745  0.00  0.00    +0.000 A 
ATOM      3  C   UNL     1      -7.916   0.215 129.838  0.00  0.00    +0.000 A 
ATOM      4  C   UNL     1      -7.942   0.409 128.444  0.00  0.00    +0.000 A 
ATOM      5  C   UNL     1      -8.496   1.586 127.973  0.00  0.00    +0.000 A 
ATOM      6  C   UNL     1      -8.934   2.582 128.853  0.00  0.00    +0.000 A 
ATOM      7  C   UNL     1      -8.879   2.432 130.257  0.00  0.00    +0.000 A 
ENDROOT
BRANCH   4   8
ATOM      8  C   UNL     1      -7.483  -0.680 127.519  0.00  0.00    +0.000 C 
ATOM      9  O   UNL     1      -7.526  -1.814 127.998  0.00  0.00    +0.000 OA
ATOM     10  N   UNL     1      -7.215  -0.366 126.153  0.00  0.00    +0.000 N 
ATOM     11  C   UNL     1      -6.100   0.562 125.761  0.00  0.00    +0.000 C 
ATOM     12  C   UNL     1      -6.519   1.674 124.838  0.00  0.00    +0.000 A 
ATOM     13  C   UNL     1      -6.122   3.044 124.750  0.00  0.00    +0.000 A 
ATOM     14  N   UNL     1      -6.718   3.713 123.748  0.00  0.00    +0.000 NA
ATOM     15  N   UNL     1      -7.491   2.777 123.171  0.00  0.00    +0.000 N 
ATOM     16  C   UNL     1      -8.320   3.063 122.018  0.00  0.00    +0.000 C 
ATOM     17  C   UNL     1      -7.417   1.563 123.808  0.00  0.00    +0.000 A 
ATOM     18  N   UNL     1      -8.154   0.538 123.372  0.00  0.00    +0.000 N 
ATOM     19  C   UNL     1      -8.280  -0.755 123.899  0.00  0.00    +0.000 A 
ATOM     20  C   UNL     1      -9.061  -1.615 123.081  0.00  0.00    +0.000 A 
ATOM     21  C   UNL     1      -9.303  -2.938 123.408  0.00  0.00    +0.000 A 
ATOM     22  C   UNL     1      -8.742  -3.441 124.561  0.00  0.00    +0.000 A 
ATOM     23  C   UNL     1      -7.998  -2.604 125.400  0.00  0.00    +0.000 A 
ATOM     24  C   UNL     1      -7.771  -1.239 125.126  0.00  0.00    +0.000 A 
ATOM     25  H   UNL     1      -8.697   0.653 122.524  0.00  0.00    +0.000 HD
ENDBRANCH   4   8
BRANCH   7  26
ATOM     26  C   UNL     1      -9.380   3.627 131.084  0.00  0.00    +0.000 C 
BRANCH  26  27
ATOM     27  N   UNL     1     -10.491   4.402 130.561  0.00  0.00    +0.000 N 
ATOM     28  C   UNL     1     -10.909   5.628 130.956  0.00  0.00    +0.000 C 
ATOM     29  O   UNL     1     -10.364   6.306 131.821  0.00  0.00    +0.000 OA
ATOM     30  N   UNL     1     -12.026   6.025 130.256  0.00  0.00    +0.000 N 
ATOM     31  H   UNL     1     -11.130   3.995 129.923  0.00  0.00    +0.000 HD
ATOM     32  H   UNL     1     -12.444   5.442 129.542  0.00  0.00    +0.000 HD
BRANCH  30  33
ATOM     33  C   UNL     1     -12.654   7.315 130.478  0.00  0.00    +0.000 C 
BRANCH  33  34
ATOM     34  C   UNL     1     -12.586   8.337 129.305  0.00  0.00    +0.000 C 
ATOM     35  S   UNL     1     -13.192   9.901 129.563  0.00  0.00    +0.000 S 
BRANCH  34  36
ATOM     36  N   UNL     1     -12.020   7.903 128.090  0.00  0.00    +0.000 N 
ATOM     37  C   UNL     1     -12.759   7.128 127.088  0.00  0.00    +0.000 C 
ATOM     38  C   UNL     1     -10.628   8.189 127.712  0.00  0.00    +0.000 C 
ENDBRANCH  34  36
ENDBRANCH  33  34
ENDBRANCH  30  33
ENDBRANCH  26  27
ENDBRANCH   7  26
TORSDOF 6
ENDMDL
MODEL 2
REMARK VINA RESULT:      -8.6      3.129      3.830
REMARK  Name = CHEMBL4217872
REMARK  10 active torsions:
REMARK  status: ('A' for Active; 'I' for Inactive)
REMARK    1  A    between atoms: C_1  and  C_2
REMARK    2  A    between atoms: C_4  and  C_5
REMARK    3  A    between atoms: N_12  and  C_13
REMARK    4  A    between atoms: C_24  and  C_25
REMARK    5  A    between atoms: C_25  and  N_26
REMARK    6  A    between atoms: N_29  and  C_30
REMARK    7  A    between atoms: C_30  and  C_31
REMARK    8  A    between atoms: C_31  and  N_33
REMARK    9  A    between atoms: N_33  and  C_34
REMARK   10  A    between atoms: N_33  and  C_35
REMARK                            x       y       z     vdW  Elec       q    Type
REMARK                         _______ _______ _______ _____ _____    ______ ____
ROOT
ATOM      1  C   UNL     1      -8.185   0.323 132.128  0.00  0.00    +0.000 C 
ATOM      2  C   UNL     1      -8.244   0.752 130.691  0.00  0.00    +0.000 A 
ATOM      3  C   UNL     1      -7.837  -0.204 129.726  0.00  0.00    +0.000 A 
ATOM      4  C   UNL     1      -7.817   0.084 128.348  0.00  0.00    +0.000 A 
ATOM      5  C   UNL     1      -8.282   1.325 127.949  0.00  0.00    +0.000 A 
ATOM      6  C   UNL     1      -8.673   2.288 128.887  0.00  0.00    +0.000 A 
ATOM      7  C   UNL     1      -8.660   2.040 130.279  0.00  0.00    +0.000 A 
ENDROOT
BRANCH   4   8
ATOM      8  C   UNL     1      -7.411  -0.968 127.359  0.00  0.00    +0.000 C 
ATOM      9  O   UNL     1      -7.438  -2.121 127.795  0.00  0.00    +0.000 OA
ATOM     10  N   UNL     1      -7.207  -0.601 125.996  0.00  0.00    +0.000 N 
ATOM     11  C   UNL     1      -6.106   0.337 125.588  0.00  0.00    +0.000 C 
ATOM     12  C   UNL     1      -6.561   1.487 124.732  0.00  0.00    +0.000 A 
ATOM     13  C   UNL     1      -6.159   2.858 124.680  0.00  0.00    +0.000 A 
ATOM     14  N   UNL     1      -6.799   3.569 123.735  0.00  0.00    +0.000 NA
ATOM     15  N   UNL     1      -7.605   2.660 123.159  0.00  0.00    +0.000 N 
ATOM     16  C   UNL     1      -8.487   2.997 122.060  0.00  0.00    +0.000 C 
ATOM     17  C   UNL     1      -7.508   1.422 123.742  0.00  0.00    +0.000 A 
ATOM     18  N   UNL     1      -8.273   0.419 123.302  0.00  0.00    +0.000 N 
ATOM     19  C   UNL     1      -8.382  -0.894 123.782  0.00  0.00    +0.000 A 
ATOM     20  C   UNL     1      -9.206  -1.716 122.969  0.00  0.00    +0.000 A 
ATOM     21  C   UNL     1      -9.441  -3.050 123.254  0.00  0.00    +0.000 A 
ATOM     22  C   UNL     1      -8.829  -3.602 124.358  0.00  0.00    +0.000 A 
ATOM     23  C   UNL     1      -8.040  -2.803 125.193  0.00  0.00    +0.000 A 
ATOM     24  C   UNL     1      -7.817  -1.429 124.963  0.00  0.00    +0.000 A 
ATOM     25  H   UNL     1      -8.855   0.570 122.487  0.00  0.00    +0.000 HD
ENDBRANCH   4   8
BRANCH   7  26
ATOM     26  C   UNL     1      -9.099   3.208 131.176  0.00  0.00    +0.000 C 
BRANCH  26  27
ATOM     27  N   UNL     1      -8.086   4.153 131.611  0.00  0.00    +0.000 N 
ATOM     28  C   UNL     1      -7.538   5.171 130.903  0.00  0.00    +0.000 C 
ATOM     29  O   UNL     1      -7.859   5.476 129.759  0.00  0.00    +0.000 OA
ATOM     30  N   UNL     1      -6.575   5.828 131.634  0.00  0.00    +0.000 N 
ATOM     31  H   UNL     1      -7.614   4.023 132.472  0.00  0.00    +0.000 HD
ATOM     32  H   UNL     1      -6.343   5.552 132.581  0.00  0.00    +0.000 HD
BRANCH  30  33
ATOM     33  C   UNL     1      -5.855   6.972 131.105  0.00  0.00    +0.000 C 
BRANCH  33  34
ATOM     34  C   UNL     1      -4.332   6.780 130.843  0.00  0.00    +0.000 C 
ATOM     35  S   UNL     1      -3.234   7.608 131.836  0.00  0.00    +0.000 S 
BRANCH  34  36
ATOM     36  N   UNL     1      -3.952   5.924 129.791  0.00  0.00    +0.000 N 
ATOM     37  C   UNL     1      -3.677   4.495 129.973  0.00  0.00    +0.000 C 
ATOM     38  C   UNL     1      -3.797   6.386 128.403  0.00  0.00    +0.000 C 
ENDBRANCH  34  36
ENDBRANCH  33  34
ENDBRANCH  30  33
ENDBRANCH  26  27
ENDBRANCH   7  26
TORSDOF 6
ENDMDL
MODEL 3
REMARK VINA RESULT:      -8.6      4.096      7.882
REMARK  Name = CHEMBL4217872
REMARK  10 active torsions:
REMARK  status: ('A' for Active; 'I' for Inactive)
REMARK    1  A    between atoms: C_1  and  C_2
REMARK    2  A    between atoms: C_4  and  C_5
REMARK    3  A    between atoms: N_12  and  C_13
REMARK    4  A    between atoms: C_24  and  C_25
REMARK    5  A    between atoms: C_25  and  N_26
REMARK    6  A    between atoms: N_29  and  C_30
REMARK    7  A    between atoms: C_30  and  C_31
REMARK    8  A    between atoms: C_31  and  N_33
REMARK    9  A    between atoms: N_33  and  C_34
REMARK   10  A    between atoms: N_33  and  C_35
REMARK                            x       y       z     vdW  Elec       q    Type
REMARK                         _______ _______ _______ _____ _____    ______ ____
ROOT
ATOM      1  C   UNL     1      -5.878  -1.682 125.738  0.00  0.00    +0.000 C 
ATOM      2  C   UNL     1      -6.835  -2.335 126.692  0.00  0.00    +0.000 A 
ATOM      3  C   UNL     1      -6.428  -2.409 128.048  0.00  0.00    +0.000 A 
ATOM      4  C   UNL     1      -7.222  -3.023 129.036  0.00  0.00    +0.000 A 
ATOM      5  C   UNL     1      -8.463  -3.498 128.652  0.00  0.00    +0.000 A 
ATOM      6  C   UNL     1      -8.876  -3.449 127.316  0.00  0.00    +0.000 A 
ATOM      7  C   UNL     1      -8.080  -2.878 126.296  0.00  0.00    +0.000 A 
ENDROOT
BRANCH   4   8
ATOM      8  C   UNL     1      -6.767  -3.049 130.465  0.00  0.00    +0.000 C 
ATOM      9  O   UNL     1      -6.351  -4.143 130.853  0.00  0.00    +0.000 OA
ATOM     10  N   UNL     1      -6.680  -1.824 131.190  0.00  0.00    +0.000 N 
ATOM     11  C   UNL     1      -7.899  -1.001 131.498  0.00  0.00    +0.000 C 
ATOM     12  C   UNL     1      -7.781   0.446 131.104  0.00  0.00    +0.000 A 
ATOM     13  C   UNL     1      -8.729   1.370 130.563  0.00  0.00    +0.000 A 
ATOM     14  N   UNL     1      -8.229   2.604 130.375  0.00  0.00    +0.000 NA
ATOM     15  N   UNL     1      -6.961   2.490 130.807  0.00  0.00    +0.000 N 
ATOM     16  C   UNL     1      -6.039   3.608 130.797  0.00  0.00    +0.000 C 
ATOM     17  C   UNL     1      -6.654   1.219 131.223  0.00  0.00    +0.000 A 
ATOM     18  N   UNL     1      -5.421   0.940 131.651  0.00  0.00    +0.000 N 
ATOM     19  C   UNL     1      -4.877  -0.287 132.058  0.00  0.00    +0.000 A 
ATOM     20  C   UNL     1      -3.559  -0.166 132.575  0.00  0.00    +0.000 A 
ATOM     21  C   UNL     1      -2.840  -1.252 133.044  0.00  0.00    +0.000 A 
ATOM     22  C   UNL     1      -3.440  -2.491 133.029  0.00  0.00    +0.000 A 
ATOM     23  C   UNL     1      -4.724  -2.641 132.494  0.00  0.00    +0.000 A 
ATOM     24  C   UNL     1      -5.469  -1.567 131.961  0.00  0.00    +0.000 A 
ATOM     25  H   UNL     1      -4.751   1.695 131.739  0.00  0.00    +0.000 HD
ENDBRANCH   4   8
BRANCH   7  26
ATOM     26  C   UNL     1      -8.668  -2.921 124.877  0.00  0.00    +0.000 C 
BRANCH  26  27
ATOM     27  N   UNL     1      -8.653  -1.698 124.094  0.00  0.00    +0.000 N 
ATOM     28  C   UNL     1      -9.224  -0.508 124.397  0.00  0.00    +0.000 C 
ATOM     29  O   UNL     1      -9.831  -0.270 125.437  0.00  0.00    +0.000 OA
ATOM     30  N   UNL     1      -9.035   0.410 123.389  0.00  0.00    +0.000 N 
ATOM     31  H   UNL     1      -8.301  -1.701 123.168  0.00  0.00    +0.000 HD
ATOM     32  H   UNL     1      -8.521   0.179 122.547  0.00  0.00    +0.000 HD
BRANCH  30  33
ATOM     33  C   UNL     1      -9.533   1.770 123.484  0.00  0.00    +0.000 C 
BRANCH  33  34
ATOM     34  C   UNL     1      -8.468   2.907 123.462  0.00  0.00    +0.000 C 
ATOM     35  S   UNL     1      -8.060   3.655 124.929  0.00  0.00    +0.000 S 
BRANCH  34  36
ATOM     36  N   UNL     1      -7.901   3.250 122.219  0.00  0.00    +0.000 N 
ATOM     37  C   UNL     1      -6.455   3.343 121.990  0.00  0.00    +0.000 C 
ATOM     38  C   UNL     1      -8.711   3.547 121.028  0.00  0.00    +0.000 C 
ENDBRANCH  34  36
ENDBRANCH  33  34
ENDBRANCH  30  33
ENDBRANCH  26  27
ENDBRANCH   7  26
TORSDOF 6
ENDMDL
MODEL 4
REMARK VINA RESULT:      -8.3      2.065      2.567
REMARK  Name = CHEMBL4217872
REMARK  10 active torsions:
REMARK  status: ('A' for Active; 'I' for Inactive)
REMARK    1  A    between atoms: C_1  and  C_2
REMARK    2  A    between atoms: C_4  and  C_5
REMARK    3  A    between atoms: N_12  and  C_13
REMARK    4  A    between atoms: C_24  and  C_25
REMARK    5  A    between atoms: C_25  and  N_26
REMARK    6  A    between atoms: N_29  and  C_30
REMARK    7  A    between atoms: C_30  and  C_31
REMARK    8  A    between atoms: C_31  and  N_33
REMARK    9  A    between atoms: N_33  and  C_34
REMARK   10  A    between atoms: N_33  and  C_35
REMARK                            x       y       z     vdW  Elec       q    Type
REMARK                         _______ _______ _______ _____ _____    ______ ____
ROOT
ATOM      1  C   UNL     1      -9.468   2.386 132.765  0.00  0.00    +0.000 C 
ATOM      2  C   UNL     1      -8.195   2.205 131.992  0.00  0.00    +0.000 A 
ATOM      3  C   UNL     1      -7.994   0.939 131.386  0.00  0.00    +0.000 A 
ATOM      4  C   UNL     1      -6.828   0.634 130.659  0.00  0.00    +0.000 A 
ATOM      5  C   UNL     1      -5.898   1.643 130.491  0.00  0.00    +0.000 A 
ATOM      6  C   UNL     1      -6.069   2.895 131.095  0.00  0.00    +0.000 A 
ATOM      7  C   UNL     1      -7.210   3.213 131.867  0.00  0.00    +0.000 A 
ENDROOT
BRANCH   4   8
ATOM      8  C   UNL     1      -6.672  -0.708 130.005  0.00  0.00    +0.000 C 
ATOM      9  O   UNL     1      -6.812  -1.669 130.763  0.00  0.00    +0.000 OA
ATOM     10  N   UNL     1      -6.559  -0.781 128.585  0.00  0.00    +0.000 N 
ATOM     11  C   UNL     1      -5.387  -0.188 127.855  0.00  0.00    +0.000 C 
ATOM     12  C   UNL     1      -5.766   0.729 126.724  0.00  0.00    +0.000 A 
ATOM     13  C   UNL     1      -5.187   1.945 126.245  0.00  0.00    +0.000 A 
ATOM     14  N   UNL     1      -5.816   2.452 125.169  0.00  0.00    +0.000 NA
ATOM     15  N   UNL     1      -6.793   1.559 124.936  0.00  0.00    +0.000 N 
ATOM     16  C   UNL     1      -7.727   1.706 123.839  0.00  0.00    +0.000 C 
ATOM     17  C   UNL     1      -6.808   0.538 125.854  0.00  0.00    +0.000 A 
ATOM     18  N   UNL     1      -7.743  -0.412 125.775  0.00  0.00    +0.000 N 
ATOM     19  C   UNL     1      -7.982  -1.498 126.629  0.00  0.00    +0.000 A 
ATOM     20  C   UNL     1      -8.990  -2.374 126.144  0.00  0.00    +0.000 A 
ATOM     21  C   UNL     1      -9.375  -3.516 126.825  0.00  0.00    +0.000 A 
ATOM     22  C   UNL     1      -8.736  -3.822 128.006  0.00  0.00    +0.000 A 
ATOM     23  C   UNL     1      -7.764  -2.957 128.520  0.00  0.00    +0.000 A 
ATOM     24  C   UNL     1      -7.379  -1.760 127.880  0.00  0.00    +0.000 A 
ATOM     25  H   UNL     1      -8.379  -0.407 124.986  0.00  0.00    +0.000 HD
ENDBRANCH   4   8
BRANCH   7  26
ATOM     26  C   UNL     1      -7.237   4.622 132.480  0.00  0.00    +0.000 C 
BRANCH  26  27
ATOM     27  N   UNL     1      -8.295   5.527 132.066  0.00  0.00    +0.000 N 
ATOM     28  C   UNL     1      -8.507   6.051 130.834  0.00  0.00    +0.000 C 
ATOM     29  O   UNL     1      -7.831   5.797 129.842  0.00  0.00    +0.000 OA
ATOM     30  N   UNL     1      -9.586   6.906 130.833  0.00  0.00    +0.000 N 
ATOM     31  H   UNL     1      -8.893   5.940 132.738  0.00  0.00    +0.000 HD
ATOM     32  H   UNL     1     -10.126   7.085 131.671  0.00  0.00    +0.000 HD
BRANCH  30  33
ATOM     33  C   UNL     1     -10.033   7.578 129.627  0.00  0.00    +0.000 C 
BRANCH  33  34
ATOM     34  C   UNL     1     -11.549   7.470 129.287  0.00  0.00    +0.000 C 
ATOM     35  S   UNL     1     -12.655   7.367 130.569  0.00  0.00    +0.000 S 
BRANCH  34  36
ATOM     36  N   UNL     1     -11.917   7.465 127.928  0.00  0.00    +0.000 N 
ATOM     37  C   UNL     1     -13.299   7.296 127.466  0.00  0.00    +0.000 C 
ATOM     38  C   UNL     1     -10.944   7.632 126.838  0.00  0.00    +0.000 C 
ENDBRANCH  34  36
ENDBRANCH  33  34
ENDBRANCH  30  33
ENDBRANCH  26  27
ENDBRANCH   7  26
TORSDOF 6
ENDMDL
MODEL 5
REMARK VINA RESULT:      -8.2      2.456      3.664
REMARK  Name = CHEMBL4217872
REMARK  10 active torsions:
REMARK  status: ('A' for Active; 'I' for Inactive)
REMARK    1  A    between atoms: C_1  and  C_2
REMARK    2  A    between atoms: C_4  and  C_5
REMARK    3  A    between atoms: N_12  and  C_13
REMARK    4  A    between atoms: C_24  and  C_25
REMARK    5  A    between atoms: C_25  and  N_26
REMARK    6  A    between atoms: N_29  and  C_30
REMARK    7  A    between atoms: C_30  and  C_31
REMARK    8  A    between atoms: C_31  and  N_33
REMARK    9  A    between atoms: N_33  and  C_34
REMARK   10  A    between atoms: N_33  and  C_35
REMARK                            x       y       z     vdW  Elec       q    Type
REMARK                         _______ _______ _______ _____ _____    ______ ____
ROOT
ATOM      1  C   UNL     1      -7.397  -3.278 130.787  0.00  0.00    +0.000 C 
ATOM      2  C   UNL     1      -7.576  -2.010 130.005  0.00  0.00    +0.000 A 
ATOM      3  C   UNL     1      -7.582  -2.130 128.593  0.00  0.00    +0.000 A 
ATOM      4  C   UNL     1      -7.711  -1.012 127.747  0.00  0.00    +0.000 A 
ATOM      5  C   UNL     1      -7.907   0.220 128.343  0.00  0.00    +0.000 A 
ATOM      6  C   UNL     1      -7.889   0.362 129.736  0.00  0.00    +0.000 A 
ATOM      7  C   UNL     1      -7.716  -0.737 130.608  0.00  0.00    +0.000 A 
ENDROOT
BRANCH   4   8
ATOM      8  C   UNL     1      -7.746  -1.189 126.257  0.00  0.00    +0.000 C 
ATOM      9  O   UNL     1      -8.382  -2.171 125.870  0.00  0.00    +0.000 OA
ATOM     10  N   UNL     1      -7.220  -0.159 125.422  0.00  0.00    +0.000 N 
ATOM     11  C   UNL     1      -5.762   0.201 125.436  0.00  0.00    +0.000 C 
ATOM     12  C   UNL     1      -5.492   1.669 125.624  0.00  0.00    +0.000 A 
ATOM     13  C   UNL     1      -4.473   2.370 126.342  0.00  0.00    +0.000 A 
ATOM     14  N   UNL     1      -4.563   3.707 126.235  0.00  0.00    +0.000 NA
ATOM     15  N   UNL     1      -5.630   3.879 125.435  0.00  0.00    +0.000 N 
ATOM     16  C   UNL     1      -6.092   5.193 125.038  0.00  0.00    +0.000 C 
ATOM     17  C   UNL     1      -6.219   2.693 125.075  0.00  0.00    +0.000 A 
ATOM     18  N   UNL     1      -7.311   2.702 124.307  0.00  0.00    +0.000 N 
ATOM     19  C   UNL     1      -8.102   1.628 123.873  0.00  0.00    +0.000 A 
ATOM     20  C   UNL     1      -9.113   2.017 122.955  0.00  0.00    +0.000 A 
ATOM     21  C   UNL     1      -9.998   1.114 122.393  0.00  0.00    +0.000 A 
ATOM     22  C   UNL     1      -9.874  -0.218 122.724  0.00  0.00    +0.000 A 
ATOM     23  C   UNL     1      -8.908  -0.621 123.653  0.00  0.00    +0.000 A 
ATOM     24  C   UNL     1      -8.021   0.277 124.283  0.00  0.00    +0.000 A 
ATOM     25  H   UNL     1      -7.640   3.584 123.934  0.00  0.00    +0.000 HD
ENDBRANCH   4   8
BRANCH   7  26
ATOM     26  C   UNL     1      -7.698  -0.411 132.109  0.00  0.00    +0.000 C 
BRANCH  26  27
ATOM     27  N   UNL     1      -7.673   0.987 132.505  0.00  0.00    +0.000 N 
ATOM     28  C   UNL     1      -8.717   1.845 132.595  0.00  0.00    +0.000 C 
ATOM     29  O   UNL     1      -9.888   1.544 132.384  0.00  0.00    +0.000 OA
ATOM     30  N   UNL     1      -8.299   3.104 132.962  0.00  0.00    +0.000 N 
ATOM     31  H   UNL     1      -6.811   1.459 132.621  0.00  0.00    +0.000 HD
ATOM     32  H   UNL     1      -7.324   3.313 133.136  0.00  0.00    +0.000 HD
BRANCH  30  33
ATOM     33  C   UNL     1      -9.233   4.200 133.150  0.00  0.00    +0.000 C 
BRANCH  33  34
ATOM     34  C   UNL     1      -9.351   5.226 131.983  0.00  0.00    +0.000 C 
ATOM     35  S   UNL     1      -7.952   6.051 131.494  0.00  0.00    +0.000 S 
BRANCH  34  36
ATOM     36  N   UNL     1     -10.619   5.409 131.398  0.00  0.00    +0.000 N 
ATOM     37  C   UNL     1     -11.143   4.556 130.326  0.00  0.00    +0.000 C 
ATOM     38  C   UNL     1     -11.541   6.478 131.811  0.00  0.00    +0.000 C 
ENDBRANCH  34  36
ENDBRANCH  33  34
ENDBRANCH  30  33
ENDBRANCH  26  27
ENDBRANCH   7  26
TORSDOF 6
ENDMDL
MODEL 6
REMARK VINA RESULT:      -8.1      3.568      4.134
REMARK  Name = CHEMBL4217872
REMARK  10 active torsions:
REMARK  status: ('A' for Active; 'I' for Inactive)
REMARK    1  A    between atoms: C_1  and  C_2
REMARK    2  A    between atoms: C_4  and  C_5
REMARK    3  A    between atoms: N_12  and  C_13
REMARK    4  A    between atoms: C_24  and  C_25
REMARK    5  A    between atoms: C_25  and  N_26
REMARK    6  A    between atoms: N_29  and  C_30
REMARK    7  A    between atoms: C_30  and  C_31
REMARK    8  A    between atoms: C_31  and  N_33
REMARK    9  A    between atoms: N_33  and  C_34
REMARK   10  A    between atoms: N_33  and  C_35
REMARK                            x       y       z     vdW  Elec       q    Type
REMARK                         _______ _______ _______ _____ _____    ______ ____
ROOT
ATOM      1  C   UNL     1      -8.525   2.706 129.421  0.00  0.00    +0.000 C 
ATOM      2  C   UNL     1      -8.322   1.273 129.815  0.00  0.00    +0.000 A 
ATOM      3  C   UNL     1      -7.992   0.368 128.775  0.00  0.00    +0.000 A 
ATOM      4  C   UNL     1      -7.805  -1.007 129.010  0.00  0.00    +0.000 A 
ATOM      5  C   UNL     1      -7.885  -1.448 130.318  0.00  0.00    +0.000 A 
ATOM      6  C   UNL     1      -8.225  -0.574 131.357  0.00  0.00    +0.000 A 
ATOM      7  C   UNL     1      -8.461   0.804 131.143  0.00  0.00    +0.000 A 
ENDROOT
BRANCH   4   8
ATOM      8  C   UNL     1      -7.424  -1.924 127.884  0.00  0.00    +0.000 C 
ATOM      9  O   UNL     1      -7.713  -3.108 128.065  0.00  0.00    +0.000 OA
ATOM     10  N   UNL     1      -6.944  -1.363 126.663  0.00  0.00    +0.000 N 
ATOM     11  C   UNL     1      -5.651  -0.601 126.600  0.00  0.00    +0.000 C 
ATOM     12  C   UNL     1      -5.765   0.751 125.949  0.00  0.00    +0.000 A 
ATOM     13  C   UNL     1      -5.137   2.005 126.233  0.00  0.00    +0.000 A 
ATOM     14  N   UNL     1      -5.488   2.985 125.382  0.00  0.00    +0.000 NA
ATOM     15  N   UNL     1      -6.330   2.369 124.535  0.00  0.00    +0.000 N 
ATOM     16  C   UNL     1      -6.954   3.063 123.426  0.00  0.00    +0.000 C 
ATOM     17  C   UNL     1      -6.536   1.051 124.856  0.00  0.00    +0.000 A 
ATOM     18  N   UNL     1      -7.375   0.312 124.125  0.00  0.00    +0.000 N 
ATOM     19  C   UNL     1      -7.777  -1.019 124.306  0.00  0.00    +0.000 A 
ATOM     20  C   UNL     1      -8.584  -1.505 123.243  0.00  0.00    +0.000 A 
ATOM     21  C   UNL     1      -9.080  -2.796 123.214  0.00  0.00    +0.000 A 
ATOM     22  C   UNL     1      -8.755  -3.647 124.249  0.00  0.00    +0.000 A 
ATOM     23  C   UNL     1      -7.990  -3.180 125.323  0.00  0.00    +0.000 A 
ATOM     24  C   UNL     1      -7.508  -1.857 125.412  0.00  0.00    +0.000 A 
ATOM     25  H   UNL     1      -7.784   0.718 123.292  0.00  0.00    +0.000 HD
ENDBRANCH   4   8
BRANCH   7  26
ATOM     26  C   UNL     1      -8.845   1.624 132.384  0.00  0.00    +0.000 C 
BRANCH  26  27
ATOM     27  N   UNL     1      -7.807   2.402 133.037  0.00  0.00    +0.000 N 
ATOM     28  C   UNL     1      -7.663   3.749 133.054  0.00  0.00    +0.000 C 
ATOM     29  O   UNL     1      -8.441   4.540 132.530  0.00  0.00    +0.000 OA
ATOM     30  N   UNL     1      -6.530   4.122 133.742  0.00  0.00    +0.000 N 
ATOM     31  H   UNL     1      -7.019   1.953 133.434  0.00  0.00    +0.000 HD
ATOM     32  H   UNL     1      -5.916   3.440 134.169  0.00  0.00    +0.000 HD
BRANCH  30  33
ATOM     33  C   UNL     1      -6.165   5.515 133.922  0.00  0.00    +0.000 C 
BRANCH  33  34
ATOM     34  C   UNL     1      -5.079   6.083 132.960  0.00  0.00    +0.000 C 
ATOM     35  S   UNL     1      -3.593   6.566 133.621  0.00  0.00    +0.000 S 
BRANCH  34  36
ATOM     36  N   UNL     1      -5.394   6.162 131.590  0.00  0.00    +0.000 N 
ATOM     37  C   UNL     1      -4.669   5.421 130.552  0.00  0.00    +0.000 C 
ATOM     38  C   UNL     1      -6.487   6.998 131.070  0.00  0.00    +0.000 C 
ENDBRANCH  34  36
ENDBRANCH  33  34
ENDBRANCH  30  33
ENDBRANCH  26  27
ENDBRANCH   7  26
TORSDOF 6
ENDMDL
MODEL 7
REMARK VINA RESULT:      -8.0      7.362      9.629
REMARK  Name = CHEMBL4217872
REMARK  10 active torsions:
REMARK  status: ('A' for Active; 'I' for Inactive)
REMARK    1  A    between atoms: C_1  and  C_2
REMARK    2  A    between atoms: C_4  and  C_5
REMARK    3  A    between atoms: N_12  and  C_13
REMARK    4  A    between atoms: C_24  and  C_25
REMARK    5  A    between atoms: C_25  and  N_26
REMARK    6  A    between atoms: N_29  and  C_30
REMARK    7  A    between atoms: C_30  and  C_31
REMARK    8  A    between atoms: C_31  and  N_33
REMARK    9  A    between atoms: N_33  and  C_34
REMARK   10  A    between atoms: N_33  and  C_35
REMARK                            x       y       z     vdW  Elec       q    Type
REMARK                         _______ _______ _______ _____ _____    ______ ____
ROOT
ATOM      1  C   UNL     1      -4.051   7.975 129.973  0.00  0.00    +0.000 C 
ATOM      2  C   UNL     1      -4.385   7.233 131.234  0.00  0.00    +0.000 A 
ATOM      3  C   UNL     1      -5.724   6.792 131.377  0.00  0.00    +0.000 A 
ATOM      4  C   UNL     1      -6.171   6.112 132.526  0.00  0.00    +0.000 A 
ATOM      5  C   UNL     1      -5.232   5.819 133.499  0.00  0.00    +0.000 A 
ATOM      6  C   UNL     1      -3.908   6.260 133.384  0.00  0.00    +0.000 A 
ATOM      7  C   UNL     1      -3.444   6.983 132.262  0.00  0.00    +0.000 A 
ENDROOT
BRANCH   4   8
ATOM      8  C   UNL     1      -7.590   5.634 132.620  0.00  0.00    +0.000 C 
ATOM      9  O   UNL     1      -8.170   5.946 133.662  0.00  0.00    +0.000 OA
ATOM     10  N   UNL     1      -8.200   5.038 131.477  0.00  0.00    +0.000 N 
ATOM     11  C   UNL     1      -7.705   3.740 130.905  0.00  0.00    +0.000 C 
ATOM     12  C   UNL     1      -7.431   3.783 129.426  0.00  0.00    +0.000 A 
ATOM     13  C   UNL     1      -6.414   3.177 128.624  0.00  0.00    +0.000 A 
ATOM     14  N   UNL     1      -6.538   3.440 127.312  0.00  0.00    +0.000 NA
ATOM     15  N   UNL     1      -7.643   4.203 127.254  0.00  0.00    +0.000 N 
ATOM     16  C   UNL     1      -8.162   4.715 126.003  0.00  0.00    +0.000 C 
ATOM     17  C   UNL     1      -8.183   4.447 128.492  0.00  0.00    +0.000 A 
ATOM     18  N   UNL     1      -9.268   5.218 128.602  0.00  0.00    +0.000 N 
ATOM     19  C   UNL     1      -9.943   5.645 129.755  0.00  0.00    +0.000 A 
ATOM     20  C   UNL     1     -11.140   6.352 129.468  0.00  0.00    +0.000 A 
ATOM     21  C   UNL     1     -11.967   6.852 130.459  0.00  0.00    +0.000 A 
ATOM     22  C   UNL     1     -11.621   6.631 131.774  0.00  0.00    +0.000 A 
ATOM     23  C   UNL     1     -10.428   5.966 132.082  0.00  0.00    +0.000 A 
ATOM     24  C   UNL     1      -9.536   5.486 131.100  0.00  0.00    +0.000 A 
ATOM     25  H   UNL     1      -9.723   5.545 127.758  0.00  0.00    +0.000 HD
ENDBRANCH   4   8
BRANCH   7  26
ATOM     26  C   UNL     1      -1.969   7.413 132.299  0.00  0.00    +0.000 C 
BRANCH  26  27
ATOM     27  N   UNL     1      -1.578   8.432 133.256  0.00  0.00    +0.000 N 
ATOM     28  C   UNL     1      -1.814   9.765 133.196  0.00  0.00    +0.000 C 
ATOM     29  O   UNL     1      -2.449  10.322 132.307  0.00  0.00    +0.000 OA
ATOM     30  N   UNL     1      -1.251  10.421 134.268  0.00  0.00    +0.000 N 
ATOM     31  H   UNL     1      -0.966   8.210 134.002  0.00  0.00    +0.000 HD
ATOM     32  H   UNL     1      -0.740   9.926 134.988  0.00  0.00    +0.000 HD
BRANCH  30  33
ATOM     33  C   UNL     1      -1.383  11.856 134.446  0.00  0.00    +0.000 C 
BRANCH  33  34
ATOM     34  C   UNL     1      -0.156  12.726 134.041  0.00  0.00    +0.000 C 
ATOM     35  S   UNL     1       0.382  13.912 135.128  0.00  0.00    +0.000 S 
BRANCH  34  36
ATOM     36  N   UNL     1       0.440  12.476 132.790  0.00  0.00    +0.000 N 
ATOM     37  C   UNL     1       1.688  11.723 132.627  0.00  0.00    +0.000 C 
ATOM     38  C   UNL     1      -0.139  12.948 131.523  0.00  0.00    +0.000 C 
ENDBRANCH  34  36
ENDBRANCH  33  34
ENDBRANCH  30  33
ENDBRANCH  26  27
ENDBRANCH   7  26
TORSDOF 6
ENDMDL
MODEL 8
REMARK VINA RESULT:      -8.0      3.921      8.077
REMARK  Name = CHEMBL4217872
REMARK  10 active torsions:
REMARK  status: ('A' for Active; 'I' for Inactive)
REMARK    1  A    between atoms: C_1  and  C_2
REMARK    2  A    between atoms: C_4  and  C_5
REMARK    3  A    between atoms: N_12  and  C_13
REMARK    4  A    between atoms: C_24  and  C_25
REMARK    5  A    between atoms: C_25  and  N_26
REMARK    6  A    between atoms: N_29  and  C_30
REMARK    7  A    between atoms: C_30  and  C_31
REMARK    8  A    between atoms: C_31  and  N_33
REMARK    9  A    between atoms: N_33  and  C_34
REMARK   10  A    between atoms: N_33  and  C_35
REMARK                            x       y       z     vdW  Elec       q    Type
REMARK                         _______ _______ _______ _____ _____    ______ ____
ROOT
ATOM      1  C   UNL     1      -9.826  -4.304 128.204  0.00  0.00    +0.000 C 
ATOM      2  C   UNL     1      -8.560  -3.501 128.268  0.00  0.00    +0.000 A 
ATOM      3  C   UNL     1      -7.949  -3.378 129.541  0.00  0.00    +0.000 A 
ATOM      4  C   UNL     1      -6.775  -2.627 129.739  0.00  0.00    +0.000 A 
ATOM      5  C   UNL     1      -6.184  -2.061 128.624  0.00  0.00    +0.000 A 
ATOM      6  C   UNL     1      -6.780  -2.158 127.361  0.00  0.00    +0.000 A 
ATOM      7  C   UNL     1      -7.982  -2.868 127.142  0.00  0.00    +0.000 A 
ENDROOT
BRANCH   4   8
ATOM      8  C   UNL     1      -6.144  -2.551 131.098  0.00  0.00    +0.000 C 
ATOM      9  O   UNL     1      -5.317  -3.434 131.332  0.00  0.00    +0.000 OA
ATOM     10  N   UNL     1      -6.397  -1.412 131.920  0.00  0.00    +0.000 N 
ATOM     11  C   UNL     1      -7.772  -1.106 132.441  0.00  0.00    +0.000 C 
ATOM     12  C   UNL     1      -8.233   0.301 132.172  0.00  0.00    +0.000 A 
ATOM     13  C   UNL     1      -9.514   0.840 131.832  0.00  0.00    +0.000 A 
ATOM     14  N   UNL     1      -9.516   2.178 131.704  0.00  0.00    +0.000 NA
ATOM     15  N   UNL     1      -8.244   2.515 131.976  0.00  0.00    +0.000 N 
ATOM     16  C   UNL     1      -7.791   3.891 131.964  0.00  0.00    +0.000 C 
ATOM     17  C   UNL     1      -7.450   1.425 132.233  0.00  0.00    +0.000 A 
ATOM     18  N   UNL     1      -6.151   1.596 132.489  0.00  0.00    +0.000 N 
ATOM     19  C   UNL     1      -5.155   0.635 132.715  0.00  0.00    +0.000 A 
ATOM     20  C   UNL     1      -3.908   1.204 133.086  0.00  0.00    +0.000 A 
ATOM     21  C   UNL     1      -2.791   0.436 133.366  0.00  0.00    +0.000 A 
ATOM     22  C   UNL     1      -2.907  -0.936 133.305  0.00  0.00    +0.000 A 
ATOM     23  C   UNL     1      -4.116  -1.518 132.908  0.00  0.00    +0.000 A 
ATOM     24  C   UNL     1      -5.261  -0.767 132.567  0.00  0.00    +0.000 A 
ATOM     25  H   UNL     1      -5.788   2.538 132.569  0.00  0.00    +0.000 HD
ENDBRANCH   4   8
BRANCH   7  26
ATOM     26  C   UNL     1      -8.517  -2.862 125.701  0.00  0.00    +0.000 C 
BRANCH  26  27
ATOM     27  N   UNL     1      -8.224  -1.708 124.869  0.00  0.00    +0.000 N 
ATOM     28  C   UNL     1      -8.852  -0.508 124.858  0.00  0.00    +0.000 C 
ATOM     29  O   UNL     1      -9.774  -0.197 125.605  0.00  0.00    +0.000 OA
ATOM     30  N   UNL     1      -8.322   0.326 123.900  0.00  0.00    +0.000 N 
ATOM     31  H   UNL     1      -7.578  -1.781 124.121  0.00  0.00    +0.000 HD
ATOM     32  H   UNL     1      -7.554   0.036 123.306  0.00  0.00    +0.000 HD
BRANCH  30  33
ATOM     33  C   UNL     1      -8.809   1.679 123.704  0.00  0.00    +0.000 C 
BRANCH  33  34
ATOM     34  C   UNL     1      -7.825   2.834 124.058  0.00  0.00    +0.000 C 
ATOM     35  S   UNL     1      -6.736   3.357 122.866  0.00  0.00    +0.000 S 
BRANCH  34  36
ATOM     36  N   UNL     1      -7.897   3.382 125.353  0.00  0.00    +0.000 N 
ATOM     37  C   UNL     1      -8.043   4.818 125.614  0.00  0.00    +0.000 C 
ATOM     38  C   UNL     1      -7.833   2.561 126.571  0.00  0.00    +0.000 C 
ENDBRANCH  34  36
ENDBRANCH  33  34
ENDBRANCH  30  33
ENDBRANCH  26  27
ENDBRANCH   7  26
TORSDOF 6
ENDMDL
MODEL 9
REMARK VINA RESULT:      -8.0      4.685      9.340
REMARK  Name = CHEMBL4217872
REMARK  10 active torsions:
REMARK  status: ('A' for Active; 'I' for Inactive)
REMARK    1  A    between atoms: C_1  and  C_2
REMARK    2  A    between atoms: C_4  and  C_5
REMARK    3  A    between atoms: N_12  and  C_13
REMARK    4  A    between atoms: C_24  and  C_25
REMARK    5  A    between atoms: C_25  and  N_26
REMARK    6  A    between atoms: N_29  and  C_30
REMARK    7  A    between atoms: C_30  and  C_31
REMARK    8  A    between atoms: C_31  and  N_33
REMARK    9  A    between atoms: N_33  and  C_34
REMARK   10  A    between atoms: N_33  and  C_35
REMARK                            x       y       z     vdW  Elec       q    Type
REMARK                         _______ _______ _______ _____ _____    ______ ____
ROOT
ATOM      1  C   UNL     1      -2.565   6.287 129.750  0.00  0.00    +0.000 C 
ATOM      2  C   UNL     1      -3.189   4.931 129.901  0.00  0.00    +0.000 A 
ATOM      3  C   UNL     1      -3.640   4.580 131.199  0.00  0.00    +0.000 A 
ATOM      4  C   UNL     1      -4.216   3.326 131.478  0.00  0.00    +0.000 A 
ATOM      5  C   UNL     1      -4.396   2.457 130.418  0.00  0.00    +0.000 A 
ATOM      6  C   UNL     1      -3.944   2.777 129.133  0.00  0.00    +0.000 A 
ATOM      7  C   UNL     1      -3.322   4.011 128.834  0.00  0.00    +0.000 A 
ENDROOT
BRANCH   4   8
ATOM      8  C   UNL     1      -4.710   3.010 132.860  0.00  0.00    +0.000 C 
ATOM      9  O   UNL     1      -3.826   2.723 133.669  0.00  0.00    +0.000 OA
ATOM     10  N   UNL     1      -6.083   3.231 133.175  0.00  0.00    +0.000 N 
ATOM     11  C   UNL     1      -7.181   2.453 132.506  0.00  0.00    +0.000 C 
ATOM     12  C   UNL     1      -8.269   3.307 131.915  0.00  0.00    +0.000 A 
ATOM     13  C   UNL     1      -9.043   3.178 130.719  0.00  0.00    +0.000 A 
ATOM     14  N   UNL     1      -9.955   4.153 130.562  0.00  0.00    +0.000 NA
ATOM     15  N   UNL     1      -9.789   4.909 131.661  0.00  0.00    +0.000 N 
ATOM     16  C   UNL     1     -10.592   6.088 131.915  0.00  0.00    +0.000 C 
ATOM     17  C   UNL     1      -8.782   4.450 132.472  0.00  0.00    +0.000 A 
ATOM     18  N   UNL     1      -8.474   5.115 133.589  0.00  0.00    +0.000 N 
ATOM     19  C   UNL     1      -7.456   4.866 134.520  0.00  0.00    +0.000 A 
ATOM     20  C   UNL     1      -7.523   5.715 135.657  0.00  0.00    +0.000 A 
ATOM     21  C   UNL     1      -6.622   5.633 136.704  0.00  0.00    +0.000 A 
ATOM     22  C   UNL     1      -5.637   4.671 136.646  0.00  0.00    +0.000 A 
ATOM     23  C   UNL     1      -5.530   3.845 135.522  0.00  0.00    +0.000 A 
ATOM     24  C   UNL     1      -6.400   3.933 134.414  0.00  0.00    +0.000 A 
ATOM     25  H   UNL     1      -9.048   5.904 133.861  0.00  0.00    +0.000 HD
ENDBRANCH   4   8
BRANCH   7  26
ATOM     26  C   UNL     1      -2.863   4.200 127.380  0.00  0.00    +0.000 C 
BRANCH  26  27
ATOM     27  N   UNL     1      -3.722   3.699 126.321  0.00  0.00    +0.000 N 
ATOM     28  C   UNL     1      -4.864   4.250 125.845  0.00  0.00    +0.000 C 
ATOM     29  O   UNL     1      -5.337   5.316 126.228  0.00  0.00    +0.000 OA
ATOM     30  N   UNL     1      -5.429   3.464 124.866  0.00  0.00    +0.000 N 
ATOM     31  H   UNL     1      -3.576   2.795 125.943  0.00  0.00    +0.000 HD
ATOM     32  H   UNL     1      -5.004   2.594 124.569  0.00  0.00    +0.000 HD
BRANCH  30  33
ATOM     33  C   UNL     1      -6.649   3.849 124.180  0.00  0.00    +0.000 C 
BRANCH  33  34
ATOM     34  C   UNL     1      -7.108   2.935 123.005  0.00  0.00    +0.000 C 
ATOM     35  S   UNL     1      -7.670   1.377 123.371  0.00  0.00    +0.000 S 
BRANCH  34  36
ATOM     36  N   UNL     1      -7.032   3.459 121.700  0.00  0.00    +0.000 N 
ATOM     37  C   UNL     1      -8.211   3.837 120.913  0.00  0.00    +0.000 C 
ATOM     38  C   UNL     1      -5.757   3.677 121.002  0.00  0.00    +0.000 C 
ENDBRANCH  34  36
ENDBRANCH  33  34
ENDBRANCH  30  33
ENDBRANCH  26  27
ENDBRANCH   7  26
TORSDOF 6
ENDMDL
