MODEL 1
REMARK VINA RESULT:     -10.3      0.000      0.000
REMARK  Name = CHEMBL1779417
REMARK  11 active torsions:
REMARK  status: ('A' for Active; 'I' for Inactive)
REMARK    1  A    between atoms: C_1  and  O_2
REMARK    2  A    between atoms: O_2  and  C_3
REMARK    3  A    between atoms: C_6  and  S_7
REMARK    4  A    between atoms: S_7  and  N_10
REMARK    5  A    between atoms: C_13  and  C_14
REMARK    6  A    between atoms: C_13  and  N_28
REMARK    7  A    between atoms: C_16  and  C_17
REMARK    8  A    between atoms: C_17  and  N_18
REMARK    9  A    between atoms: C_25  and  O_26
REMARK   10  A    between atoms: O_26  and  C_27
REMARK   11  A    between atoms: C_32  and  C_33
REMARK                            x       y       z     vdW  Elec       q    Type
REMARK                         _______ _______ _______ _____ _____    ______ ____
ROOT
ATOM      1  N   UNL     1      -8.401   1.825 127.349  0.00  0.00    +0.000 N 
ATOM      2  C   UNL     1      -7.666   3.055 127.056  0.00  0.00    +0.000 C 
ATOM      3  O   UNL     1      -8.318   4.023 126.627  0.00  0.00    +0.000 OA
ATOM      4  C   UNL     1      -6.514   3.160 128.110  0.00  0.00    +0.000 C 
ATOM      5  C   UNL     1      -7.638   3.648 129.119  0.00  0.00    +0.000 A 
ATOM      6  C   UNL     1      -7.476   4.661 130.251  0.00  0.00    +0.000 A 
ATOM      7  C   UNL     1      -8.058   4.586 131.474  0.00  0.00    +0.000 A 
ATOM      8 CL   UNL     1      -7.331   5.411 132.826  0.00  0.00    +0.000 Cl
ATOM      9  C   UNL     1      -9.087   3.697 131.443  0.00  0.00    +0.000 A 
ATOM     10  C   UNL     1      -9.425   2.789 130.173  0.00  0.00    +0.000 A 
ATOM     11  C   UNL     1      -8.723   2.767 128.876  0.00  0.00    +0.000 A 
ENDROOT
BRANCH   4  12
ATOM     12  C   UNL     1      -5.954   1.713 128.605  0.00  0.00    +0.000 A 
ATOM     13  C   UNL     1      -5.778   0.516 127.839  0.00  0.00    +0.000 A 
ATOM     14  C   UNL     1      -5.296  -0.620 128.465  0.00  0.00    +0.000 A 
ATOM     15  C   UNL     1      -4.517  -0.318 129.527  0.00  0.00    +0.000 A 
ATOM     16  C   UNL     1      -5.011   0.459 130.470  0.00  0.00    +0.000 A 
ATOM     17  C   UNL     1      -5.654   1.509 129.977  0.00  0.00    +0.000 A 
BRANCH  17  18
ATOM     18  O   UNL     1      -5.680   2.231 131.111  0.00  0.00    +0.000 OA
ATOM     19  C   UNL     1      -6.233   1.460 132.061  0.00  0.00    +0.000 C 
ENDBRANCH  17  18
BRANCH  14  20
ATOM     20  C   UNL     1      -5.451  -2.053 128.026  0.00  0.00    +0.000 C 
BRANCH  20  21
ATOM     21  N   UNL     1      -6.630  -2.823 128.554  0.00  0.00    +0.000 NA
ATOM     22  C   UNL     1      -7.896  -2.064 128.681  0.00  0.00    +0.000 C 
ATOM     23  C   UNL     1      -7.981  -1.571 130.109  0.00  0.00    +0.000 C 
ATOM     24  C   UNL     1      -7.306  -2.709 130.895  0.00  0.00    +0.000 C 
ATOM     25  C   UNL     1      -6.396  -3.456 129.866  0.00  0.00    +0.000 C 
ENDBRANCH  20  21
ENDBRANCH  14  20
ENDBRANCH   4  12
BRANCH   4  26
ATOM     26  N   UNL     1      -5.400   4.127 127.657  0.00  0.00    +0.000 NA
ATOM     27  C   UNL     1      -4.631   3.834 126.381  0.00  0.00    +0.000 C 
ATOM     28  C   UNL     1      -3.158   3.258 126.636  0.00  0.00    +0.000 C 
ATOM     29  C   UNL     1      -2.884   3.757 128.095  0.00  0.00    +0.000 C 
ATOM     30  C   UNL     1      -4.313   4.318 128.652  0.00  0.00    +0.000 C 
BRANCH  30  31
ATOM     31  C   UNL     1      -4.064   5.683 129.042  0.00  0.00    +0.000 A 
ATOM     32  N   UNL     1      -4.176   6.696 128.237  0.00  0.00    +0.000 NA
ATOM     33  C   UNL     1      -3.669   7.695 128.979  0.00  0.00    +0.000 A 
ATOM     34  C   UNL     1      -3.232   7.243 130.199  0.00  0.00    +0.000 A 
ATOM     35  O   UNL     1      -3.454   5.906 130.247  0.00  0.00    +0.000 OA
ENDBRANCH  30  31
ENDBRANCH   4  26
BRANCH   1  36
ATOM     36  S   UNL     1      -8.536   1.529 125.240  0.00  0.00    +0.000 S 
ATOM     37  O   UNL     1      -9.969   1.665 124.813  0.00  0.00    +0.000 OA
ATOM     38  O   UNL     1      -7.838   0.317 125.055  0.00  0.00    +0.000 OA
BRANCH  36  42
ATOM     39  C   UNL     1      -6.920   3.854 120.913  0.00  0.00    +0.000 A 
ATOM     40  C   UNL     1      -8.237   3.513 121.203  0.00  0.00    +0.000 A 
ATOM     41  C   UNL     1      -8.609   2.927 122.494  0.00  0.00    +0.000 A 
ATOM     42  C   UNL     1      -7.667   2.552 123.550  0.00  0.00    +0.000 A 
ATOM     43  C   UNL     1      -6.361   2.998 123.262  0.00  0.00    +0.000 A 
ATOM     44  C   UNL     1      -6.006   3.625 121.952  0.00  0.00    +0.000 A 
BRANCH  39  46
ATOM     45  C   UNL     1      -5.476   5.262 119.566  0.00  0.00    +0.000 C 
ATOM     46  O   UNL     1      -6.674   4.486 119.712  0.00  0.00    +0.000 OA
ENDBRANCH  39  46
ENDBRANCH  36  42
ENDBRANCH   1  36
TORSDOF 9
ENDMDL
MODEL 2
REMARK VINA RESULT:     -10.0      3.156      6.601
REMARK  Name = CHEMBL1779417
REMARK  11 active torsions:
REMARK  status: ('A' for Active; 'I' for Inactive)
REMARK    1  A    between atoms: C_1  and  O_2
REMARK    2  A    between atoms: O_2  and  C_3
REMARK    3  A    between atoms: C_6  and  S_7
REMARK    4  A    between atoms: S_7  and  N_10
REMARK    5  A    between atoms: C_13  and  C_14
REMARK    6  A    between atoms: C_13  and  N_28
REMARK    7  A    between atoms: C_16  and  C_17
REMARK    8  A    between atoms: C_17  and  N_18
REMARK    9  A    between atoms: C_25  and  O_26
REMARK   10  A    between atoms: O_26  and  C_27
REMARK   11  A    between atoms: C_32  and  C_33
REMARK                            x       y       z     vdW  Elec       q    Type
REMARK                         _______ _______ _______ _____ _____    ______ ____
ROOT
ATOM      1  N   UNL     1      -6.220   4.682 126.647  0.00  0.00    +0.000 N 
ATOM      2  C   UNL     1      -5.857   3.365 127.171  0.00  0.00    +0.000 C 
ATOM      3  O   UNL     1      -4.977   2.730 126.564  0.00  0.00    +0.000 OA
ATOM      4  C   UNL     1      -5.975   3.447 128.729  0.00  0.00    +0.000 C 
ATOM      5  C   UNL     1      -4.582   4.207 128.680  0.00  0.00    +0.000 A 
ATOM      6  C   UNL     1      -3.467   4.145 129.721  0.00  0.00    +0.000 A 
ATOM      7  C   UNL     1      -2.691   5.184 130.118  0.00  0.00    +0.000 A 
ATOM      8 CL   UNL     1      -1.930   5.142 131.686  0.00  0.00    +0.000 Cl
ATOM      9  C   UNL     1      -2.780   6.199 129.217  0.00  0.00    +0.000 A 
ATOM     10  C   UNL     1      -3.782   6.181 127.972  0.00  0.00    +0.000 A 
ATOM     11  C   UNL     1      -4.724   5.112 127.597  0.00  0.00    +0.000 A 
ENDROOT
BRANCH   4  12
ATOM     12  C   UNL     1      -7.123   4.483 129.240  0.00  0.00    +0.000 A 
ATOM     13  C   UNL     1      -8.344   4.852 128.588  0.00  0.00    +0.000 A 
ATOM     14  C   UNL     1      -9.181   5.772 129.194  0.00  0.00    +0.000 A 
ATOM     15  C   UNL     1      -9.053   5.757 130.540  0.00  0.00    +0.000 A 
ATOM     16  C   UNL     1      -7.854   5.927 131.062  0.00  0.00    +0.000 A 
ATOM     17  C   UNL     1      -6.926   5.214 130.440  0.00  0.00    +0.000 A 
BRANCH  17  18
ATOM     18  O   UNL     1      -5.983   5.309 131.394  0.00  0.00    +0.000 OA
ATOM     19  C   UNL     1      -6.213   4.327 132.280  0.00  0.00    +0.000 C 
ENDBRANCH  17  18
BRANCH  14  20
ATOM     20  C   UNL     1     -10.231   6.635 128.545  0.00  0.00    +0.000 C 
BRANCH  20  21
ATOM     21  N   UNL     1     -11.399   7.068 129.388  0.00  0.00    +0.000 NA
ATOM     22  C   UNL     1     -12.653   6.300 129.200  0.00  0.00    +0.000 C 
ATOM     23  C   UNL     1     -13.498   7.061 128.202  0.00  0.00    +0.000 C 
ATOM     24  C   UNL     1     -13.151   8.526 128.518  0.00  0.00    +0.000 C 
ATOM     25  C   UNL     1     -11.760   8.490 129.231  0.00  0.00    +0.000 C 
ENDBRANCH  20  21
ENDBRANCH  14  20
ENDBRANCH   4  12
BRANCH   4  26
ATOM     26  N   UNL     1      -6.078   2.050 129.377  0.00  0.00    +0.000 NA
ATOM     27  C   UNL     1      -5.079   0.973 128.990  0.00  0.00    +0.000 C 
ATOM     28  C   UNL     1      -5.680  -0.134 128.000  0.00  0.00    +0.000 C 
ATOM     29  C   UNL     1      -7.216   0.013 128.273  0.00  0.00    +0.000 C 
ATOM     30  C   UNL     1      -7.382   1.371 129.166  0.00  0.00    +0.000 C 
BRANCH  30  31
ATOM     31  C   UNL     1      -8.068   0.960 130.365  0.00  0.00    +0.000 A 
ATOM     32  N   UNL     1      -8.120  -0.269 130.782  0.00  0.00    +0.000 NA
ATOM     33  C   UNL     1      -9.002  -0.181 131.791  0.00  0.00    +0.000 A 
ATOM     34  C   UNL     1      -9.483   1.098 131.928  0.00  0.00    +0.000 A 
ATOM     35  O   UNL     1      -8.902   1.861 130.970  0.00  0.00    +0.000 OA
ENDBRANCH  30  31
ENDBRANCH   4  26
BRANCH   1  36
ATOM     36  S   UNL     1      -7.239   3.658 125.077  0.00  0.00    +0.000 S 
ATOM     37  O   UNL     1      -6.476   3.833 123.795  0.00  0.00    +0.000 OA
ATOM     38  O   UNL     1      -8.560   4.139 125.204  0.00  0.00    +0.000 OA
BRANCH  36  42
ATOM     39  C   UNL     1      -8.886  -1.235 124.774  0.00  0.00    +0.000 A 
ATOM     40  C   UNL     1      -9.541  -0.202 125.436  0.00  0.00    +0.000 A 
ATOM     41  C   UNL     1      -9.034   1.173 125.399  0.00  0.00    +0.000 A 
ATOM     42  C   UNL     1      -7.778   1.591 124.773  0.00  0.00    +0.000 A 
ATOM     43  C   UNL     1      -7.194   0.542 124.034  0.00  0.00    +0.000 A 
ATOM     44  C   UNL     1      -7.743  -0.849 124.056  0.00  0.00    +0.000 A 
BRANCH  39  46
ATOM     45  C   UNL     1      -9.466  -3.268 123.585  0.00  0.00    +0.000 C 
ATOM     46  O   UNL     1      -9.481  -2.479 124.784  0.00  0.00    +0.000 OA
ENDBRANCH  39  46
ENDBRANCH  36  42
ENDBRANCH   1  36
TORSDOF 9
ENDMDL
MODEL 3
REMARK VINA RESULT:      -9.9      3.135      6.633
REMARK  Name = CHEMBL1779417
REMARK  11 active torsions:
REMARK  status: ('A' for Active; 'I' for Inactive)
REMARK    1  A    between atoms: C_1  and  O_2
REMARK    2  A    between atoms: O_2  and  C_3
REMARK    3  A    between atoms: C_6  and  S_7
REMARK    4  A    between atoms: S_7  and  N_10
REMARK    5  A    between atoms: C_13  and  C_14
REMARK    6  A    between atoms: C_13  and  N_28
REMARK    7  A    between atoms: C_16  and  C_17
REMARK    8  A    between atoms: C_17  and  N_18
REMARK    9  A    between atoms: C_25  and  O_26
REMARK   10  A    between atoms: O_26  and  C_27
REMARK   11  A    between atoms: C_32  and  C_33
REMARK                            x       y       z     vdW  Elec       q    Type
REMARK                         _______ _______ _______ _____ _____    ______ ____
ROOT
ATOM      1  N   UNL     1      -6.377   4.568 126.945  0.00  0.00    +0.000 N 
ATOM      2  C   UNL     1      -6.195   3.200 127.431  0.00  0.00    +0.000 C 
ATOM      3  O   UNL     1      -5.358   2.491 126.845  0.00  0.00    +0.000 OA
ATOM      4  C   UNL     1      -6.395   3.236 128.983  0.00  0.00    +0.000 C 
ATOM      5  C   UNL     1      -4.925   3.834 129.042  0.00  0.00    +0.000 A 
ATOM      6  C   UNL     1      -3.887   3.606 130.138  0.00  0.00    +0.000 A 
ATOM      7  C   UNL     1      -3.025   4.535 130.621  0.00  0.00    +0.000 A 
ATOM      8 CL   UNL     1      -2.366   4.348 132.224  0.00  0.00    +0.000 Cl
ATOM      9  C   UNL     1      -2.946   5.586 129.762  0.00  0.00    +0.000 A 
ATOM     10  C   UNL     1      -3.869   5.729 128.464  0.00  0.00    +0.000 A 
ATOM     11  C   UNL     1      -4.902   4.789 127.993  0.00  0.00    +0.000 A 
ENDROOT
BRANCH   4  12
ATOM     12  C   UNL     1      -7.448   4.378 129.474  0.00  0.00    +0.000 A 
ATOM     13  C   UNL     1      -8.596   4.886 128.786  0.00  0.00    +0.000 A 
ATOM     14  C   UNL     1      -9.356   5.876 129.384  0.00  0.00    +0.000 A 
ATOM     15  C   UNL     1      -9.284   5.821 130.733  0.00  0.00    +0.000 A 
ATOM     16  C   UNL     1      -8.096   5.853 131.303  0.00  0.00    +0.000 A 
ATOM     17  C   UNL     1      -7.223   5.058 130.699  0.00  0.00    +0.000 A 
BRANCH  17  18
ATOM     18  O   UNL     1      -6.315   5.034 131.690  0.00  0.00    +0.000 OA
ATOM     19  C   UNL     1      -5.939   6.302 131.917  0.00  0.00    +0.000 C 
ENDBRANCH  17  18
BRANCH  14  20
ATOM     20  C   UNL     1     -10.284   6.858 128.717  0.00  0.00    +0.000 C 
BRANCH  20  21
ATOM     21  N   UNL     1     -11.559   7.213 129.432  0.00  0.00    +0.000 NA
ATOM     22  C   UNL     1     -12.727   6.347 129.143  0.00  0.00    +0.000 C 
ATOM     23  C   UNL     1     -13.524   7.023 128.049  0.00  0.00    +0.000 C 
ATOM     24  C   UNL     1     -13.322   8.516 128.363  0.00  0.00    +0.000 C 
ATOM     25  C   UNL     1     -12.009   8.599 129.208  0.00  0.00    +0.000 C 
ENDBRANCH  20  21
ENDBRANCH  14  20
ENDBRANCH   4  12
BRANCH   4  26
ATOM     26  N   UNL     1      -6.691   1.838 129.562  0.00  0.00    +0.000 NA
ATOM     27  C   UNL     1      -8.123   1.331 129.597  0.00  0.00    +0.000 C 
ATOM     28  C   UNL     1      -8.786   1.384 131.055  0.00  0.00    +0.000 C 
ATOM     29  C   UNL     1      -7.514   1.402 131.969  0.00  0.00    +0.000 C 
ATOM     30  C   UNL     1      -6.248   1.650 130.968  0.00  0.00    +0.000 C 
BRANCH  30  31
ATOM     31  C   UNL     1      -5.357   0.540 131.194  0.00  0.00    +0.000 A 
ATOM     32  N   UNL     1      -4.442   0.167 130.351  0.00  0.00    +0.000 NA
ATOM     33  C   UNL     1      -4.019  -0.986 130.898  0.00  0.00    +0.000 A 
ATOM     34  C   UNL     1      -4.721  -1.289 132.038  0.00  0.00    +0.000 A 
ATOM     35  O   UNL     1      -5.636  -0.308 132.232  0.00  0.00    +0.000 OA
ENDBRANCH  30  31
ENDBRANCH   4  26
BRANCH   1  36
ATOM     36  S   UNL     1      -7.411   3.725 125.280  0.00  0.00    +0.000 S 
ATOM     37  O   UNL     1      -6.605   3.951 124.032  0.00  0.00    +0.000 OA
ATOM     38  O   UNL     1      -8.705   4.272 125.414  0.00  0.00    +0.000 OA
BRANCH  36  42
ATOM     39  C   UNL     1      -8.997  -1.162 124.696  0.00  0.00    +0.000 A 
ATOM     40  C   UNL     1      -9.120  -0.406 125.857  0.00  0.00    +0.000 A 
ATOM     41  C   UNL     1      -8.711   1.000 125.901  0.00  0.00    +0.000 A 
ATOM     42  C   UNL     1      -8.059   1.722 124.807  0.00  0.00    +0.000 A 
ATOM     43  C   UNL     1      -8.038   0.958 123.622  0.00  0.00    +0.000 A 
ATOM     44  C   UNL     1      -8.491  -0.467 123.587  0.00  0.00    +0.000 A 
BRANCH  39  46
ATOM     45  C   UNL     1      -9.444  -3.232 123.514  0.00  0.00    +0.000 C 
ATOM     46  O   UNL     1      -9.492  -2.449 124.716  0.00  0.00    +0.000 OA
ENDBRANCH  39  46
ENDBRANCH  36  42
ENDBRANCH   1  36
TORSDOF 9
ENDMDL
MODEL 4
REMARK VINA RESULT:      -9.8      3.441      6.903
REMARK  Name = CHEMBL1779417
REMARK  11 active torsions:
REMARK  status: ('A' for Active; 'I' for Inactive)
REMARK    1  A    between atoms: C_1  and  O_2
REMARK    2  A    between atoms: O_2  and  C_3
REMARK    3  A    between atoms: C_6  and  S_7
REMARK    4  A    between atoms: S_7  and  N_10
REMARK    5  A    between atoms: C_13  and  C_14
REMARK    6  A    between atoms: C_13  and  N_28
REMARK    7  A    between atoms: C_16  and  C_17
REMARK    8  A    between atoms: C_17  and  N_18
REMARK    9  A    between atoms: C_25  and  O_26
REMARK   10  A    between atoms: O_26  and  C_27
REMARK   11  A    between atoms: C_32  and  C_33
REMARK                            x       y       z     vdW  Elec       q    Type
REMARK                         _______ _______ _______ _____ _____    ______ ____
ROOT
ATOM      1  N   UNL     1      -6.808   3.499 127.788  0.00  0.00    +0.000 N 
ATOM      2  C   UNL     1      -6.710   2.453 128.806  0.00  0.00    +0.000 C 
ATOM      3  O   UNL     1      -6.040   1.443 128.526  0.00  0.00    +0.000 OA
ATOM      4  C   UNL     1      -6.691   3.171 130.197  0.00  0.00    +0.000 C 
ATOM      5  C   UNL     1      -5.171   3.501 129.877  0.00  0.00    +0.000 A 
ATOM      6  C   UNL     1      -4.024   3.598 130.880  0.00  0.00    +0.000 A 
ATOM      7  C   UNL     1      -3.009   4.497 130.842  0.00  0.00    +0.000 A 
ATOM      8 CL   UNL     1      -2.162   4.902 132.311  0.00  0.00    +0.000 Cl
ATOM      9  C   UNL     1      -2.936   5.061 129.607  0.00  0.00    +0.000 A 
ATOM     10  C   UNL     1      -4.006   4.786 128.452  0.00  0.00    +0.000 A 
ATOM     11  C   UNL     1      -5.188   3.908 128.518  0.00  0.00    +0.000 A 
ENDROOT
BRANCH   4  12
ATOM     12  C   UNL     1      -7.539   4.562 130.221  0.00  0.00    +0.000 A 
ATOM     13  C   UNL     1      -8.785   4.856 129.581  0.00  0.00    +0.000 A 
ATOM     14  C   UNL     1      -9.332   6.120 129.719  0.00  0.00    +0.000 A 
ATOM     15  C   UNL     1      -8.954   6.707 130.876  0.00  0.00    +0.000 A 
ATOM     16  C   UNL     1      -7.666   6.816 131.137  0.00  0.00    +0.000 A 
ATOM     17  C   UNL     1      -7.001   5.700 130.875  0.00  0.00    +0.000 A 
BRANCH  17  18
ATOM     18  O   UNL     1      -5.891   6.007 131.569  0.00  0.00    +0.000 OA
ATOM     19  C   UNL     1      -5.417   7.160 131.074  0.00  0.00    +0.000 C 
ENDBRANCH  17  18
BRANCH  14  20
ATOM     20  C   UNL     1     -10.334   6.797 128.821  0.00  0.00    +0.000 C 
BRANCH  20  21
ATOM     21  N   UNL     1     -11.503   7.484 129.470  0.00  0.00    +0.000 NA
ATOM     22  C   UNL     1     -12.733   6.670 129.617  0.00  0.00    +0.000 C 
ATOM     23  C   UNL     1     -13.618   6.978 128.428  0.00  0.00    +0.000 C 
ATOM     24  C   UNL     1     -13.316   8.463 128.164  0.00  0.00    +0.000 C 
ATOM     25  C   UNL     1     -11.914   8.733 128.801  0.00  0.00    +0.000 C 
ENDBRANCH  20  21
ENDBRANCH  14  20
ENDBRANCH   4  12
BRANCH   4  26
ATOM     26  N   UNL     1      -7.054   2.211 131.349  0.00  0.00    +0.000 NA
ATOM     27  C   UNL     1      -8.385   1.481 131.321  0.00  0.00    +0.000 C 
ATOM     28  C   UNL     1      -9.473   2.091 132.327  0.00  0.00    +0.000 C 
ATOM     29  C   UNL     1      -8.556   2.841 133.351  0.00  0.00    +0.000 C 
ATOM     30  C   UNL     1      -7.061   2.843 132.694  0.00  0.00    +0.000 C 
BRANCH  30  31
ATOM     31  C   UNL     1      -6.209   2.220 133.675  0.00  0.00    +0.000 A 
ATOM     32  N   UNL     1      -6.468   1.075 134.233  0.00  0.00    +0.000 NA
ATOM     33  C   UNL     1      -5.521   1.013 135.185  0.00  0.00    +0.000 A 
ATOM     34  C   UNL     1      -4.742   2.143 135.194  0.00  0.00    +0.000 A 
ATOM     35  O   UNL     1      -5.204   2.970 134.224  0.00  0.00    +0.000 OA
ENDBRANCH  30  31
ENDBRANCH   4  26
BRANCH   1  36
ATOM     36  S   UNL     1      -8.143   2.206 126.741  0.00  0.00    +0.000 S 
ATOM     37  O   UNL     1      -8.574   2.869 125.464  0.00  0.00    +0.000 OA
ATOM     38  O   UNL     1      -9.086   1.869 127.735  0.00  0.00    +0.000 OA
BRANCH  36  42
ATOM     39  C   UNL     1      -7.158  -2.406 124.618  0.00  0.00    +0.000 A 
ATOM     40  C   UNL     1      -6.214  -1.417 124.875  0.00  0.00    +0.000 A 
ATOM     41  C   UNL     1      -6.578  -0.170 125.554  0.00  0.00    +0.000 A 
ATOM     42  C   UNL     1      -7.938   0.213 125.938  0.00  0.00    +0.000 A 
ATOM     43  C   UNL     1      -8.848  -0.847 125.750  0.00  0.00    +0.000 A 
ATOM     44  C   UNL     1      -8.452  -2.127 125.085  0.00  0.00    +0.000 A 
BRANCH  39  46
ATOM     45  C   UNL     1      -5.300  -3.793 123.908  0.00  0.00    +0.000 C 
ATOM     46  O   UNL     1      -6.712  -3.585 124.059  0.00  0.00    +0.000 OA
ENDBRANCH  39  46
ENDBRANCH  36  42
ENDBRANCH   1  36
TORSDOF 9
ENDMDL
MODEL 5
REMARK VINA RESULT:      -9.8      2.727      6.119
REMARK  Name = CHEMBL1779417
REMARK  11 active torsions:
REMARK  status: ('A' for Active; 'I' for Inactive)
REMARK    1  A    between atoms: C_1  and  O_2
REMARK    2  A    between atoms: O_2  and  C_3
REMARK    3  A    between atoms: C_6  and  S_7
REMARK    4  A    between atoms: S_7  and  N_10
REMARK    5  A    between atoms: C_13  and  C_14
REMARK    6  A    between atoms: C_13  and  N_28
REMARK    7  A    between atoms: C_16  and  C_17
REMARK    8  A    between atoms: C_17  and  N_18
REMARK    9  A    between atoms: C_25  and  O_26
REMARK   10  A    between atoms: O_26  and  C_27
REMARK   11  A    between atoms: C_32  and  C_33
REMARK                            x       y       z     vdW  Elec       q    Type
REMARK                         _______ _______ _______ _____ _____    ______ ____
ROOT
ATOM      1  N   UNL     1      -6.615   3.929 128.619  0.00  0.00    +0.000 N 
ATOM      2  C   UNL     1      -6.271   2.550 128.271  0.00  0.00    +0.000 C 
ATOM      3  O   UNL     1      -5.279   2.374 127.541  0.00  0.00    +0.000 OA
ATOM      4  C   UNL     1      -6.626   1.665 129.512  0.00  0.00    +0.000 C 
ATOM      5  C   UNL     1      -5.280   2.219 130.147  0.00  0.00    +0.000 A 
ATOM      6  C   UNL     1      -4.332   1.470 131.082  0.00  0.00    +0.000 A 
ATOM      7  C   UNL     1      -3.676   2.004 132.143  0.00  0.00    +0.000 A 
ATOM      8 CL   UNL     1      -3.158   0.968 133.445  0.00  0.00    +0.000 Cl
ATOM      9  C   UNL     1      -3.678   3.361 132.053  0.00  0.00    +0.000 A 
ATOM     10  C   UNL     1      -4.479   4.165 130.928  0.00  0.00    +0.000 A 
ATOM     11  C   UNL     1      -5.302   3.604 129.841  0.00  0.00    +0.000 A 
ENDROOT
BRANCH   4  12
ATOM     12  C   UNL     1      -7.887   2.232 130.374  0.00  0.00    +0.000 A 
ATOM     13  C   UNL     1      -8.990   3.024 129.921  0.00  0.00    +0.000 A 
ATOM     14  C   UNL     1      -9.957   3.415 130.831  0.00  0.00    +0.000 A 
ATOM     15  C   UNL     1     -10.063   2.543 131.858  0.00  0.00    +0.000 A 
ATOM     16  C   UNL     1      -8.981   2.249 132.551  0.00  0.00    +0.000 A 
ATOM     17  C   UNL     1      -7.930   2.019 131.776  0.00  0.00    +0.000 A 
BRANCH  17  18
ATOM     18  O   UNL     1      -7.172   1.415 132.707  0.00  0.00    +0.000 OA
ATOM     19  C   UNL     1      -6.974   2.300 133.696  0.00  0.00    +0.000 C 
ENDBRANCH  17  18
BRANCH  14  20
ATOM     20  C   UNL     1     -10.914   4.573 130.722  0.00  0.00    +0.000 C 
BRANCH  20  21
ATOM     21  N   UNL     1     -10.486   5.892 131.305  0.00  0.00    +0.000 NA
ATOM     22  C   UNL     1      -9.630   6.736 130.438  0.00  0.00    +0.000 C 
ATOM     23  C   UNL     1      -8.193   6.460 130.822  0.00  0.00    +0.000 C 
ATOM     24  C   UNL     1      -8.297   6.202 132.336  0.00  0.00    +0.000 C 
ATOM     25  C   UNL     1      -9.780   5.780 132.595  0.00  0.00    +0.000 C 
ENDBRANCH  20  21
ENDBRANCH  14  20
ENDBRANCH   4  12
BRANCH   4  26
ATOM     26  N   UNL     1      -6.756   0.173 129.142  0.00  0.00    +0.000 NA
ATOM     27  C   UNL     1      -6.939  -0.856 130.244  0.00  0.00    +0.000 C 
ATOM     28  C   UNL     1      -5.614  -1.699 130.562  0.00  0.00    +0.000 C 
ATOM     29  C   UNL     1      -4.813  -1.524 129.227  0.00  0.00    +0.000 C 
ATOM     30  C   UNL     1      -5.603  -0.372 128.380  0.00  0.00    +0.000 C 
BRANCH  30  31
ATOM     31  C   UNL     1      -5.929  -0.982 127.115  0.00  0.00    +0.000 A 
ATOM     32  N   UNL     1      -6.623  -2.074 126.998  0.00  0.00    +0.000 NA
ATOM     33  C   UNL     1      -6.497  -2.341 125.687  0.00  0.00    +0.000 A 
ATOM     34  C   UNL     1      -5.699  -1.416 125.060  0.00  0.00    +0.000 A 
ATOM     35  O   UNL     1      -5.285  -0.527 125.996  0.00  0.00    +0.000 OA
ENDBRANCH  30  31
ENDBRANCH   4  26
BRANCH   1  36
ATOM     36  S   UNL     1      -7.335   4.140 126.622  0.00  0.00    +0.000 S 
ATOM     37  O   UNL     1      -6.217   4.619 125.741  0.00  0.00    +0.000 OA
ATOM     38  O   UNL     1      -8.501   4.915 126.797  0.00  0.00    +0.000 OA
BRANCH  36  42
ATOM     39  C   UNL     1      -9.263   0.411 123.601  0.00  0.00    +0.000 A 
ATOM     40  C   UNL     1      -8.984   0.287 124.958  0.00  0.00    +0.000 A 
ATOM     41  C   UNL     1      -8.512   1.428 125.749  0.00  0.00    +0.000 A 
ATOM     42  C   UNL     1      -8.195   2.752 125.211  0.00  0.00    +0.000 A 
ATOM     43  C   UNL     1      -8.580   2.867 123.859  0.00  0.00    +0.000 A 
ATOM     44  C   UNL     1      -9.091   1.700 123.076  0.00  0.00    +0.000 A 
BRANCH  39  46
ATOM     45  C   UNL     1      -9.049  -1.917 122.953  0.00  0.00    +0.000 C 
ATOM     46  O   UNL     1      -9.790  -0.688 122.955  0.00  0.00    +0.000 OA
ENDBRANCH  39  46
ENDBRANCH  36  42
ENDBRANCH   1  36
TORSDOF 9
ENDMDL
MODEL 6
REMARK VINA RESULT:      -9.4      2.322      5.718
REMARK  Name = CHEMBL1779417
REMARK  11 active torsions:
REMARK  status: ('A' for Active; 'I' for Inactive)
REMARK    1  A    between atoms: C_1  and  O_2
REMARK    2  A    between atoms: O_2  and  C_3
REMARK    3  A    between atoms: C_6  and  S_7
REMARK    4  A    between atoms: S_7  and  N_10
REMARK    5  A    between atoms: C_13  and  C_14
REMARK    6  A    between atoms: C_13  and  N_28
REMARK    7  A    between atoms: C_16  and  C_17
REMARK    8  A    between atoms: C_17  and  N_18
REMARK    9  A    between atoms: C_25  and  O_26
REMARK   10  A    between atoms: O_26  and  C_27
REMARK   11  A    between atoms: C_32  and  C_33
REMARK                            x       y       z     vdW  Elec       q    Type
REMARK                         _______ _______ _______ _____ _____    ______ ____
ROOT
ATOM      1  N   UNL     1      -7.118   4.239 128.279  0.00  0.00    +0.000 N 
ATOM      2  C   UNL     1      -6.453   2.970 127.982  0.00  0.00    +0.000 C 
ATOM      3  O   UNL     1      -5.501   2.996 127.181  0.00  0.00    +0.000 OA
ATOM      4  C   UNL     1      -6.482   2.121 129.296  0.00  0.00    +0.000 C 
ATOM      5  C   UNL     1      -5.286   3.045 129.783  0.00  0.00    +0.000 A 
ATOM      6  C   UNL     1      -4.116   2.636 130.674  0.00  0.00    +0.000 A 
ATOM      7  C   UNL     1      -3.551   3.397 131.644  0.00  0.00    +0.000 A 
ATOM      8 CL   UNL     1      -2.696   2.629 132.955  0.00  0.00    +0.000 Cl
ATOM      9  C   UNL     1      -3.910   4.699 131.479  0.00  0.00    +0.000 A 
ATOM     10  C   UNL     1      -4.966   5.185 130.382  0.00  0.00    +0.000 A 
ATOM     11  C   UNL     1      -5.686   4.352 129.402  0.00  0.00    +0.000 A 
ENDROOT
BRANCH   4  12
ATOM     12  C   UNL     1      -7.786   2.413 130.228  0.00  0.00    +0.000 A 
ATOM     13  C   UNL     1      -9.068   2.913 129.834  0.00  0.00    +0.000 A 
ATOM     14  C   UNL     1     -10.042   3.104 130.797  0.00  0.00    +0.000 A 
ATOM     15  C   UNL     1      -9.882   2.268 131.847  0.00  0.00    +0.000 A 
ATOM     16  C   UNL     1      -8.721   2.257 132.473  0.00  0.00    +0.000 A 
ATOM     17  C   UNL     1      -7.694   2.247 131.634  0.00  0.00    +0.000 A 
BRANCH  17  18
ATOM     18  O   UNL     1      -6.762   1.867 132.525  0.00  0.00    +0.000 OA
ATOM     19  C   UNL     1      -6.722   2.805 133.484  0.00  0.00    +0.000 C 
ENDBRANCH  17  18
BRANCH  14  20
ATOM     20  C   UNL     1     -11.247   4.006 130.728  0.00  0.00    +0.000 C 
BRANCH  20  21
ATOM     21  N   UNL     1     -11.063   5.450 131.107  0.00  0.00    +0.000 NA
ATOM     22  C   UNL     1     -11.074   6.420 129.986  0.00  0.00    +0.000 C 
ATOM     23  C   UNL     1      -9.633   6.667 129.596  0.00  0.00    +0.000 C 
ATOM     24  C   UNL     1      -8.899   6.564 130.944  0.00  0.00    +0.000 C 
ATOM     25  C   UNL     1      -9.831   5.719 131.873  0.00  0.00    +0.000 C 
ENDBRANCH  20  21
ENDBRANCH  14  20
ENDBRANCH   4  12
BRANCH   4  26
ATOM     26  N   UNL     1      -6.246   0.621 129.023  0.00  0.00    +0.000 NA
ATOM     27  C   UNL     1      -5.532   0.197 127.751  0.00  0.00    +0.000 C 
ATOM     28  C   UNL     1      -6.513  -0.398 126.632  0.00  0.00    +0.000 C 
ATOM     29  C   UNL     1      -7.740  -0.835 127.503  0.00  0.00    +0.000 C 
ATOM     30  C   UNL     1      -7.485  -0.197 128.985  0.00  0.00    +0.000 C 
BRANCH  30  31
ATOM     31  C   UNL     1      -7.517  -1.315 129.895  0.00  0.00    +0.000 A 
ATOM     32  N   UNL     1      -7.680  -1.196 131.178  0.00  0.00    +0.000 NA
ATOM     33  C   UNL     1      -7.449  -2.450 131.602  0.00  0.00    +0.000 A 
ATOM     34  C   UNL     1      -7.118  -3.281 130.560  0.00  0.00    +0.000 A 
ATOM     35  O   UNL     1      -7.124  -2.539 129.425  0.00  0.00    +0.000 OA
ENDBRANCH  30  31
ENDBRANCH   4  26
BRANCH   1  36
ATOM     36  S   UNL     1      -8.001   4.106 126.341  0.00  0.00    +0.000 S 
ATOM     37  O   UNL     1      -8.776   5.362 126.064  0.00  0.00    +0.000 OA
ATOM     38  O   UNL     1      -8.646   2.852 126.383  0.00  0.00    +0.000 OA
BRANCH  36  42
ATOM     39  C   UNL     1      -5.695   3.970 121.714  0.00  0.00    +0.000 A 
ATOM     40  C   UNL     1      -5.196   4.605 122.847  0.00  0.00    +0.000 A 
ATOM     41  C   UNL     1      -5.886   4.521 124.137  0.00  0.00    +0.000 A 
ATOM     42  C   UNL     1      -7.179   3.872 124.360  0.00  0.00    +0.000 A 
ATOM     43  C   UNL     1      -7.605   3.161 123.218  0.00  0.00    +0.000 A 
ATOM     44  C   UNL     1      -6.870   3.231 121.918  0.00  0.00    +0.000 A 
BRANCH  39  46
ATOM     45  C   UNL     1      -5.204   5.050 119.598  0.00  0.00    +0.000 C 
ATOM     46  O   UNL     1      -4.934   4.024 120.565  0.00  0.00    +0.000 OA
ENDBRANCH  39  46
ENDBRANCH  36  42
ENDBRANCH   1  36
TORSDOF 9
ENDMDL
MODEL 7
REMARK VINA RESULT:      -9.4      1.253      2.047
REMARK  Name = CHEMBL1779417
REMARK  11 active torsions:
REMARK  status: ('A' for Active; 'I' for Inactive)
REMARK    1  A    between atoms: C_1  and  O_2
REMARK    2  A    between atoms: O_2  and  C_3
REMARK    3  A    between atoms: C_6  and  S_7
REMARK    4  A    between atoms: S_7  and  N_10
REMARK    5  A    between atoms: C_13  and  C_14
REMARK    6  A    between atoms: C_13  and  N_28
REMARK    7  A    between atoms: C_16  and  C_17
REMARK    8  A    between atoms: C_17  and  N_18
REMARK    9  A    between atoms: C_25  and  O_26
REMARK   10  A    between atoms: O_26  and  C_27
REMARK   11  A    between atoms: C_32  and  C_33
REMARK                            x       y       z     vdW  Elec       q    Type
REMARK                         _______ _______ _______ _____ _____    ______ ____
ROOT
ATOM      1  N   UNL     1      -8.538   1.691 127.084  0.00  0.00    +0.000 N 
ATOM      2  C   UNL     1      -7.692   2.863 126.861  0.00  0.00    +0.000 C 
ATOM      3  O   UNL     1      -8.258   3.927 126.553  0.00  0.00    +0.000 OA
ATOM      4  C   UNL     1      -6.491   2.755 127.858  0.00  0.00    +0.000 C 
ATOM      5  C   UNL     1      -7.513   3.259 128.964  0.00  0.00    +0.000 A 
ATOM      6  C   UNL     1      -7.197   4.141 130.169  0.00  0.00    +0.000 A 
ATOM      7  C   UNL     1      -7.729   4.013 131.410  0.00  0.00    +0.000 A 
ATOM      8 CL   UNL     1      -6.862   4.634 132.788  0.00  0.00    +0.000 Cl
ATOM      9  C   UNL     1      -8.846   3.238 131.356  0.00  0.00    +0.000 A 
ATOM     10  C   UNL     1      -9.331   2.489 130.031  0.00  0.00    +0.000 A 
ATOM     11  C   UNL     1      -8.693   2.516 128.702  0.00  0.00    +0.000 A 
ENDROOT
BRANCH   4  12
ATOM     12  C   UNL     1      -6.064   1.220 128.195  0.00  0.00    +0.000 A 
ATOM     13  C   UNL     1      -5.946   0.589 129.475  0.00  0.00    +0.000 A 
ATOM     14  C   UNL     1      -5.551  -0.736 129.539  0.00  0.00    +0.000 A 
ATOM     15  C   UNL     1      -5.892  -1.418 128.423  0.00  0.00    +0.000 A 
ATOM     16  C   UNL     1      -5.493  -0.955 127.255  0.00  0.00    +0.000 A 
ATOM     17  C   UNL     1      -5.668   0.355 127.142  0.00  0.00    +0.000 A 
BRANCH  17  18
ATOM     18  O   UNL     1      -5.538   0.421 125.806  0.00  0.00    +0.000 OA
ATOM     19  C   UNL     1      -5.245  -0.815 125.372  0.00  0.00    +0.000 C 
ENDBRANCH  17  18
BRANCH  14  20
ATOM     20  C   UNL     1      -4.932  -1.459 130.706  0.00  0.00    +0.000 C 
BRANCH  20  21
ATOM     21  N   UNL     1      -4.926  -2.963 130.674  0.00  0.00    +0.000 NA
ATOM     22  C   UNL     1      -6.108  -3.628 131.273  0.00  0.00    +0.000 C 
ATOM     23  C   UNL     1      -5.751  -3.973 132.702  0.00  0.00    +0.000 C 
ATOM     24  C   UNL     1      -4.249  -4.296 132.602  0.00  0.00    +0.000 C 
ATOM     25  C   UNL     1      -3.744  -3.575 131.310  0.00  0.00    +0.000 C 
ENDBRANCH  20  21
ENDBRANCH  14  20
ENDBRANCH   4  12
BRANCH   4  26
ATOM     26  N   UNL     1      -5.303   3.643 127.433  0.00  0.00    +0.000 NA
ATOM     27  C   UNL     1      -4.571   3.341 126.136  0.00  0.00    +0.000 C 
ATOM     28  C   UNL     1      -3.150   2.633 126.351  0.00  0.00    +0.000 C 
ATOM     29  C   UNL     1      -2.823   3.046 127.826  0.00  0.00    +0.000 C 
ATOM     30  C   UNL     1      -4.196   3.701 128.422  0.00  0.00    +0.000 C 
BRANCH  30  31
ATOM     31  C   UNL     1      -3.829   5.022 128.866  0.00  0.00    +0.000 A 
ATOM     32  N   UNL     1      -4.505   6.093 128.577  0.00  0.00    +0.000 NA
ATOM     33  C   UNL     1      -3.692   7.062 129.031  0.00  0.00    +0.000 A 
ATOM     34  C   UNL     1      -2.532   6.543 129.549  0.00  0.00    +0.000 A 
ATOM     35  O   UNL     1      -2.589   5.195 129.417  0.00  0.00    +0.000 OA
ENDBRANCH  30  31
ENDBRANCH   4  26
BRANCH   1  36
ATOM     36  S   UNL     1      -8.795   1.606 124.968  0.00  0.00    +0.000 S 
ATOM     37  O   UNL     1     -10.190   2.039 124.621  0.00  0.00    +0.000 OA
ATOM     38  O   UNL     1      -8.343   0.305 124.657  0.00  0.00    +0.000 OA
BRANCH  36  42
ATOM     39  C   UNL     1      -6.884   3.865 120.727  0.00  0.00    +0.000 A 
ATOM     40  C   UNL     1      -8.227   3.593 120.961  0.00  0.00    +0.000 A 
ATOM     41  C   UNL     1      -8.682   3.020 122.231  0.00  0.00    +0.000 A 
ATOM     42  C   UNL     1      -7.805   2.590 123.322  0.00  0.00    +0.000 A 
ATOM     43  C   UNL     1      -6.467   2.968 123.091  0.00  0.00    +0.000 A 
ATOM     44  C   UNL     1      -6.026   3.583 121.801  0.00  0.00    +0.000 A 
BRANCH  39  46
ATOM     45  C   UNL     1      -5.452   5.408 119.521  0.00  0.00    +0.000 C 
ATOM     46  O   UNL     1      -6.556   4.490 119.542  0.00  0.00    +0.000 OA
ENDBRANCH  39  46
ENDBRANCH  36  42
ENDBRANCH   1  36
TORSDOF 9
ENDMDL
MODEL 8
REMARK VINA RESULT:      -9.4      2.210      3.064
REMARK  Name = CHEMBL1779417
REMARK  11 active torsions:
REMARK  status: ('A' for Active; 'I' for Inactive)
REMARK    1  A    between atoms: C_1  and  O_2
REMARK    2  A    between atoms: O_2  and  C_3
REMARK    3  A    between atoms: C_6  and  S_7
REMARK    4  A    between atoms: S_7  and  N_10
REMARK    5  A    between atoms: C_13  and  C_14
REMARK    6  A    between atoms: C_13  and  N_28
REMARK    7  A    between atoms: C_16  and  C_17
REMARK    8  A    between atoms: C_17  and  N_18
REMARK    9  A    between atoms: C_25  and  O_26
REMARK   10  A    between atoms: O_26  and  C_27
REMARK   11  A    between atoms: C_32  and  C_33
REMARK                            x       y       z     vdW  Elec       q    Type
REMARK                         _______ _______ _______ _____ _____    ______ ____
ROOT
ATOM      1  N   UNL     1      -7.993   1.978 127.856  0.00  0.00    +0.000 N 
ATOM      2  C   UNL     1      -7.447   3.307 127.577  0.00  0.00    +0.000 C 
ATOM      3  O   UNL     1      -8.199   4.130 127.024  0.00  0.00    +0.000 OA
ATOM      4  C   UNL     1      -6.463   3.649 128.744  0.00  0.00    +0.000 C 
ATOM      5  C   UNL     1      -7.766   3.970 129.594  0.00  0.00    +0.000 A 
ATOM      6  C   UNL     1      -7.912   5.036 130.678  0.00  0.00    +0.000 A 
ATOM      7  C   UNL     1      -8.614   4.905 131.831  0.00  0.00    +0.000 A 
ATOM      8 CL   UNL     1      -8.203   5.894 133.207  0.00  0.00    +0.000 Cl
ATOM      9  C   UNL     1      -9.467   3.850 131.737  0.00  0.00    +0.000 A 
ATOM     10  C   UNL     1      -9.492   2.851 130.490  0.00  0.00    +0.000 A 
ATOM     11  C   UNL     1      -8.648   2.905 129.283  0.00  0.00    +0.000 A 
ENDROOT
BRANCH   4  12
ATOM     12  C   UNL     1      -5.729   2.341 129.379  0.00  0.00    +0.000 A 
ATOM     13  C   UNL     1      -5.343   1.130 128.721  0.00  0.00    +0.000 A 
ATOM     14  C   UNL     1      -4.738   0.126 129.457  0.00  0.00    +0.000 A 
ATOM     15  C   UNL     1      -4.066   0.619 130.522  0.00  0.00    +0.000 A 
ATOM     16  C   UNL     1      -4.715   1.384 131.378  0.00  0.00    +0.000 A 
ATOM     17  C   UNL     1      -5.474   2.288 130.774  0.00  0.00    +0.000 A 
BRANCH  17  18
ATOM     18  O   UNL     1      -5.662   3.081 131.843  0.00  0.00    +0.000 OA
ATOM     19  C   UNL     1      -6.223   2.330 132.803  0.00  0.00    +0.000 C 
ENDBRANCH  17  18
BRANCH  14  20
ATOM     20  C   UNL     1      -4.664  -1.342 129.132  0.00  0.00    +0.000 C 
BRANCH  20  21
ATOM     21  N   UNL     1      -5.803  -2.217 129.578  0.00  0.00    +0.000 NA
ATOM     22  C   UNL     1      -6.774  -2.603 128.527  0.00  0.00    +0.000 C 
ATOM     23  C   UNL     1      -7.920  -1.618 128.594  0.00  0.00    +0.000 C 
ATOM     24  C   UNL     1      -8.005  -1.307 130.099  0.00  0.00    +0.000 C 
ATOM     25  C   UNL     1      -6.597  -1.653 130.685  0.00  0.00    +0.000 C 
ENDBRANCH  20  21
ENDBRANCH  14  20
ENDBRANCH   4  12
BRANCH   4  26
ATOM     26  N   UNL     1      -5.484   4.779 128.364  0.00  0.00    +0.000 NA
ATOM     27  C   UNL     1      -4.782   4.737 127.017  0.00  0.00    +0.000 C 
ATOM     28  C   UNL     1      -3.246   4.291 127.107  0.00  0.00    +0.000 C 
ATOM     29  C   UNL     1      -2.918   4.624 128.602  0.00  0.00    +0.000 C 
ATOM     30  C   UNL     1      -4.352   4.954 129.310  0.00  0.00    +0.000 C 
BRANCH  30  31
ATOM     31  C   UNL     1      -4.210   6.276 129.868  0.00  0.00    +0.000 A 
ATOM     32  N   UNL     1      -4.435   7.368 129.202  0.00  0.00    +0.000 NA
ATOM     33  C   UNL     1      -3.993   8.307 130.055  0.00  0.00    +0.000 A 
ATOM     34  C   UNL     1      -3.479   7.746 131.198  0.00  0.00    +0.000 A 
ATOM     35  O   UNL     1      -3.582   6.399 131.078  0.00  0.00    +0.000 OA
ENDBRANCH  30  31
ENDBRANCH   4  26
BRANCH   1  36
ATOM     36  S   UNL     1      -7.825   1.588 125.765  0.00  0.00    +0.000 S 
ATOM     37  O   UNL     1      -6.991   2.661 125.127  0.00  0.00    +0.000 OA
ATOM     38  O   UNL     1      -9.169   1.391 125.381  0.00  0.00    +0.000 OA
BRANCH  36  42
ATOM     39  C   UNL     1      -5.504  -2.410 123.446  0.00  0.00    +0.000 A 
ATOM     40  C   UNL     1      -5.320  -2.026 124.770  0.00  0.00    +0.000 A 
ATOM     41  C   UNL     1      -6.084  -0.924 125.361  0.00  0.00    +0.000 A 
ATOM     42  C   UNL     1      -7.022  -0.065 124.634  0.00  0.00    +0.000 A 
ATOM     43  C   UNL     1      -7.255  -0.542 123.328  0.00  0.00    +0.000 A 
ATOM     44  C   UNL     1      -6.488  -1.690 122.752  0.00  0.00    +0.000 A 
BRANCH  39  46
ATOM     45  C   UNL     1      -4.421  -4.522 123.945  0.00  0.00    +0.000 C 
ATOM     46  O   UNL     1      -4.812  -3.516 122.999  0.00  0.00    +0.000 OA
ENDBRANCH  39  46
ENDBRANCH  36  42
ENDBRANCH   1  36
TORSDOF 9
ENDMDL
MODEL 9
REMARK VINA RESULT:      -9.3      4.083      7.319
REMARK  Name = CHEMBL1779417
REMARK  11 active torsions:
REMARK  status: ('A' for Active; 'I' for Inactive)
REMARK    1  A    between atoms: C_1  and  O_2
REMARK    2  A    between atoms: O_2  and  C_3
REMARK    3  A    between atoms: C_6  and  S_7
REMARK    4  A    between atoms: S_7  and  N_10
REMARK    5  A    between atoms: C_13  and  C_14
REMARK    6  A    between atoms: C_13  and  N_28
REMARK    7  A    between atoms: C_16  and  C_17
REMARK    8  A    between atoms: C_17  and  N_18
REMARK    9  A    between atoms: C_25  and  O_26
REMARK   10  A    between atoms: O_26  and  C_27
REMARK   11  A    between atoms: C_32  and  C_33
REMARK                            x       y       z     vdW  Elec       q    Type
REMARK                         _______ _______ _______ _____ _____    ______ ____
ROOT
ATOM      1  N   UNL     1      -4.961   0.907 132.628  0.00  0.00    +0.000 N 
ATOM      2  C   UNL     1      -6.410   0.935 132.426  0.00  0.00    +0.000 C 
ATOM      3  O   UNL     1      -7.104   0.205 133.156  0.00  0.00    +0.000 OA
ATOM      4  C   UNL     1      -6.786   2.399 132.021  0.00  0.00    +0.000 C 
ATOM      5  C   UNL     1      -6.635   2.741 133.565  0.00  0.00    +0.000 A 
ATOM      6  C   UNL     1      -7.440   3.768 134.358  0.00  0.00    +0.000 A 
ATOM      7  C   UNL     1      -6.954   4.579 135.331  0.00  0.00    +0.000 A 
ATOM      8 CL   UNL     1      -7.774   6.073 135.696  0.00  0.00    +0.000 Cl
ATOM      9  C   UNL     1      -5.753   4.112 135.766  0.00  0.00    +0.000 A 
ATOM     10  C   UNL     1      -4.996   2.875 135.093  0.00  0.00    +0.000 A 
ATOM     11  C   UNL     1      -5.452   2.061 133.952  0.00  0.00    +0.000 A 
ENDROOT
BRANCH   4  12
ATOM     12  C   UNL     1      -5.611   3.166 131.195  0.00  0.00    +0.000 A 
ATOM     13  C   UNL     1      -5.015   4.439 131.468  0.00  0.00    +0.000 A 
ATOM     14  C   UNL     1      -4.031   4.918 130.621  0.00  0.00    +0.000 A 
ATOM     15  C   UNL     1      -3.355   3.915 130.017  0.00  0.00    +0.000 A 
ATOM     16  C   UNL     1      -4.037   3.013 129.340  0.00  0.00    +0.000 A 
ATOM     17  C   UNL     1      -5.115   2.599 129.992  0.00  0.00    +0.000 A 
BRANCH  17  18
ATOM     18  O   UNL     1      -5.334   1.495 129.257  0.00  0.00    +0.000 OA
ATOM     19  C   UNL     1      -4.930   1.763 128.006  0.00  0.00    +0.000 C 
ENDBRANCH  17  18
BRANCH  14  20
ATOM     20  C   UNL     1      -3.598   6.347 130.423  0.00  0.00    +0.000 C 
BRANCH  20  21
ATOM     21  N   UNL     1      -2.702   6.958 131.466  0.00  0.00    +0.000 NA
ATOM     22  C   UNL     1      -1.298   6.482 131.473  0.00  0.00    +0.000 C 
ATOM     23  C   UNL     1      -1.207   5.374 132.499  0.00  0.00    +0.000 C 
ATOM     24  C   UNL     1      -2.212   5.830 133.572  0.00  0.00    +0.000 C 
ATOM     25  C   UNL     1      -3.195   6.806 132.847  0.00  0.00    +0.000 C 
ENDBRANCH  20  21
ENDBRANCH  14  20
ENDBRANCH   4  12
BRANCH   4  26
ATOM     26  N   UNL     1      -8.167   2.475 131.338  0.00  0.00    +0.000 NA
ATOM     27  C   UNL     1      -8.601   1.357 130.406  0.00  0.00    +0.000 C 
ATOM     28  C   UNL     1      -8.513   1.745 128.854  0.00  0.00    +0.000 C 
ATOM     29  C   UNL     1      -8.555   3.309 128.926  0.00  0.00    +0.000 C 
ATOM     30  C   UNL     1      -8.373   3.687 130.505  0.00  0.00    +0.000 C 
BRANCH  30  31
ATOM     31  C   UNL     1      -9.525   4.484 130.844  0.00  0.00    +0.000 A 
ATOM     32  N   UNL     1     -10.589   4.567 130.102  0.00  0.00    +0.000 NA
ATOM     33  C   UNL     1     -11.277   5.545 130.716  0.00  0.00    +0.000 A 
ATOM     34  C   UNL     1     -10.586   6.046 131.792  0.00  0.00    +0.000 A 
ATOM     35  O   UNL     1      -9.408   5.380 131.872  0.00  0.00    +0.000 OA
ENDBRANCH  30  31
ENDBRANCH   4  26
BRANCH   1  36
ATOM     36  S   UNL     1      -4.972  -1.003 131.678  0.00  0.00    +0.000 S 
ATOM     37  O   UNL     1      -4.968  -2.077 132.728  0.00  0.00    +0.000 OA
ATOM     38  O   UNL     1      -3.911  -0.891 130.754  0.00  0.00    +0.000 OA
BRANCH  36  42
ATOM     39  C   UNL     1      -8.057  -3.001 128.040  0.00  0.00    +0.000 A 
ATOM     40  C   UNL     1      -6.887  -2.286 127.804  0.00  0.00    +0.000 A 
ATOM     41  C   UNL     1      -6.036  -1.826 128.905  0.00  0.00    +0.000 A 
ATOM     42  C   UNL     1      -6.349  -1.970 130.328  0.00  0.00    +0.000 A 
ATOM     43  C   UNL     1      -7.487  -2.779 130.529  0.00  0.00    +0.000 A 
ATOM     44  C   UNL     1      -8.326  -3.267 129.391  0.00  0.00    +0.000 A 
BRANCH  39  46
ATOM     45  C   UNL     1      -8.179  -3.308 125.637  0.00  0.00    +0.000 C 
ATOM     46  O   UNL     1      -8.748  -3.474 126.944  0.00  0.00    +0.000 OA
ENDBRANCH  39  46
ENDBRANCH  36  42
ENDBRANCH   1  36
TORSDOF 9
ENDMDL
