MODEL 1
REMARK VINA RESULT:      -8.4      0.000      0.000
REMARK  Name = CHEMBL609848
REMARK  9 active torsions:
REMARK  status: ('A' for Active; 'I' for Inactive)
REMARK    1  A    between atoms: C_1  and  O_2
REMARK    2  A    between atoms: O_2  and  C_3
REMARK    3  A    between atoms: C_3  and  C_4
REMARK    4  A    between atoms: C_11  and  O_12
REMARK    5  A    between atoms: O_12  and  C_13
REMARK    6  A    between atoms: C_20  and  C_21
REMARK    7  A    between atoms: N_23  and  C_24
REMARK    8  A    between atoms: C_27  and  O_28
REMARK    9  A    between atoms: O_28  and  C_29
REMARK                            x       y       z     vdW  Elec       q    Type
REMARK                         _______ _______ _______ _____ _____    ______ ____
ROOT
ATOM      1  C   UNL     1      -9.459   0.504 123.956  0.00  0.00    +0.000 A 
ATOM      2  N   UNL     1      -9.666   0.025 125.174  0.00  0.00    +0.000 NA
ATOM      3  N   UNL     1      -8.901   0.744 126.072  0.00  0.00    +0.000 NA
ATOM      4  C   UNL     1      -8.234   1.687 125.415  0.00  0.00    +0.000 A 
ATOM      5  N   UNL     1      -7.553   2.733 125.943  0.00  0.00    +0.000 N 
ATOM      6  C   UNL     1      -7.747   4.075 125.475  0.00  0.00    +0.000 C 
ATOM      7  C   UNL     1      -6.327   4.489 125.212  0.00  0.00    +0.000 C 
ATOM      8  C   UNL     1      -5.529   4.045 126.402  0.00  0.00    +0.000 C 
ATOM      9  C   UNL     1      -6.260   2.662 126.675  0.00  0.00    +0.000 C 
ATOM     10  N   UNL     1      -8.552   1.546 124.061  0.00  0.00    +0.000 N 
ENDROOT
BRANCH  10  11
ATOM     11  C   UNL     1      -7.999   2.258 122.975  0.00  0.00    +0.000 A 
ATOM     12  C   UNL     1      -6.637   2.167 122.710  0.00  0.00    +0.000 A 
ATOM     13  C   UNL     1      -6.122   2.863 121.622  0.00  0.00    +0.000 A 
ATOM     14  C   UNL     1      -6.963   3.690 120.890  0.00  0.00    +0.000 A 
ATOM     15  N   UNL     1      -8.297   3.746 121.115  0.00  0.00    +0.000 NA
ATOM     16  C   UNL     1      -8.798   3.008 122.134  0.00  0.00    +0.000 A 
BRANCH  14  17
ATOM     17  O   UNL     1      -6.543   4.535 119.901  0.00  0.00    +0.000 OA
ATOM     18  C   UNL     1      -5.247   5.101 120.063  0.00  0.00    +0.000 C 
ENDBRANCH  14  17
ENDBRANCH  10  11
BRANCH   1  19
ATOM     19  C   UNL     1      -9.882  -0.098 122.645  0.00  0.00    +0.000 C 
BRANCH  19  21
ATOM     20  C   UNL     1      -8.410  -1.935 122.726  0.00  0.00    +0.000 C 
ATOM     21  O   UNL     1      -9.777  -1.523 122.678  0.00  0.00    +0.000 OA
ENDBRANCH  19  21
ENDBRANCH   1  19
BRANCH   8  22
ATOM     22  O   UNL     1      -5.684   5.027 127.477  0.00  0.00    +0.000 OA
BRANCH  22  23
ATOM     23  C   UNL     1      -4.581   5.387 128.254  0.00  0.00    +0.000 A 
ATOM     24  C   UNL     1      -3.727   6.350 127.676  0.00  0.00    +0.000 A 
ATOM     25  C   UNL     1      -2.497   6.672 128.273  0.00  0.00    +0.000 A 
ATOM     26  F   UNL     1      -1.691   7.577 127.701  0.00  0.00    +0.000 F 
ATOM     27  C   UNL     1      -2.075   6.068 129.440  0.00  0.00    +0.000 A 
ATOM     28  C   UNL     1      -2.888   5.112 130.003  0.00  0.00    +0.000 A 
ATOM     29  F   UNL     1      -2.472   4.516 131.132  0.00  0.00    +0.000 F 
ATOM     30  C   UNL     1      -4.108   4.720 129.426  0.00  0.00    +0.000 A 
ATOM     31  C   UNL     1      -4.739   3.592 130.198  0.00  0.00    +0.000 C 
ENDBRANCH  22  23
ENDBRANCH   8  22
TORSDOF 6
ENDMDL
MODEL 2
REMARK VINA RESULT:      -8.2      1.889      4.344
REMARK  Name = CHEMBL609848
REMARK  9 active torsions:
REMARK  status: ('A' for Active; 'I' for Inactive)
REMARK    1  A    between atoms: C_1  and  O_2
REMARK    2  A    between atoms: O_2  and  C_3
REMARK    3  A    between atoms: C_3  and  C_4
REMARK    4  A    between atoms: C_11  and  O_12
REMARK    5  A    between atoms: O_12  and  C_13
REMARK    6  A    between atoms: C_20  and  C_21
REMARK    7  A    between atoms: N_23  and  C_24
REMARK    8  A    between atoms: C_27  and  O_28
REMARK    9  A    between atoms: O_28  and  C_29
REMARK                            x       y       z     vdW  Elec       q    Type
REMARK                         _______ _______ _______ _____ _____    ______ ____
ROOT
ATOM      1  C   UNL     1      -5.998   3.711 121.804  0.00  0.00    +0.000 A 
ATOM      2  N   UNL     1      -5.198   4.752 121.982  0.00  0.00    +0.000 NA
ATOM      3  N   UNL     1      -5.002   4.937 123.337  0.00  0.00    +0.000 NA
ATOM      4  C   UNL     1      -5.662   3.995 124.003  0.00  0.00    +0.000 A 
ATOM      5  N   UNL     1      -5.555   3.689 125.319  0.00  0.00    +0.000 N 
ATOM      6  C   UNL     1      -5.365   2.339 125.767  0.00  0.00    +0.000 C 
ATOM      7  C   UNL     1      -6.460   2.225 126.789  0.00  0.00    +0.000 C 
ATOM      8  C   UNL     1      -6.403   3.477 127.613  0.00  0.00    +0.000 C 
ATOM      9  C   UNL     1      -6.052   4.508 126.456  0.00  0.00    +0.000 C 
ATOM     10  N   UNL     1      -6.325   3.211 123.054  0.00  0.00    +0.000 N 
ENDROOT
BRANCH  10  11
ATOM     11  C   UNL     1      -7.233   2.159 123.299  0.00  0.00    +0.000 A 
ATOM     12  C   UNL     1      -8.540   2.447 123.677  0.00  0.00    +0.000 A 
ATOM     13  C   UNL     1      -9.419   1.393 123.894  0.00  0.00    +0.000 A 
ATOM     14  C   UNL     1      -8.946   0.090 123.809  0.00  0.00    +0.000 A 
ATOM     15  N   UNL     1      -7.688  -0.196 123.397  0.00  0.00    +0.000 NA
ATOM     16  C   UNL     1      -6.862   0.841 123.121  0.00  0.00    +0.000 A 
BRANCH  14  17
ATOM     17  O   UNL     1      -9.673  -1.018 124.147  0.00  0.00    +0.000 OA
ATOM     18  C   UNL     1      -8.997  -2.266 124.058  0.00  0.00    +0.000 C 
ENDBRANCH  14  17
ENDBRANCH  10  11
BRANCH   1  19
ATOM     19  C   UNL     1      -6.675   3.276 120.535  0.00  0.00    +0.000 C 
BRANCH  19  21
ATOM     20  C   UNL     1      -8.940   3.890 120.323  0.00  0.00    +0.000 C 
ATOM     21  O   UNL     1      -7.587   4.275 120.071  0.00  0.00    +0.000 OA
ENDBRANCH  19  21
ENDBRANCH   1  19
BRANCH   8  22
ATOM     22  O   UNL     1      -5.356   3.336 128.627  0.00  0.00    +0.000 OA
BRANCH  22  23
ATOM     23  C   UNL     1      -4.652   4.461 129.062  0.00  0.00    +0.000 A 
ATOM     24  C   UNL     1      -5.373   5.331 129.907  0.00  0.00    +0.000 A 
ATOM     25  C   UNL     1      -4.844   6.579 130.275  0.00  0.00    +0.000 A 
ATOM     26  F   UNL     1      -5.550   7.401 131.064  0.00  0.00    +0.000 F 
ATOM     27  C   UNL     1      -3.608   7.004 129.831  0.00  0.00    +0.000 A 
ATOM     28  C   UNL     1      -2.904   6.175 128.990  0.00  0.00    +0.000 A 
ATOM     29  F   UNL     1      -1.706   6.593 128.550  0.00  0.00    +0.000 F 
ATOM     30  C   UNL     1      -3.403   4.934 128.556  0.00  0.00    +0.000 A 
ATOM     31  C   UNL     1      -2.470   4.287 127.569  0.00  0.00    +0.000 C 
ENDBRANCH  22  23
ENDBRANCH   8  22
TORSDOF 6
ENDMDL
MODEL 3
REMARK VINA RESULT:      -8.1      5.184      9.264
REMARK  Name = CHEMBL609848
REMARK  9 active torsions:
REMARK  status: ('A' for Active; 'I' for Inactive)
REMARK    1  A    between atoms: C_1  and  O_2
REMARK    2  A    between atoms: O_2  and  C_3
REMARK    3  A    between atoms: C_3  and  C_4
REMARK    4  A    between atoms: C_11  and  O_12
REMARK    5  A    between atoms: O_12  and  C_13
REMARK    6  A    between atoms: C_20  and  C_21
REMARK    7  A    between atoms: N_23  and  C_24
REMARK    8  A    between atoms: C_27  and  O_28
REMARK    9  A    between atoms: O_28  and  C_29
REMARK                            x       y       z     vdW  Elec       q    Type
REMARK                         _______ _______ _______ _____ _____    ______ ____
ROOT
ATOM      1  C   UNL     1      -8.864   4.885 130.207  0.00  0.00    +0.000 A 
ATOM      2  N   UNL     1      -8.892   5.669 129.140  0.00  0.00    +0.000 NA
ATOM      3  N   UNL     1      -8.462   4.946 128.044  0.00  0.00    +0.000 NA
ATOM      4  C   UNL     1      -8.189   3.703 128.425  0.00  0.00    +0.000 A 
ATOM      5  N   UNL     1      -7.955   2.630 127.630  0.00  0.00    +0.000 N 
ATOM      6  C   UNL     1      -8.631   1.381 127.829  0.00  0.00    +0.000 C 
ATOM      7  C   UNL     1      -7.466   0.433 127.863  0.00  0.00    +0.000 C 
ATOM      8  C   UNL     1      -6.574   0.816 126.720  0.00  0.00    +0.000 C 
ATOM      9  C   UNL     1      -6.738   2.393 126.808  0.00  0.00    +0.000 C 
ATOM     10  N   UNL     1      -8.414   3.638 129.803  0.00  0.00    +0.000 N 
ENDROOT
BRANCH  10  11
ATOM     11  C   UNL     1      -8.154   2.548 130.662  0.00  0.00    +0.000 A 
ATOM     12  C   UNL     1      -9.202   1.743 131.094  0.00  0.00    +0.000 A 
ATOM     13  C   UNL     1      -8.915   0.665 131.924  0.00  0.00    +0.000 A 
ATOM     14  C   UNL     1      -7.611   0.477 132.361  0.00  0.00    +0.000 A 
ATOM     15  N   UNL     1      -6.581   1.230 131.906  0.00  0.00    +0.000 NA
ATOM     16  C   UNL     1      -6.864   2.234 131.043  0.00  0.00    +0.000 A 
BRANCH  14  17
ATOM     17  O   UNL     1      -7.236  -0.450 133.294  0.00  0.00    +0.000 OA
ATOM     18  C   UNL     1      -7.689  -1.782 133.077  0.00  0.00    +0.000 C 
ENDBRANCH  14  17
ENDBRANCH  10  11
BRANCH   1  19
ATOM     19  C   UNL     1      -9.016   5.284 131.648  0.00  0.00    +0.000 C 
BRANCH  19  21
ATOM     20  C   UNL     1     -11.093   6.365 131.907  0.00  0.00    +0.000 C 
ATOM     21  O   UNL     1      -9.683   6.544 131.763  0.00  0.00    +0.000 OA
ENDBRANCH  19  21
ENDBRANCH   1  19
BRANCH   8  22
ATOM     22  O   UNL     1      -7.098   0.227 125.485  0.00  0.00    +0.000 OA
BRANCH  22  23
ATOM     23  C   UNL     1      -6.865  -1.120 125.204  0.00  0.00    +0.000 A 
ATOM     24  C   UNL     1      -5.634  -1.398 124.574  0.00  0.00    +0.000 A 
ATOM     25  C   UNL     1      -5.349  -2.684 124.085  0.00  0.00    +0.000 A 
ATOM     26  F   UNL     1      -4.181  -2.925 123.474  0.00  0.00    +0.000 F 
ATOM     27  C   UNL     1      -6.253  -3.720 124.197  0.00  0.00    +0.000 A 
ATOM     28  C   UNL     1      -7.466  -3.458 124.790  0.00  0.00    +0.000 A 
ATOM     29  F   UNL     1      -8.349  -4.465 124.891  0.00  0.00    +0.000 F 
ATOM     30  C   UNL     1      -7.819  -2.182 125.260  0.00  0.00    +0.000 A 
ATOM     31  C   UNL     1      -9.235  -2.162 125.769  0.00  0.00    +0.000 C 
ENDBRANCH  22  23
ENDBRANCH   8  22
TORSDOF 6
ENDMDL
MODEL 4
REMARK VINA RESULT:      -8.0      3.592      5.719
REMARK  Name = CHEMBL609848
REMARK  9 active torsions:
REMARK  status: ('A' for Active; 'I' for Inactive)
REMARK    1  A    between atoms: C_1  and  O_2
REMARK    2  A    between atoms: O_2  and  C_3
REMARK    3  A    between atoms: C_3  and  C_4
REMARK    4  A    between atoms: C_11  and  O_12
REMARK    5  A    between atoms: O_12  and  C_13
REMARK    6  A    between atoms: C_20  and  C_21
REMARK    7  A    between atoms: N_23  and  C_24
REMARK    8  A    between atoms: C_27  and  O_28
REMARK    9  A    between atoms: O_28  and  C_29
REMARK                            x       y       z     vdW  Elec       q    Type
REMARK                         _______ _______ _______ _____ _____    ______ ____
ROOT
ATOM      1  C   UNL     1      -5.999   3.632 122.263  0.00  0.00    +0.000 A 
ATOM      2  N   UNL     1      -5.374   4.710 122.713  0.00  0.00    +0.000 NA
ATOM      3  N   UNL     1      -5.636   4.847 124.063  0.00  0.00    +0.000 NA
ATOM      4  C   UNL     1      -6.405   3.838 124.459  0.00  0.00    +0.000 A 
ATOM      5  N   UNL     1      -6.703   3.481 125.732  0.00  0.00    +0.000 N 
ATOM      6  C   UNL     1      -6.572   2.127 126.187  0.00  0.00    +0.000 C 
ATOM      7  C   UNL     1      -7.925   1.903 126.799  0.00  0.00    +0.000 C 
ATOM      8  C   UNL     1      -8.223   3.118 127.625  0.00  0.00    +0.000 C 
ATOM      9  C   UNL     1      -7.595   4.218 126.667  0.00  0.00    +0.000 C 
ATOM     10  N   UNL     1      -6.672   3.058 123.330  0.00  0.00    +0.000 N 
ENDROOT
BRANCH  10  11
ATOM     11  C   UNL     1      -7.534   1.944 123.246  0.00  0.00    +0.000 A 
ATOM     12  C   UNL     1      -8.904   2.138 123.107  0.00  0.00    +0.000 A 
ATOM     13  C   UNL     1      -9.728   1.023 123.008  0.00  0.00    +0.000 A 
ATOM     14  C   UNL     1      -9.171  -0.243 123.133  0.00  0.00    +0.000 A 
ATOM     15  N   UNL     1      -7.834  -0.437 123.221  0.00  0.00    +0.000 NA
ATOM     16  C   UNL     1      -7.035   0.656 123.247  0.00  0.00    +0.000 A 
BRANCH  14  17
ATOM     17  O   UNL     1      -9.895  -1.400 123.204  0.00  0.00    +0.000 OA
ATOM     18  C   UNL     1      -9.147  -2.607 123.300  0.00  0.00    +0.000 C 
ENDBRANCH  14  17
ENDBRANCH  10  11
BRANCH   1  19
ATOM     19  C   UNL     1      -6.201   3.213 120.834  0.00  0.00    +0.000 C 
BRANCH  19  21
ATOM     20  C   UNL     1      -6.947   4.622 119.099  0.00  0.00    +0.000 C 
ATOM     21  O   UNL     1      -7.328   3.879 120.259  0.00  0.00    +0.000 OA
ENDBRANCH  19  21
ENDBRANCH   1  19
BRANCH   8  22
ATOM     22  O   UNL     1      -7.549   2.996 128.919  0.00  0.00    +0.000 OA
BRANCH  22  23
ATOM     23  C   UNL     1      -8.269   2.583 130.042  0.00  0.00    +0.000 A 
ATOM     24  C   UNL     1      -8.710   3.621 130.888  0.00  0.00    +0.000 A 
ATOM     25  C   UNL     1      -9.294   3.337 132.133  0.00  0.00    +0.000 A 
ATOM     26  F   UNL     1      -9.692   4.337 132.932  0.00  0.00    +0.000 F 
ATOM     27  C   UNL     1      -9.460   2.041 132.579  0.00  0.00    +0.000 A 
ATOM     28  C   UNL     1      -9.015   1.019 131.773  0.00  0.00    +0.000 A 
ATOM     29  F   UNL     1      -9.168  -0.241 132.212  0.00  0.00    +0.000 F 
ATOM     30  C   UNL     1      -8.386   1.248 130.538  0.00  0.00    +0.000 A 
ATOM     31  C   UNL     1      -7.916  -0.041 129.919  0.00  0.00    +0.000 C 
ENDBRANCH  22  23
ENDBRANCH   8  22
TORSDOF 6
ENDMDL
MODEL 5
REMARK VINA RESULT:      -7.9      2.582      4.819
REMARK  Name = CHEMBL609848
REMARK  9 active torsions:
REMARK  status: ('A' for Active; 'I' for Inactive)
REMARK    1  A    between atoms: C_1  and  O_2
REMARK    2  A    between atoms: O_2  and  C_3
REMARK    3  A    between atoms: C_3  and  C_4
REMARK    4  A    between atoms: C_11  and  O_12
REMARK    5  A    between atoms: O_12  and  C_13
REMARK    6  A    between atoms: C_20  and  C_21
REMARK    7  A    between atoms: N_23  and  C_24
REMARK    8  A    between atoms: C_27  and  O_28
REMARK    9  A    between atoms: O_28  and  C_29
REMARK                            x       y       z     vdW  Elec       q    Type
REMARK                         _______ _______ _______ _____ _____    ______ ____
ROOT
ATOM      1  C   UNL     1      -5.955   3.696 122.254  0.00  0.00    +0.000 A 
ATOM      2  N   UNL     1      -5.311   4.784 122.651  0.00  0.00    +0.000 NA
ATOM      3  N   UNL     1      -5.519   4.955 124.006  0.00  0.00    +0.000 NA
ATOM      4  C   UNL     1      -6.274   3.959 124.458  0.00  0.00    +0.000 A 
ATOM      5  N   UNL     1      -6.522   3.635 125.750  0.00  0.00    +0.000 N 
ATOM      6  C   UNL     1      -6.375   2.292 126.234  0.00  0.00    +0.000 C 
ATOM      7  C   UNL     1      -7.703   2.087 126.904  0.00  0.00    +0.000 C 
ATOM      8  C   UNL     1      -7.967   3.324 127.710  0.00  0.00    +0.000 C 
ATOM      9  C   UNL     1      -7.375   4.397 126.700  0.00  0.00    +0.000 C 
ATOM     10  N   UNL     1      -6.586   3.152 123.360  0.00  0.00    +0.000 N 
ENDROOT
BRANCH  10  11
ATOM     11  C   UNL     1      -7.453   2.038 123.338  0.00  0.00    +0.000 A 
ATOM     12  C   UNL     1      -8.829   2.233 123.310  0.00  0.00    +0.000 A 
ATOM     13  C   UNL     1      -9.659   1.118 123.270  0.00  0.00    +0.000 A 
ATOM     14  C   UNL     1      -9.095  -0.148 123.343  0.00  0.00    +0.000 A 
ATOM     15  N   UNL     1      -7.755  -0.343 123.323  0.00  0.00    +0.000 NA
ATOM     16  C   UNL     1      -6.956   0.750 123.292  0.00  0.00    +0.000 A 
BRANCH  14  17
ATOM     17  O   UNL     1      -9.812  -1.306 123.464  0.00  0.00    +0.000 OA
ATOM     18  C   UNL     1      -9.070  -2.518 123.382  0.00  0.00    +0.000 C 
ENDBRANCH  14  17
ENDBRANCH  10  11
BRANCH   1  19
ATOM     19  C   UNL     1      -6.214   3.242 120.844  0.00  0.00    +0.000 C 
BRANCH  19  21
ATOM     20  C   UNL     1      -7.063   4.537 119.069  0.00  0.00    +0.000 C 
ATOM     21  O   UNL     1      -7.371   3.886 120.303  0.00  0.00    +0.000 OA
ENDBRANCH  19  21
ENDBRANCH   1  19
BRANCH   8  22
ATOM     22  O   UNL     1      -7.242   3.232 128.979  0.00  0.00    +0.000 OA
BRANCH  22  23
ATOM     23  C   UNL     1      -7.110   4.363 129.788  0.00  0.00    +0.000 A 
ATOM     24  C   UNL     1      -8.322   4.987 130.150  0.00  0.00    +0.000 A 
ATOM     25  C   UNL     1      -8.324   6.224 130.815  0.00  0.00    +0.000 A 
ATOM     26  F   UNL     1      -9.486   6.812 131.135  0.00  0.00    +0.000 F 
ATOM     27  C   UNL     1      -7.153   6.875 131.142  0.00  0.00    +0.000 A 
ATOM     28  C   UNL     1      -5.964   6.288 130.777  0.00  0.00    +0.000 A 
ATOM     29  F   UNL     1      -4.824   6.927 131.086  0.00  0.00    +0.000 F 
ATOM     30  C   UNL     1      -5.904   5.072 130.073  0.00  0.00    +0.000 A 
ATOM     31  C   UNL     1      -4.485   4.716 129.722  0.00  0.00    +0.000 C 
ENDBRANCH  22  23
ENDBRANCH   8  22
TORSDOF 6
ENDMDL
MODEL 6
REMARK VINA RESULT:      -7.7      4.280      6.490
REMARK  Name = CHEMBL609848
REMARK  9 active torsions:
REMARK  status: ('A' for Active; 'I' for Inactive)
REMARK    1  A    between atoms: C_1  and  O_2
REMARK    2  A    between atoms: O_2  and  C_3
REMARK    3  A    between atoms: C_3  and  C_4
REMARK    4  A    between atoms: C_11  and  O_12
REMARK    5  A    between atoms: O_12  and  C_13
REMARK    6  A    between atoms: C_20  and  C_21
REMARK    7  A    between atoms: N_23  and  C_24
REMARK    8  A    between atoms: C_27  and  O_28
REMARK    9  A    between atoms: O_28  and  C_29
REMARK                            x       y       z     vdW  Elec       q    Type
REMARK                         _______ _______ _______ _____ _____    ______ ____
ROOT
ATOM      1  C   UNL     1      -6.608   3.295 123.460  0.00  0.00    +0.000 A 
ATOM      2  N   UNL     1      -5.941   4.256 124.083  0.00  0.00    +0.000 NA
ATOM      3  N   UNL     1      -5.621   3.824 125.355  0.00  0.00    +0.000 NA
ATOM      4  C   UNL     1      -6.068   2.583 125.517  0.00  0.00    +0.000 A 
ATOM      5  N   UNL     1      -5.773   1.727 126.524  0.00  0.00    +0.000 N 
ATOM      6  C   UNL     1      -5.353   0.378 126.272  0.00  0.00    +0.000 C 
ATOM      7  C   UNL     1      -6.301  -0.382 127.155  0.00  0.00    +0.000 C 
ATOM      8  C   UNL     1      -6.321   0.335 128.472  0.00  0.00    +0.000 C 
ATOM      9  C   UNL     1      -6.245   1.827 127.931  0.00  0.00    +0.000 C 
ATOM     10  N   UNL     1      -6.720   2.226 124.334  0.00  0.00    +0.000 N 
ENDROOT
BRANCH  10  11
ATOM     11  C   UNL     1      -7.445   1.041 124.081  0.00  0.00    +0.000 A 
ATOM     12  C   UNL     1      -6.870   0.026 123.325  0.00  0.00    +0.000 A 
ATOM     13  C   UNL     1      -7.599  -1.138 123.108  0.00  0.00    +0.000 A 
ATOM     14  C   UNL     1      -8.903  -1.216 123.579  0.00  0.00    +0.000 A 
ATOM     15  N   UNL     1      -9.450  -0.251 124.355  0.00  0.00    +0.000 NA
ATOM     16  C   UNL     1      -8.703   0.848 124.618  0.00  0.00    +0.000 A 
BRANCH  14  17
ATOM     17  O   UNL     1      -9.764  -2.241 123.298  0.00  0.00    +0.000 OA
ATOM     18  C   UNL     1      -9.452  -3.503 123.876  0.00  0.00    +0.000 C 
ENDBRANCH  14  17
ENDBRANCH  10  11
BRANCH   1  19
ATOM     19  C   UNL     1      -7.357   3.387 122.161  0.00  0.00    +0.000 C 
BRANCH  19  21
ATOM     20  C   UNL     1      -5.451   3.175 120.792  0.00  0.00    +0.000 C 
ATOM     21  O   UNL     1      -6.557   4.007 121.150  0.00  0.00    +0.000 OA
ENDBRANCH  19  21
ENDBRANCH   1  19
BRANCH   8  22
ATOM     22  O   UNL     1      -5.157  -0.076 129.260  0.00  0.00    +0.000 OA
BRANCH  22  23
ATOM     23  C   UNL     1      -5.068  -1.386 129.736  0.00  0.00    +0.000 A 
ATOM     24  C   UNL     1      -4.097  -2.190 129.104  0.00  0.00    +0.000 A 
ATOM     25  C   UNL     1      -4.019  -3.567 129.368  0.00  0.00    +0.000 A 
ATOM     26  F   UNL     1      -3.101  -4.319 128.744  0.00  0.00    +0.000 F 
ATOM     27  C   UNL     1      -4.881  -4.188 130.248  0.00  0.00    +0.000 A 
ATOM     28  C   UNL     1      -5.847  -3.419 130.856  0.00  0.00    +0.000 A 
ATOM     29  F   UNL     1      -6.692  -4.025 131.706  0.00  0.00    +0.000 F 
ATOM     30  C   UNL     1      -5.996  -2.046 130.597  0.00  0.00    +0.000 A 
ATOM     31  C   UNL     1      -7.188  -1.482 131.322  0.00  0.00    +0.000 C 
ENDBRANCH  22  23
ENDBRANCH   8  22
TORSDOF 6
ENDMDL
MODEL 7
REMARK VINA RESULT:      -7.6      5.510      8.437
REMARK  Name = CHEMBL609848
REMARK  9 active torsions:
REMARK  status: ('A' for Active; 'I' for Inactive)
REMARK    1  A    between atoms: C_1  and  O_2
REMARK    2  A    between atoms: O_2  and  C_3
REMARK    3  A    between atoms: C_3  and  C_4
REMARK    4  A    between atoms: C_11  and  O_12
REMARK    5  A    between atoms: O_12  and  C_13
REMARK    6  A    between atoms: C_20  and  C_21
REMARK    7  A    between atoms: N_23  and  C_24
REMARK    8  A    between atoms: C_27  and  O_28
REMARK    9  A    between atoms: O_28  and  C_29
REMARK                            x       y       z     vdW  Elec       q    Type
REMARK                         _______ _______ _______ _____ _____    ______ ____
ROOT
ATOM      1  C   UNL     1      -8.865   4.621 130.117  0.00  0.00    +0.000 A 
ATOM      2  N   UNL     1      -9.951   3.892 129.907  0.00  0.00    +0.000 NA
ATOM      3  N   UNL     1      -9.575   2.675 129.372  0.00  0.00    +0.000 NA
ATOM      4  C   UNL     1      -8.250   2.637 129.270  0.00  0.00    +0.000 A 
ATOM      5  N   UNL     1      -7.475   1.558 129.006  0.00  0.00    +0.000 N 
ATOM      6  C   UNL     1      -6.332   1.233 129.809  0.00  0.00    +0.000 C 
ATOM      7  C   UNL     1      -5.278   1.081 128.750  0.00  0.00    +0.000 C 
ATOM      8  C   UNL     1      -5.890   0.255 127.658  0.00  0.00    +0.000 C 
ATOM      9  C   UNL     1      -7.359   0.858 127.698  0.00  0.00    +0.000 C 
ATOM     10  N   UNL     1      -7.770   3.872 129.717  0.00  0.00    +0.000 N 
ENDROOT
BRANCH  10  11
ATOM     11  C   UNL     1      -6.435   4.330 129.692  0.00  0.00    +0.000 A 
ATOM     12  C   UNL     1      -5.667   4.288 130.850  0.00  0.00    +0.000 A 
ATOM     13  C   UNL     1      -4.349   4.728 130.792  0.00  0.00    +0.000 A 
ATOM     14  C   UNL     1      -3.870   5.270 129.607  0.00  0.00    +0.000 A 
ATOM     15  N   UNL     1      -4.598   5.270 128.466  0.00  0.00    +0.000 NA
ATOM     16  C   UNL     1      -5.857   4.774 128.518  0.00  0.00    +0.000 A 
BRANCH  14  17
ATOM     17  O   UNL     1      -2.649   5.871 129.473  0.00  0.00    +0.000 OA
ATOM     18  C   UNL     1      -2.375   6.468 128.211  0.00  0.00    +0.000 C 
ENDBRANCH  14  17
ENDBRANCH  10  11
BRANCH   1  19
ATOM     19  C   UNL     1      -8.789   6.082 130.462  0.00  0.00    +0.000 C 
BRANCH  19  21
ATOM     20  C   UNL     1     -10.338   7.590 129.525  0.00  0.00    +0.000 C 
ATOM     21  O   UNL     1      -9.106   6.893 129.328  0.00  0.00    +0.000 OA
ENDBRANCH  19  21
ENDBRANCH   1  19
BRANCH   8  22
ATOM     22  O   UNL     1      -5.813  -1.160 128.027  0.00  0.00    +0.000 OA
BRANCH  22  23
ATOM     23  C   UNL     1      -6.687  -2.079 127.443  0.00  0.00    +0.000 A 
ATOM     24  C   UNL     1      -6.626  -2.157 126.036  0.00  0.00    +0.000 A 
ATOM     25  C   UNL     1      -7.565  -2.913 125.315  0.00  0.00    +0.000 A 
ATOM     26  F   UNL     1      -7.502  -2.961 123.977  0.00  0.00    +0.000 F 
ATOM     27  C   UNL     1      -8.578  -3.606 125.946  0.00  0.00    +0.000 A 
ATOM     28  C   UNL     1      -8.662  -3.522 127.316  0.00  0.00    +0.000 A 
ATOM     29  F   UNL     1      -9.654  -4.188 127.929  0.00  0.00    +0.000 F 
ATOM     30  C   UNL     1      -7.775  -2.747 128.084  0.00  0.00    +0.000 A 
ATOM     31  C   UNL     1      -8.160  -2.761 129.538  0.00  0.00    +0.000 C 
ENDBRANCH  22  23
ENDBRANCH   8  22
TORSDOF 6
ENDMDL
MODEL 8
REMARK VINA RESULT:      -7.6      4.784      8.444
REMARK  Name = CHEMBL609848
REMARK  9 active torsions:
REMARK  status: ('A' for Active; 'I' for Inactive)
REMARK    1  A    between atoms: C_1  and  O_2
REMARK    2  A    between atoms: O_2  and  C_3
REMARK    3  A    between atoms: C_3  and  C_4
REMARK    4  A    between atoms: C_11  and  O_12
REMARK    5  A    between atoms: O_12  and  C_13
REMARK    6  A    between atoms: C_20  and  C_21
REMARK    7  A    between atoms: N_23  and  C_24
REMARK    8  A    between atoms: C_27  and  O_28
REMARK    9  A    between atoms: O_28  and  C_29
REMARK                            x       y       z     vdW  Elec       q    Type
REMARK                         _______ _______ _______ _____ _____    ______ ____
ROOT
ATOM      1  C   UNL     1      -8.281   4.026 129.665  0.00  0.00    +0.000 A 
ATOM      2  N   UNL     1      -9.410   3.370 129.439  0.00  0.00    +0.000 NA
ATOM      3  N   UNL     1      -9.161   2.349 128.543  0.00  0.00    +0.000 NA
ATOM      4  C   UNL     1      -7.870   2.353 128.228  0.00  0.00    +0.000 A 
ATOM      5  N   UNL     1      -7.181   1.394 127.564  0.00  0.00    +0.000 N 
ATOM      6  C   UNL     1      -5.939   0.875 128.060  0.00  0.00    +0.000 C 
ATOM      7  C   UNL     1      -5.066   1.027 126.848  0.00  0.00    +0.000 C 
ATOM      8  C   UNL     1      -5.865   0.523 125.683  0.00  0.00    +0.000 C 
ATOM      9  C   UNL     1      -7.290   1.078 126.115  0.00  0.00    +0.000 C 
ATOM     10  N   UNL     1      -7.286   3.424 128.911  0.00  0.00    +0.000 N 
ENDROOT
BRANCH  10  11
ATOM     11  C   UNL     1      -5.956   3.885 128.801  0.00  0.00    +0.000 A 
ATOM     12  C   UNL     1      -5.043   3.611 129.813  0.00  0.00    +0.000 A 
ATOM     13  C   UNL     1      -3.735   4.061 129.670  0.00  0.00    +0.000 A 
ATOM     14  C   UNL     1      -3.404   4.837 128.568  0.00  0.00    +0.000 A 
ATOM     15  N   UNL     1      -4.277   5.068 127.559  0.00  0.00    +0.000 NA
ATOM     16  C   UNL     1      -5.529   4.565 127.677  0.00  0.00    +0.000 A 
BRANCH  14  17
ATOM     17  O   UNL     1      -2.199   5.459 128.397  0.00  0.00    +0.000 OA
ATOM     18  C   UNL     1      -2.241   6.860 128.150  0.00  0.00    +0.000 C 
ENDBRANCH  14  17
ENDBRANCH  10  11
BRANCH   1  19
ATOM     19  C   UNL     1      -8.104   5.339 130.375  0.00  0.00    +0.000 C 
BRANCH  19  21
ATOM     20  C   UNL     1      -7.515   4.519 132.504  0.00  0.00    +0.000 C 
ATOM     21  O   UNL     1      -8.493   5.235 131.747  0.00  0.00    +0.000 OA
ENDBRANCH  19  21
ENDBRANCH   1  19
BRANCH   8  22
ATOM     22  O   UNL     1      -5.780  -0.939 125.639  0.00  0.00    +0.000 OA
BRANCH  22  23
ATOM     23  C   UNL     1      -6.926  -1.695 125.385  0.00  0.00    +0.000 A 
ATOM     24  C   UNL     1      -7.484  -2.336 126.510  0.00  0.00    +0.000 A 
ATOM     25  C   UNL     1      -8.532  -3.260 126.366  0.00  0.00    +0.000 A 
ATOM     26  F   UNL     1      -9.039  -3.874 127.444  0.00  0.00    +0.000 F 
ATOM     27  C   UNL     1      -9.057  -3.577 125.129  0.00  0.00    +0.000 A 
ATOM     28  C   UNL     1      -8.508  -2.974 124.021  0.00  0.00    +0.000 A 
ATOM     29  F   UNL     1      -9.012  -3.290 122.818  0.00  0.00    +0.000 F 
ATOM     30  C   UNL     1      -7.431  -2.074 124.104  0.00  0.00    +0.000 A 
ATOM     31  C   UNL     1      -6.973  -1.647 122.736  0.00  0.00    +0.000 C 
ENDBRANCH  22  23
ENDBRANCH   8  22
TORSDOF 6
ENDMDL
MODEL 9
REMARK VINA RESULT:      -7.5      6.419      8.653
REMARK  Name = CHEMBL609848
REMARK  9 active torsions:
REMARK  status: ('A' for Active; 'I' for Inactive)
REMARK    1  A    between atoms: C_1  and  O_2
REMARK    2  A    between atoms: O_2  and  C_3
REMARK    3  A    between atoms: C_3  and  C_4
REMARK    4  A    between atoms: C_11  and  O_12
REMARK    5  A    between atoms: O_12  and  C_13
REMARK    6  A    between atoms: C_20  and  C_21
REMARK    7  A    between atoms: N_23  and  C_24
REMARK    8  A    between atoms: C_27  and  O_28
REMARK    9  A    between atoms: O_28  and  C_29
REMARK                            x       y       z     vdW  Elec       q    Type
REMARK                         _______ _______ _______ _____ _____    ______ ____
ROOT
ATOM      1  C   UNL     1     -10.230   5.605 130.124  0.00  0.00    +0.000 A 
ATOM      2  N   UNL     1     -11.269   4.799 129.960  0.00  0.00    +0.000 NA
ATOM      3  N   UNL     1     -10.841   3.491 130.078  0.00  0.00    +0.000 NA
ATOM      4  C   UNL     1      -9.538   3.483 130.340  0.00  0.00    +0.000 A 
ATOM      5  N   UNL     1      -8.785   2.430 130.741  0.00  0.00    +0.000 N 
ATOM      6  C   UNL     1      -7.902   2.519 131.868  0.00  0.00    +0.000 C 
ATOM      7  C   UNL     1      -6.626   2.004 131.267  0.00  0.00    +0.000 C 
ATOM      8  C   UNL     1      -6.989   0.775 130.487  0.00  0.00    +0.000 C 
ATOM      9  C   UNL     1      -8.384   1.267 129.906  0.00  0.00    +0.000 C 
ATOM     10  N   UNL     1      -9.115   4.816 130.354  0.00  0.00    +0.000 N 
ENDROOT
BRANCH  10  11
ATOM     11  C   UNL     1      -7.793   5.291 130.484  0.00  0.00    +0.000 A 
ATOM     12  C   UNL     1      -7.410   5.965 131.638  0.00  0.00    +0.000 A 
ATOM     13  C   UNL     1      -6.096   6.406 131.748  0.00  0.00    +0.000 A 
ATOM     14  C   UNL     1      -5.234   6.236 130.673  0.00  0.00    +0.000 A 
ATOM     15  N   UNL     1      -5.589   5.541 129.566  0.00  0.00    +0.000 NA
ATOM     16  C   UNL     1      -6.851   5.055 129.501  0.00  0.00    +0.000 A 
BRANCH  14  17
ATOM     17  O   UNL     1      -3.973   6.760 130.605  0.00  0.00    +0.000 OA
ATOM     18  C   UNL     1      -3.880   8.136 130.256  0.00  0.00    +0.000 C 
ENDBRANCH  14  17
ENDBRANCH  10  11
BRANCH   1  19
ATOM     19  C   UNL     1     -10.158   7.082 129.854  0.00  0.00    +0.000 C 
BRANCH  19  21
ATOM     20  C   UNL     1     -10.844   8.133 127.860  0.00  0.00    +0.000 C 
ATOM     21  O   UNL     1      -9.835   7.338 128.484  0.00  0.00    +0.000 OA
ENDBRANCH  19  21
ENDBRANCH   1  19
BRANCH   8  22
ATOM     22  O   UNL     1      -7.090  -0.362 131.404  0.00  0.00    +0.000 OA
BRANCH  22  23
ATOM     23  C   UNL     1      -6.416  -1.550 131.115  0.00  0.00    +0.000 A 
ATOM     24  C   UNL     1      -5.795  -1.596 129.849  0.00  0.00    +0.000 A 
ATOM     25  C   UNL     1      -5.232  -2.788 129.366  0.00  0.00    +0.000 A 
ATOM     26  F   UNL     1      -4.661  -2.818 128.153  0.00  0.00    +0.000 F 
ATOM     27  C   UNL     1      -5.261  -3.956 130.102  0.00  0.00    +0.000 A 
ATOM     28  C   UNL     1      -5.882  -3.931 131.329  0.00  0.00    +0.000 A 
ATOM     29  F   UNL     1      -5.919  -5.069 132.040  0.00  0.00    +0.000 F 
ATOM     30  C   UNL     1      -6.498  -2.777 131.843  0.00  0.00    +0.000 A 
ATOM     31  C   UNL     1      -7.180  -3.061 133.153  0.00  0.00    +0.000 C 
ENDBRANCH  22  23
ENDBRANCH   8  22
TORSDOF 6
ENDMDL
