MODEL 1
REMARK VINA RESULT:     -10.9      0.000      0.000
REMARK  Name = CHEMBL66567
REMARK  8 active torsions:
REMARK  status: ('A' for Active; 'I' for Inactive)
REMARK    1  A    between atoms: C_1  and  O_2
REMARK    2  A    between atoms: O_2  and  C_3
REMARK    3  A    between atoms: C_5  and  O_6
REMARK    4  A    between atoms: O_6  and  C_7
REMARK    5  A    between atoms: N_10  and  C_11
REMARK    6  A    between atoms: C_11  and  C_12
REMARK    7  A    between atoms: C_22  and  C_23
REMARK    8  A    between atoms: C_28  and  N_29
REMARK                            x       y       z     vdW  Elec       q    Type
REMARK                         _______ _______ _______ _____ _____    ______ ____
ROOT
ATOM      1  C   UNL     1      -7.442  -0.850 128.137  0.00  0.00    +0.000 A 
ATOM      2  C   UNL     1      -8.247  -1.387 127.090  0.00  0.00    +0.000 A 
ATOM      3  C   UNL     1      -8.899  -0.558 126.236  0.00  0.00    +0.000 A 
ATOM      4  C   UNL     1      -8.808   0.737 126.635  0.00  0.00    +0.000 A 
ATOM      5  C   UNL     1      -8.050   1.345 127.608  0.00  0.00    +0.000 A 
ATOM      6  C   UNL     1      -7.285   0.546 128.389  0.00  0.00    +0.000 A 
ENDROOT
BRANCH   6   7
ATOM      7  C   UNL     1      -6.532   1.351 129.421  0.00  0.00    +0.000 C 
ATOM      8  O   UNL     1      -5.313   1.193 129.547  0.00  0.00    +0.000 OA
ATOM      9  N   UNL     1      -7.194   2.344 130.132  0.00  0.00    +0.000 N 
ATOM     10  C   UNL     1      -6.791   3.738 129.840  0.00  0.00    +0.000 C 
ATOM     11  C   UNL     1      -6.976   4.613 131.031  0.00  0.00    +0.000 C 
ATOM     12  C   UNL     1      -8.698   4.775 131.334  0.00  0.00    +0.000 C 
ATOM     13  C   UNL     1      -8.806   3.103 131.813  0.00  0.00    +0.000 C 
ATOM     14  C   UNL     1      -8.523   2.116 130.712  0.00  0.00    +0.000 C 
BRANCH  12  15
ATOM     15  N   UNL     1      -9.475   6.151 130.384  0.00  0.00    +0.000 N 
ATOM     16  C   UNL     1     -10.359   6.232 131.510  0.00  0.00    +0.000 C 
ATOM     17  O   UNL     1     -10.074   6.384 132.748  0.00  0.00    +0.000 OA
ATOM     18  O   UNL     1     -11.587   5.825 131.302  0.00  0.00    +0.000 OA
ATOM     19  C   UNL     1     -12.095   7.057 130.983  0.00  0.00    +0.000 C 
ATOM     20  C   UNL     1     -12.007   6.749 129.553  0.00  0.00    +0.000 A 
ATOM     21  C   UNL     1     -13.293   6.783 128.864  0.00  0.00    +0.000 A 
ATOM     22  C   UNL     1     -13.461   7.182 127.571  0.00  0.00    +0.000 A 
ATOM     23  C   UNL     1     -12.367   7.902 127.170  0.00  0.00    +0.000 A 
ATOM     24  C   UNL     1     -10.975   7.719 127.940  0.00  0.00    +0.000 A 
ATOM     25  C   UNL     1     -10.679   6.696 129.091  0.00  0.00    +0.000 A 
ENDBRANCH  12  15
ENDBRANCH   6   7
BRANCH   1  27
ATOM     26  C   UNL     1      -5.894  -2.521 127.988  0.00  0.00    +0.000 C 
ATOM     27  O   UNL     1      -6.855  -1.894 128.796  0.00  0.00    +0.000 OA
ENDBRANCH   1  27
BRANCH   3  28
ATOM     28  O   UNL     1      -9.541  -0.999 125.127  0.00  0.00    +0.000 OA
BRANCH  28  29
ATOM     29  C   UNL     1      -8.987  -0.967 123.774  0.00  0.00    +0.000 C 
ATOM     30  C   UNL     1      -7.468  -0.751 123.574  0.00  0.00    +0.000 C 
ATOM     31  C   UNL     1      -7.003   0.699 123.653  0.00  0.00    +0.000 C 
ATOM     32  N   UNL     1      -7.894   1.620 122.870  0.00  0.00    +0.000 NA
ATOM     33  C   UNL     1      -9.372   1.347 122.900  0.00  0.00    +0.000 C 
ATOM     34  C   UNL     1      -9.788  -0.095 122.825  0.00  0.00    +0.000 C 
BRANCH  32  35
ATOM     35  C   UNL     1      -7.581   3.048 123.211  0.00  0.00    +0.000 C 
BRANCH  35  36
ATOM     36  C   UNL     1      -6.782   3.793 122.159  0.00  0.00    +0.000 A 
ATOM     37  C   UNL     1      -7.273   3.891 120.851  0.00  0.00    +0.000 A 
ATOM     38  C   UNL     1      -6.423   4.254 119.827  0.00  0.00    +0.000 A 
ATOM     39  C   UNL     1      -5.173   4.733 120.163  0.00  0.00    +0.000 A 
ATOM     40  C   UNL     1      -4.819   4.772 121.505  0.00  0.00    +0.000 A 
ATOM     41  N   UNL     1      -5.573   4.275 122.506  0.00  0.00    +0.000 NA
ENDBRANCH  35  36
ENDBRANCH  32  35
ENDBRANCH  28  29
ENDBRANCH   3  28
TORSDOF 7
ENDMDL
MODEL 2
REMARK VINA RESULT:     -10.7      2.646      4.953
REMARK  Name = CHEMBL66567
REMARK  8 active torsions:
REMARK  status: ('A' for Active; 'I' for Inactive)
REMARK    1  A    between atoms: C_1  and  O_2
REMARK    2  A    between atoms: O_2  and  C_3
REMARK    3  A    between atoms: C_5  and  O_6
REMARK    4  A    between atoms: O_6  and  C_7
REMARK    5  A    between atoms: N_10  and  C_11
REMARK    6  A    between atoms: C_11  and  C_12
REMARK    7  A    between atoms: C_22  and  C_23
REMARK    8  A    between atoms: C_28  and  N_29
REMARK                            x       y       z     vdW  Elec       q    Type
REMARK                         _______ _______ _______ _____ _____    ______ ____
ROOT
ATOM      1  C   UNL     1      -6.147   3.385 126.044  0.00  0.00    +0.000 A 
ATOM      2  C   UNL     1      -6.541   2.601 124.920  0.00  0.00    +0.000 A 
ATOM      3  C   UNL     1      -6.351   1.258 124.923  0.00  0.00    +0.000 A 
ATOM      4  C   UNL     1      -5.621   0.863 125.998  0.00  0.00    +0.000 A 
ATOM      5  C   UNL     1      -5.216   1.535 127.128  0.00  0.00    +0.000 A 
ATOM      6  C   UNL     1      -5.514   2.853 127.207  0.00  0.00    +0.000 A 
ENDROOT
BRANCH   6   7
ATOM      7  C   UNL     1      -4.988   3.455 128.487  0.00  0.00    +0.000 C 
ATOM      8  O   UNL     1      -3.769   3.588 128.642  0.00  0.00    +0.000 OA
ATOM      9  N   UNL     1      -5.880   3.964 129.423  0.00  0.00    +0.000 N 
ATOM     10  C   UNL     1      -5.870   5.433 129.605  0.00  0.00    +0.000 C 
ATOM     11  C   UNL     1      -6.263   5.805 130.994  0.00  0.00    +0.000 C 
ATOM     12  C   UNL     1      -7.961   5.410 131.211  0.00  0.00    +0.000 C 
ATOM     13  C   UNL     1      -7.608   3.705 131.139  0.00  0.00    +0.000 C 
ATOM     14  C   UNL     1      -7.089   3.227 129.810  0.00  0.00    +0.000 C 
BRANCH  12  15
ATOM     15  N   UNL     1      -9.094   6.764 130.682  0.00  0.00    +0.000 N 
ATOM     16  C   UNL     1      -9.899   6.320 131.783  0.00  0.00    +0.000 C 
ATOM     17  O   UNL     1      -9.577   6.192 133.015  0.00  0.00    +0.000 OA
ATOM     18  O   UNL     1     -11.010   5.703 131.465  0.00  0.00    +0.000 OA
ATOM     19  C   UNL     1     -11.809   6.816 131.502  0.00  0.00    +0.000 C 
ATOM     20  C   UNL     1     -11.744   6.940 130.043  0.00  0.00    +0.000 A 
ATOM     21  C   UNL     1     -13.044   6.850 129.387  0.00  0.00    +0.000 A 
ATOM     22  C   UNL     1     -13.383   7.535 128.257  0.00  0.00    +0.000 A 
ATOM     23  C   UNL     1     -12.514   8.578 128.078  0.00  0.00    +0.000 A 
ATOM     24  C   UNL     1     -11.070   8.532 128.770  0.00  0.00    +0.000 A 
ATOM     25  C   UNL     1     -10.473   7.335 129.590  0.00  0.00    +0.000 A 
ENDBRANCH  12  15
ENDBRANCH   6   7
BRANCH   1  27
ATOM     26  C   UNL     1      -7.905   4.833 125.885  0.00  0.00    +0.000 C 
ATOM     27  O   UNL     1      -6.512   4.680 125.804  0.00  0.00    +0.000 OA
ENDBRANCH   1  27
BRANCH   3  28
ATOM     28  O   UNL     1      -6.851   0.440 123.965  0.00  0.00    +0.000 OA
BRANCH  28  29
ATOM     29  C   UNL     1      -8.270   0.143 123.778  0.00  0.00    +0.000 C 
ATOM     30  C   UNL     1      -9.249   0.309 124.964  0.00  0.00    +0.000 C 
ATOM     31  C   UNL     1      -9.275  -0.853 125.952  0.00  0.00    +0.000 C 
ATOM     32  N   UNL     1      -9.324  -2.183 125.255  0.00  0.00    +0.000 NA
ATOM     33  C   UNL     1      -8.515  -2.339 123.999  0.00  0.00    +0.000 C 
ATOM     34  C   UNL     1      -8.512  -1.169 123.054  0.00  0.00    +0.000 C 
BRANCH  32  35
ATOM     35  C   UNL     1      -9.053  -3.285 126.238  0.00  0.00    +0.000 C 
BRANCH  35  36
ATOM     36  C   UNL     1      -8.107  -2.915 127.365  0.00  0.00    +0.000 A 
ATOM     37  C   UNL     1      -6.848  -2.377 127.070  0.00  0.00    +0.000 A 
ATOM     38  C   UNL     1      -5.868  -2.359 128.041  0.00  0.00    +0.000 A 
ATOM     39  C   UNL     1      -6.236  -2.659 129.336  0.00  0.00    +0.000 A 
ATOM     40  C   UNL     1      -7.555  -3.016 129.583  0.00  0.00    +0.000 A 
ATOM     41  N   UNL     1      -8.487  -3.194 128.627  0.00  0.00    +0.000 NA
ENDBRANCH  35  36
ENDBRANCH  32  35
ENDBRANCH  28  29
ENDBRANCH   3  28
TORSDOF 7
ENDMDL
MODEL 3
REMARK VINA RESULT:     -10.5      4.030      9.268
REMARK  Name = CHEMBL66567
REMARK  8 active torsions:
REMARK  status: ('A' for Active; 'I' for Inactive)
REMARK    1  A    between atoms: C_1  and  O_2
REMARK    2  A    between atoms: O_2  and  C_3
REMARK    3  A    between atoms: C_5  and  O_6
REMARK    4  A    between atoms: O_6  and  C_7
REMARK    5  A    between atoms: N_10  and  C_11
REMARK    6  A    between atoms: C_11  and  C_12
REMARK    7  A    between atoms: C_22  and  C_23
REMARK    8  A    between atoms: C_28  and  N_29
REMARK                            x       y       z     vdW  Elec       q    Type
REMARK                         _______ _______ _______ _____ _____    ______ ____
ROOT
ATOM      1  C   UNL     1      -4.175   3.437 127.350  0.00  0.00    +0.000 A 
ATOM      2  C   UNL     1      -3.595   3.168 128.624  0.00  0.00    +0.000 A 
ATOM      3  C   UNL     1      -4.218   3.576 129.758  0.00  0.00    +0.000 A 
ATOM      4  C   UNL     1      -5.284   4.370 129.481  0.00  0.00    +0.000 A 
ATOM      5  C   UNL     1      -5.921   4.668 128.299  0.00  0.00    +0.000 A 
ATOM      6  C   UNL     1      -5.392   4.159 127.162  0.00  0.00    +0.000 A 
ENDROOT
BRANCH   6   7
ATOM      7  C   UNL     1      -6.183   4.589 125.951  0.00  0.00    +0.000 C 
ATOM      8  O   UNL     1      -6.052   5.738 125.513  0.00  0.00    +0.000 OA
ATOM      9  N   UNL     1      -6.957   3.657 125.269  0.00  0.00    +0.000 N 
ATOM     10  C   UNL     1      -6.497   3.291 123.911  0.00  0.00    +0.000 C 
ATOM     11  C   UNL     1      -7.643   2.905 123.041  0.00  0.00    +0.000 C 
ATOM     12  C   UNL     1      -8.300   1.389 123.637  0.00  0.00    +0.000 C 
ATOM     13  C   UNL     1      -8.896   2.173 125.074  0.00  0.00    +0.000 C 
ATOM     14  C   UNL     1      -7.825   2.713 125.984  0.00  0.00    +0.000 C 
BRANCH  12  15
ATOM     15  N   UNL     1      -7.457  -0.093 122.937  0.00  0.00    +0.000 N 
ATOM     16  C   UNL     1      -8.727  -0.728 123.137  0.00  0.00    +0.000 C 
ATOM     17  O   UNL     1      -9.879  -0.377 122.705  0.00  0.00    +0.000 OA
ATOM     18  O   UNL     1      -8.777  -1.612 124.103  0.00  0.00    +0.000 OA
ATOM     19  C   UNL     1      -8.507  -2.701 123.315  0.00  0.00    +0.000 C 
ATOM     20  C   UNL     1      -7.101  -2.682 123.732  0.00  0.00    +0.000 A 
ATOM     21  C   UNL     1      -6.671  -3.902 124.406  0.00  0.00    +0.000 A 
ATOM     22  C   UNL     1      -5.418  -4.432 124.310  0.00  0.00    +0.000 A 
ATOM     23  C   UNL     1      -4.783  -3.905 123.217  0.00  0.00    +0.000 A 
ATOM     24  C   UNL     1      -5.278  -2.508 122.612  0.00  0.00    +0.000 A 
ATOM     25  C   UNL     1      -6.396  -1.583 123.207  0.00  0.00    +0.000 A 
ENDBRANCH  12  15
ENDBRANCH   6   7
BRANCH   1  27
ATOM     26  C   UNL     1      -2.026   3.125 126.645  0.00  0.00    +0.000 C 
ATOM     27  O   UNL     1      -3.383   2.863 126.395  0.00  0.00    +0.000 OA
ENDBRANCH   1  27
BRANCH   3  28
ATOM     28  O   UNL     1      -3.809   3.210 130.997  0.00  0.00    +0.000 OA
BRANCH  28  29
ATOM     29  C   UNL     1      -4.268   2.018 131.710  0.00  0.00    +0.000 C 
ATOM     30  C   UNL     1      -3.959   0.617 131.134  0.00  0.00    +0.000 C 
ATOM     31  C   UNL     1      -4.897   0.150 130.025  0.00  0.00    +0.000 C 
ATOM     32  N   UNL     1      -6.338   0.407 130.361  0.00  0.00    +0.000 NA
ATOM     33  C   UNL     1      -6.667   1.688 131.073  0.00  0.00    +0.000 C 
ATOM     34  C   UNL     1      -5.715   2.115 132.156  0.00  0.00    +0.000 C 
BRANCH  32  35
ATOM     35  C   UNL     1      -7.191   0.209 129.140  0.00  0.00    +0.000 C 
BRANCH  35  36
ATOM     36  C   UNL     1      -7.544  -1.234 128.838  0.00  0.00    +0.000 A 
ATOM     37  C   UNL     1      -7.807  -1.626 127.519  0.00  0.00    +0.000 A 
ATOM     38  C   UNL     1      -8.451  -2.822 127.276  0.00  0.00    +0.000 A 
ATOM     39  C   UNL     1      -8.606  -3.698 128.331  0.00  0.00    +0.000 A 
ATOM     40  C   UNL     1      -8.157  -3.308 129.586  0.00  0.00    +0.000 A 
ATOM     41  N   UNL     1      -7.672  -2.085 129.875  0.00  0.00    +0.000 NA
ENDBRANCH  35  36
ENDBRANCH  32  35
ENDBRANCH  28  29
ENDBRANCH   3  28
TORSDOF 7
ENDMDL
MODEL 4
REMARK VINA RESULT:     -10.5      1.837      2.797
REMARK  Name = CHEMBL66567
REMARK  8 active torsions:
REMARK  status: ('A' for Active; 'I' for Inactive)
REMARK    1  A    between atoms: C_1  and  O_2
REMARK    2  A    between atoms: O_2  and  C_3
REMARK    3  A    between atoms: C_5  and  O_6
REMARK    4  A    between atoms: O_6  and  C_7
REMARK    5  A    between atoms: N_10  and  C_11
REMARK    6  A    between atoms: C_11  and  C_12
REMARK    7  A    between atoms: C_22  and  C_23
REMARK    8  A    between atoms: C_28  and  N_29
REMARK                            x       y       z     vdW  Elec       q    Type
REMARK                         _______ _______ _______ _____ _____    ______ ____
ROOT
ATOM      1  C   UNL     1      -5.256   1.908 127.493  0.00  0.00    +0.000 A 
ATOM      2  C   UNL     1      -5.408   1.020 126.388  0.00  0.00    +0.000 A 
ATOM      3  C   UNL     1      -5.635  -0.301 126.600  0.00  0.00    +0.000 A 
ATOM      4  C   UNL     1      -5.514  -0.621 127.914  0.00  0.00    +0.000 A 
ATOM      5  C   UNL     1      -5.388   0.160 129.039  0.00  0.00    +0.000 A 
ATOM      6  C   UNL     1      -5.294   1.498 128.859  0.00  0.00    +0.000 A 
ENDROOT
BRANCH   6   7
ATOM      7  C   UNL     1      -5.137   2.216 130.178  0.00  0.00    +0.000 C 
ATOM      8  O   UNL     1      -4.029   2.258 130.722  0.00  0.00    +0.000 OA
ATOM      9  N   UNL     1      -6.211   2.925 130.705  0.00  0.00    +0.000 N 
ATOM     10  C   UNL     1      -6.070   4.398 130.737  0.00  0.00    +0.000 C 
ATOM     11  C   UNL     1      -6.841   4.986 131.869  0.00  0.00    +0.000 C 
ATOM     12  C   UNL     1      -8.553   4.778 131.537  0.00  0.00    +0.000 C 
ATOM     13  C   UNL     1      -8.420   3.055 131.754  0.00  0.00    +0.000 C 
ATOM     14  C   UNL     1      -7.565   2.358 130.730  0.00  0.00    +0.000 C 
BRANCH  12  15
ATOM     15  N   UNL     1      -9.268   6.147 130.530  0.00  0.00    +0.000 N 
ATOM     16  C   UNL     1     -10.222   6.235 131.597  0.00  0.00    +0.000 C 
ATOM     17  O   UNL     1     -10.016   6.396 132.849  0.00  0.00    +0.000 OA
ATOM     18  O   UNL     1     -11.434   5.826 131.313  0.00  0.00    +0.000 OA
ATOM     19  C   UNL     1     -11.921   7.056 130.954  0.00  0.00    +0.000 C 
ATOM     20  C   UNL     1     -11.742   6.737 129.534  0.00  0.00    +0.000 A 
ATOM     21  C   UNL     1     -12.981   6.764 128.764  0.00  0.00    +0.000 A 
ATOM     22  C   UNL     1     -13.066   7.155 127.460  0.00  0.00    +0.000 A 
ATOM     23  C   UNL     1     -11.949   7.872 127.125  0.00  0.00    +0.000 A 
ATOM     24  C   UNL     1     -10.609   7.696 127.984  0.00  0.00    +0.000 A 
ATOM     25  C   UNL     1     -10.387   6.682 129.159  0.00  0.00    +0.000 A 
ENDBRANCH  12  15
ENDBRANCH   6   7
BRANCH   1  27
ATOM     26  C   UNL     1      -3.851   3.332 126.393  0.00  0.00    +0.000 C 
ATOM     27  O   UNL     1      -5.107   3.174 126.999  0.00  0.00    +0.000 OA
ENDBRANCH   1  27
BRANCH   3  28
ATOM     28  O   UNL     1      -5.952  -1.164 125.604  0.00  0.00    +0.000 OA
BRANCH  28  29
ATOM     29  C   UNL     1      -7.235  -1.854 125.475  0.00  0.00    +0.000 C 
ATOM     30  C   UNL     1      -7.791  -2.178 124.068  0.00  0.00    +0.000 C 
ATOM     31  C   UNL     1      -8.496  -1.021 123.367  0.00  0.00    +0.000 C 
ATOM     32  N   UNL     1      -9.441  -0.299 124.284  0.00  0.00    +0.000 NA
ATOM     33  C   UNL     1      -9.012  -0.106 125.711  0.00  0.00    +0.000 C 
ATOM     34  C   UNL     1      -8.317  -1.268 126.364  0.00  0.00    +0.000 C 
BRANCH  32  35
ATOM     35  C   UNL     1      -9.882   0.990 123.651  0.00  0.00    +0.000 C 
BRANCH  35  36
ATOM     36  C   UNL     1      -8.908   2.142 123.810  0.00  0.00    +0.000 A 
ATOM     37  C   UNL     1      -7.867   2.306 122.888  0.00  0.00    +0.000 A 
ATOM     38  C   UNL     1      -6.797   3.118 123.203  0.00  0.00    +0.000 A 
ATOM     39  C   UNL     1      -6.903   3.923 124.319  0.00  0.00    +0.000 A 
ATOM     40  C   UNL     1      -8.052   3.833 125.092  0.00  0.00    +0.000 A 
ATOM     41  N   UNL     1      -9.036   2.934 124.892  0.00  0.00    +0.000 NA
ENDBRANCH  35  36
ENDBRANCH  32  35
ENDBRANCH  28  29
ENDBRANCH   3  28
TORSDOF 7
ENDMDL
MODEL 5
REMARK VINA RESULT:     -10.4      2.575      8.998
REMARK  Name = CHEMBL66567
REMARK  8 active torsions:
REMARK  status: ('A' for Active; 'I' for Inactive)
REMARK    1  A    between atoms: C_1  and  O_2
REMARK    2  A    between atoms: O_2  and  C_3
REMARK    3  A    between atoms: C_5  and  O_6
REMARK    4  A    between atoms: O_6  and  C_7
REMARK    5  A    between atoms: N_10  and  C_11
REMARK    6  A    between atoms: C_11  and  C_12
REMARK    7  A    between atoms: C_22  and  C_23
REMARK    8  A    between atoms: C_28  and  N_29
REMARK                            x       y       z     vdW  Elec       q    Type
REMARK                         _______ _______ _______ _____ _____    ______ ____
ROOT
ATOM      1  C   UNL     1      -5.776   2.431 129.489  0.00  0.00    +0.000 A 
ATOM      2  C   UNL     1      -6.118   1.969 130.794  0.00  0.00    +0.000 A 
ATOM      3  C   UNL     1      -6.270   2.851 131.813  0.00  0.00    +0.000 A 
ATOM      4  C   UNL     1      -5.891   4.103 131.447  0.00  0.00    +0.000 A 
ATOM      5  C   UNL     1      -5.568   4.641 130.223  0.00  0.00    +0.000 A 
ATOM      6  C   UNL     1      -5.541   3.800 129.162  0.00  0.00    +0.000 A 
ENDROOT
BRANCH   6   7
ATOM      7  C   UNL     1      -5.150   4.528 127.899  0.00  0.00    +0.000 C 
ATOM      8  O   UNL     1      -4.185   5.300 127.914  0.00  0.00    +0.000 OA
ATOM      9  N   UNL     1      -5.800   4.231 126.707  0.00  0.00    +0.000 N 
ATOM     10  C   UNL     1      -4.992   3.546 125.673  0.00  0.00    +0.000 C 
ATOM     11  C   UNL     1      -5.467   3.889 124.304  0.00  0.00    +0.000 C 
ATOM     12  C   UNL     1      -7.056   3.174 124.076  0.00  0.00    +0.000 C 
ATOM     13  C   UNL     1      -7.754   4.275 125.231  0.00  0.00    +0.000 C 
ATOM     14  C   UNL     1      -7.261   4.100 126.643  0.00  0.00    +0.000 C 
BRANCH  12  15
ATOM     15  N   UNL     1      -6.987   1.438 123.459  0.00  0.00    +0.000 N 
ATOM     16  C   UNL     1      -8.374   1.646 123.160  0.00  0.00    +0.000 C 
ATOM     17  O   UNL     1      -8.915   2.562 122.448  0.00  0.00    +0.000 OA
ATOM     18  O   UNL     1      -9.225   1.002 123.919  0.00  0.00    +0.000 OA
ATOM     19  C   UNL     1      -9.350  -0.091 123.102  0.00  0.00    +0.000 C 
ATOM     20  C   UNL     1      -8.407  -0.847 123.931  0.00  0.00    +0.000 A 
ATOM     21  C   UNL     1      -8.977  -2.056 124.516  0.00  0.00    +0.000 A 
ATOM     22  C   UNL     1      -8.278  -3.206 124.736  0.00  0.00    +0.000 A 
ATOM     23  C   UNL     1      -7.133  -3.195 123.985  0.00  0.00    +0.000 A 
ATOM     24  C   UNL     1      -6.539  -1.800 123.470  0.00  0.00    +0.000 A 
ATOM     25  C   UNL     1      -7.087  -0.373 123.821  0.00  0.00    +0.000 A 
ENDBRANCH  12  15
ENDBRANCH   6   7
BRANCH   1  27
ATOM     26  C   UNL     1      -5.094   0.265 129.249  0.00  0.00    +0.000 C 
ATOM     27  O   UNL     1      -5.754   1.351 128.651  0.00  0.00    +0.000 OA
ENDBRANCH   1  27
BRANCH   3  28
ATOM     28  O   UNL     1      -6.754   2.498 133.028  0.00  0.00    +0.000 OA
BRANCH  28  29
ATOM     29  C   UNL     1      -8.114   2.763 133.495  0.00  0.00    +0.000 C 
ATOM     30  C   UNL     1      -9.290   2.712 132.492  0.00  0.00    +0.000 C 
ATOM     31  C   UNL     1      -9.480   3.968 131.648  0.00  0.00    +0.000 C 
ATOM     32  N   UNL     1      -9.389   5.220 132.473  0.00  0.00    +0.000 NA
ATOM     33  C   UNL     1      -8.367   5.253 133.574  0.00  0.00    +0.000 C 
ATOM     34  C   UNL     1      -8.209   3.994 134.380  0.00  0.00    +0.000 C 
BRANCH  32  35
ATOM     35  C   UNL     1      -9.285   6.418 131.575  0.00  0.00    +0.000 C 
BRANCH  35  36
ATOM     36  C   UNL     1     -10.594   6.859 130.948  0.00  0.00    +0.000 A 
ATOM     37  C   UNL     1     -10.593   7.464 129.685  0.00  0.00    +0.000 A 
ATOM     38  C   UNL     1     -11.703   8.166 129.261  0.00  0.00    +0.000 A 
ATOM     39  C   UNL     1     -12.861   8.051 130.003  0.00  0.00    +0.000 A 
ATOM     40  C   UNL     1     -12.833   7.284 131.159  0.00  0.00    +0.000 A 
ATOM     41  N   UNL     1     -11.721   6.722 131.673  0.00  0.00    +0.000 NA
ENDBRANCH  35  36
ENDBRANCH  32  35
ENDBRANCH  28  29
ENDBRANCH   3  28
TORSDOF 7
ENDMDL
MODEL 6
REMARK VINA RESULT:     -10.3      1.861      2.864
REMARK  Name = CHEMBL66567
REMARK  8 active torsions:
REMARK  status: ('A' for Active; 'I' for Inactive)
REMARK    1  A    between atoms: C_1  and  O_2
REMARK    2  A    between atoms: O_2  and  C_3
REMARK    3  A    between atoms: C_5  and  O_6
REMARK    4  A    between atoms: O_6  and  C_7
REMARK    5  A    between atoms: N_10  and  C_11
REMARK    6  A    between atoms: C_11  and  C_12
REMARK    7  A    between atoms: C_22  and  C_23
REMARK    8  A    between atoms: C_28  and  N_29
REMARK                            x       y       z     vdW  Elec       q    Type
REMARK                         _______ _______ _______ _____ _____    ______ ____
ROOT
ATOM      1  C   UNL     1      -7.569   0.480 128.362  0.00  0.00    +0.000 A 
ATOM      2  C   UNL     1      -7.912  -0.507 127.393  0.00  0.00    +0.000 A 
ATOM      3  C   UNL     1      -7.881  -1.824 127.719  0.00  0.00    +0.000 A 
ATOM      4  C   UNL     1      -7.338  -2.018 128.948  0.00  0.00    +0.000 A 
ATOM      5  C   UNL     1      -6.998  -1.138 129.949  0.00  0.00    +0.000 A 
ATOM      6  C   UNL     1      -7.148   0.183 129.693  0.00  0.00    +0.000 A 
ENDROOT
BRANCH   6   7
ATOM      7  C   UNL     1      -6.715   1.021 130.871  0.00  0.00    +0.000 C 
ATOM      8  O   UNL     1      -5.599   0.840 131.371  0.00  0.00    +0.000 OA
ATOM      9  N   UNL     1      -7.523   2.065 131.305  0.00  0.00    +0.000 N 
ATOM     10  C   UNL     1      -6.995   3.432 131.092  0.00  0.00    +0.000 C 
ATOM     11  C   UNL     1      -7.501   4.371 132.133  0.00  0.00    +0.000 C 
ATOM     12  C   UNL     1      -9.226   4.590 131.887  0.00  0.00    +0.000 C 
ATOM     13  C   UNL     1      -9.539   2.948 132.378  0.00  0.00    +0.000 C 
ATOM     14  C   UNL     1      -8.973   1.899 131.459  0.00  0.00    +0.000 C 
BRANCH  12  15
ATOM     15  N   UNL     1      -9.622   5.934 130.689  0.00  0.00    +0.000 N 
ATOM     16  C   UNL     1     -10.670   6.250 131.616  0.00  0.00    +0.000 C 
ATOM     17  O   UNL     1     -10.587   6.505 132.867  0.00  0.00    +0.000 OA
ATOM     18  O   UNL     1     -11.887   5.975 131.217  0.00  0.00    +0.000 OA
ATOM     19  C   UNL     1     -12.153   7.216 130.700  0.00  0.00    +0.000 C 
ATOM     20  C   UNL     1     -11.860   6.740 129.345  0.00  0.00    +0.000 A 
ATOM     21  C   UNL     1     -12.987   6.852 128.426  0.00  0.00    +0.000 A 
ATOM     22  C   UNL     1     -12.868   7.121 127.094  0.00  0.00    +0.000 A 
ATOM     23  C   UNL     1     -11.631   7.651 126.845  0.00  0.00    +0.000 A 
ATOM     24  C   UNL     1     -10.435   7.388 127.876  0.00  0.00    +0.000 A 
ATOM     25  C   UNL     1     -10.493   6.473 129.149  0.00  0.00    +0.000 A 
ENDBRANCH  12  15
ENDBRANCH   6   7
BRANCH   1  27
ATOM     26  C   UNL     1      -6.515   2.299 127.470  0.00  0.00    +0.000 C 
ATOM     27  O   UNL     1      -7.749   1.710 127.793  0.00  0.00    +0.000 OA
ENDBRANCH   1  27
BRANCH   3  28
ATOM     28  O   UNL     1      -8.353  -2.797 126.902  0.00  0.00    +0.000 OA
BRANCH  28  29
ATOM     29  C   UNL     1      -7.581  -3.443 125.841  0.00  0.00    +0.000 C 
ATOM     30  C   UNL     1      -6.257  -2.803 125.362  0.00  0.00    +0.000 C 
ATOM     31  C   UNL     1      -6.412  -1.658 124.366  0.00  0.00    +0.000 C 
ATOM     32  N   UNL     1      -7.401  -1.983 123.284  0.00  0.00    +0.000 NA
ATOM     33  C   UNL     1      -8.630  -2.752 123.675  0.00  0.00    +0.000 C 
ATOM     34  C   UNL     1      -8.435  -3.870 124.662  0.00  0.00    +0.000 C 
BRANCH  32  35
ATOM     35  C   UNL     1      -7.739  -0.741 122.511  0.00  0.00    +0.000 C 
BRANCH  35  36
ATOM     36  C   UNL     1      -8.029   0.480 123.363  0.00  0.00    +0.000 A 
ATOM     37  C   UNL     1      -9.211   0.544 124.110  0.00  0.00    +0.000 A 
ATOM     38  C   UNL     1      -9.644   1.758 124.602  0.00  0.00    +0.000 A 
ATOM     39  C   UNL     1      -8.775   2.828 124.539  0.00  0.00    +0.000 A 
ATOM     40  C   UNL     1      -7.539   2.641 123.936  0.00  0.00    +0.000 A 
ATOM     41  N   UNL     1      -7.161   1.509 123.308  0.00  0.00    +0.000 NA
ENDBRANCH  35  36
ENDBRANCH  32  35
ENDBRANCH  28  29
ENDBRANCH   3  28
TORSDOF 7
ENDMDL
MODEL 7
REMARK VINA RESULT:     -10.3      1.871      2.323
REMARK  Name = CHEMBL66567
REMARK  8 active torsions:
REMARK  status: ('A' for Active; 'I' for Inactive)
REMARK    1  A    between atoms: C_1  and  O_2
REMARK    2  A    between atoms: O_2  and  C_3
REMARK    3  A    between atoms: C_5  and  O_6
REMARK    4  A    between atoms: O_6  and  C_7
REMARK    5  A    between atoms: N_10  and  C_11
REMARK    6  A    between atoms: C_11  and  C_12
REMARK    7  A    between atoms: C_22  and  C_23
REMARK    8  A    between atoms: C_28  and  N_29
REMARK                            x       y       z     vdW  Elec       q    Type
REMARK                         _______ _______ _______ _____ _____    ______ ____
ROOT
ATOM      1  C   UNL     1      -6.820  -0.838 129.721  0.00  0.00    +0.000 A 
ATOM      2  C   UNL     1      -6.999  -1.428 128.436  0.00  0.00    +0.000 A 
ATOM      3  C   UNL     1      -6.806  -0.691 127.314  0.00  0.00    +0.000 A 
ATOM      4  C   UNL     1      -6.618   0.622 127.608  0.00  0.00    +0.000 A 
ATOM      5  C   UNL     1      -6.415   1.273 128.802  0.00  0.00    +0.000 A 
ATOM      6  C   UNL     1      -6.470   0.529 129.932  0.00  0.00    +0.000 A 
ENDROOT
BRANCH   6   7
ATOM      7  C   UNL     1      -6.252   1.383 131.158  0.00  0.00    +0.000 C 
ATOM      8  O   UNL     1      -5.182   1.308 131.771  0.00  0.00    +0.000 OA
ATOM      9  N   UNL     1      -7.206   2.329 131.514  0.00  0.00    +0.000 N 
ATOM     10  C   UNL     1      -6.805   3.747 131.371  0.00  0.00    +0.000 C 
ATOM     11  C   UNL     1      -7.512   4.607 132.362  0.00  0.00    +0.000 C 
ATOM     12  C   UNL     1      -9.216   4.652 131.936  0.00  0.00    +0.000 C 
ATOM     13  C   UNL     1      -9.405   2.977 132.376  0.00  0.00    +0.000 C 
ATOM     14  C   UNL     1      -8.639   2.011 131.512  0.00  0.00    +0.000 C 
BRANCH  12  15
ATOM     15  N   UNL     1      -9.624   5.973 130.717  0.00  0.00    +0.000 N 
ATOM     16  C   UNL     1     -10.670   6.299 131.642  0.00  0.00    +0.000 C 
ATOM     17  O   UNL     1     -10.584   6.576 132.888  0.00  0.00    +0.000 OA
ATOM     18  O   UNL     1     -11.887   6.010 131.251  0.00  0.00    +0.000 OA
ATOM     19  C   UNL     1     -12.161   7.241 130.713  0.00  0.00    +0.000 C 
ATOM     20  C   UNL     1     -11.870   6.742 129.366  0.00  0.00    +0.000 A 
ATOM     21  C   UNL     1     -13.001   6.831 128.449  0.00  0.00    +0.000 A 
ATOM     22  C   UNL     1     -12.888   7.077 127.112  0.00  0.00    +0.000 A 
ATOM     23  C   UNL     1     -11.655   7.610 126.849  0.00  0.00    +0.000 A 
ATOM     24  C   UNL     1     -10.454   7.371 127.881  0.00  0.00    +0.000 A 
ATOM     25  C   UNL     1     -10.502   6.479 129.170  0.00  0.00    +0.000 A 
ENDBRANCH  12  15
ENDBRANCH   6   7
BRANCH   1  27
ATOM     26  C   UNL     1      -6.631  -3.069 130.167  0.00  0.00    +0.000 C 
ATOM     27  O   UNL     1      -7.010  -1.811 130.663  0.00  0.00    +0.000 OA
ENDBRANCH   1  27
BRANCH   3  28
ATOM     28  O   UNL     1      -6.797  -1.229 126.070  0.00  0.00    +0.000 OA
BRANCH  28  29
ATOM     29  C   UNL     1      -7.992  -1.541 125.287  0.00  0.00    +0.000 C 
ATOM     30  C   UNL     1      -7.929  -1.491 123.743  0.00  0.00    +0.000 C 
ATOM     31  C   UNL     1      -8.058  -0.098 123.133  0.00  0.00    +0.000 C 
ATOM     32  N   UNL     1      -9.172   0.690 123.759  0.00  0.00    +0.000 NA
ATOM     33  C   UNL     1      -9.378   0.544 125.240  0.00  0.00    +0.000 C 
ATOM     34  C   UNL     1      -9.238  -0.844 125.802  0.00  0.00    +0.000 C 
BRANCH  32  35
ATOM     35  C   UNL     1      -9.074   2.130 123.346  0.00  0.00    +0.000 C 
BRANCH  35  36
ATOM     36  C   UNL     1      -8.157   2.979 124.206  0.00  0.00    +0.000 A 
ATOM     37  C   UNL     1      -6.770   2.802 124.130  0.00  0.00    +0.000 A 
ATOM     38  C   UNL     1      -5.961   3.305 125.128  0.00  0.00    +0.000 A 
ATOM     39  C   UNL     1      -6.527   4.167 126.045  0.00  0.00    +0.000 A 
ATOM     40  C   UNL     1      -7.886   4.435 125.950  0.00  0.00    +0.000 A 
ATOM     41  N   UNL     1      -8.722   3.831 125.083  0.00  0.00    +0.000 NA
ENDBRANCH  35  36
ENDBRANCH  32  35
ENDBRANCH  28  29
ENDBRANCH   3  28
TORSDOF 7
ENDMDL
MODEL 8
REMARK VINA RESULT:     -10.3      2.732      8.813
REMARK  Name = CHEMBL66567
REMARK  8 active torsions:
REMARK  status: ('A' for Active; 'I' for Inactive)
REMARK    1  A    between atoms: C_1  and  O_2
REMARK    2  A    between atoms: O_2  and  C_3
REMARK    3  A    between atoms: C_5  and  O_6
REMARK    4  A    between atoms: O_6  and  C_7
REMARK    5  A    between atoms: N_10  and  C_11
REMARK    6  A    between atoms: C_11  and  C_12
REMARK    7  A    between atoms: C_22  and  C_23
REMARK    8  A    between atoms: C_28  and  N_29
REMARK                            x       y       z     vdW  Elec       q    Type
REMARK                         _______ _______ _______ _____ _____    ______ ____
ROOT
ATOM      1  C   UNL     1      -6.679   0.299 132.934  0.00  0.00    +0.000 A 
ATOM      2  C   UNL     1      -6.960   1.641 133.324  0.00  0.00    +0.000 A 
ATOM      3  C   UNL     1      -8.141   2.217 132.987  0.00  0.00    +0.000 A 
ATOM      4  C   UNL     1      -8.852   1.431 132.138  0.00  0.00    +0.000 A 
ATOM      5  C   UNL     1      -8.673   0.132 131.725  0.00  0.00    +0.000 A 
ATOM      6  C   UNL     1      -7.563  -0.511 132.159  0.00  0.00    +0.000 A 
ENDROOT
BRANCH   6   7
ATOM      7  C   UNL     1      -7.493  -1.914 131.606  0.00  0.00    +0.000 C 
ATOM      8  O   UNL     1      -7.845  -2.865 132.312  0.00  0.00    +0.000 OA
ATOM      9  N   UNL     1      -7.151  -2.110 130.274  0.00  0.00    +0.000 N 
ATOM     10  C   UNL     1      -8.224  -2.615 129.389  0.00  0.00    +0.000 C 
ATOM     11  C   UNL     1      -7.664  -3.426 128.272  0.00  0.00    +0.000 C 
ATOM     12  C   UNL     1      -6.771  -2.353 127.206  0.00  0.00    +0.000 C 
ATOM     13  C   UNL     1      -5.548  -2.107 128.422  0.00  0.00    +0.000 C 
ATOM     14  C   UNL     1      -6.027  -1.394 129.658  0.00  0.00    +0.000 C 
BRANCH  12  15
ATOM     15  N   UNL     1      -7.828  -1.571 125.914  0.00  0.00    +0.000 N 
ATOM     16  C   UNL     1      -6.784  -1.982 125.021  0.00  0.00    +0.000 C 
ATOM     17  O   UNL     1      -6.299  -3.151 124.836  0.00  0.00    +0.000 OA
ATOM     18  O   UNL     1      -6.038  -1.021 124.534  0.00  0.00    +0.000 OA
ATOM     19  C   UNL     1      -6.767  -0.840 123.387  0.00  0.00    +0.000 C 
ATOM     20  C   UNL     1      -7.449   0.316 123.976  0.00  0.00    +0.000 A 
ATOM     21  C   UNL     1      -7.239   1.559 123.241  0.00  0.00    +0.000 A 
ATOM     22  C   UNL     1      -8.170   2.549 123.125  0.00  0.00    +0.000 A 
ATOM     23  C   UNL     1      -9.407   2.049 123.431  0.00  0.00    +0.000 A 
ATOM     24  C   UNL     1      -9.527   0.726 124.326  0.00  0.00    +0.000 A 
ATOM     25  C   UNL     1      -8.341  -0.046 125.001  0.00  0.00    +0.000 A 
ENDBRANCH  12  15
ENDBRANCH   6   7
BRANCH   1  27
ATOM     26  C   UNL     1      -4.419   0.369 132.615  0.00  0.00    +0.000 C 
ATOM     27  O   UNL     1      -5.464  -0.048 133.456  0.00  0.00    +0.000 OA
ENDBRANCH   1  27
BRANCH   3  28
ATOM     28  O   UNL     1      -8.536   3.422 133.465  0.00  0.00    +0.000 OA
BRANCH  28  29
ATOM     29  C   UNL     1      -8.244   4.708 132.832  0.00  0.00    +0.000 C 
ATOM     30  C   UNL     1      -9.095   5.948 133.192  0.00  0.00    +0.000 C 
ATOM     31  C   UNL     1     -10.434   6.049 132.467  0.00  0.00    +0.000 C 
ATOM     32  N   UNL     1     -10.302   5.759 130.999  0.00  0.00    +0.000 NA
ATOM     33  C   UNL     1      -9.355   4.668 130.589  0.00  0.00    +0.000 C 
ATOM     34  C   UNL     1      -8.049   4.600 131.331  0.00  0.00    +0.000 C 
BRANCH  32  35
ATOM     35  C   UNL     1     -11.663   5.580 130.389  0.00  0.00    +0.000 C 
BRANCH  35  36
ATOM     36  C   UNL     1     -12.132   6.738 129.529  0.00  0.00    +0.000 A 
ATOM     37  C   UNL     1     -12.092   8.043 130.035  0.00  0.00    +0.000 A 
ATOM     38  C   UNL     1     -12.818   9.040 129.416  0.00  0.00    +0.000 A 
ATOM     39  C   UNL     1     -13.373   8.763 128.183  0.00  0.00    +0.000 A 
ATOM     40  C   UNL     1     -13.219   7.486 127.660  0.00  0.00    +0.000 A 
ATOM     41  N   UNL     1     -12.652   6.457 128.319  0.00  0.00    +0.000 NA
ENDBRANCH  35  36
ENDBRANCH  32  35
ENDBRANCH  28  29
ENDBRANCH   3  28
TORSDOF 7
ENDMDL
MODEL 9
REMARK VINA RESULT:      -9.9      3.090      9.525
REMARK  Name = CHEMBL66567
REMARK  8 active torsions:
REMARK  status: ('A' for Active; 'I' for Inactive)
REMARK    1  A    between atoms: C_1  and  O_2
REMARK    2  A    between atoms: O_2  and  C_3
REMARK    3  A    between atoms: C_5  and  O_6
REMARK    4  A    between atoms: O_6  and  C_7
REMARK    5  A    between atoms: N_10  and  C_11
REMARK    6  A    between atoms: C_11  and  C_12
REMARK    7  A    between atoms: C_22  and  C_23
REMARK    8  A    between atoms: C_28  and  N_29
REMARK                            x       y       z     vdW  Elec       q    Type
REMARK                         _______ _______ _______ _____ _____    ______ ____
ROOT
ATOM      1  C   UNL     1      -4.632   3.266 127.596  0.00  0.00    +0.000 A 
ATOM      2  C   UNL     1      -4.155   2.968 128.906  0.00  0.00    +0.000 A 
ATOM      3  C   UNL     1      -4.864   3.356 129.996  0.00  0.00    +0.000 A 
ATOM      4  C   UNL     1      -5.902   4.160 129.652  0.00  0.00    +0.000 A 
ATOM      5  C   UNL     1      -6.444   4.485 128.430  0.00  0.00    +0.000 A 
ATOM      6  C   UNL     1      -5.828   3.996 127.328  0.00  0.00    +0.000 A 
ENDROOT
BRANCH   6   7
ATOM      7  C   UNL     1      -6.521   4.455 126.067  0.00  0.00    +0.000 C 
ATOM      8  O   UNL     1      -6.351   5.612 125.665  0.00  0.00    +0.000 OA
ATOM      9  N   UNL     1      -7.241   3.541 125.308  0.00  0.00    +0.000 N 
ATOM     10  C   UNL     1      -6.677   3.201 123.983  0.00  0.00    +0.000 C 
ATOM     11  C   UNL     1      -7.752   2.837 123.018  0.00  0.00    +0.000 C 
ATOM     12  C   UNL     1      -8.459   1.312 123.529  0.00  0.00    +0.000 C 
ATOM     13  C   UNL     1      -9.163   2.070 124.931  0.00  0.00    +0.000 C 
ATOM     14  C   UNL     1      -8.165   2.586 125.933  0.00  0.00    +0.000 C 
BRANCH  12  15
ATOM     15  N   UNL     1      -7.568  -0.158 122.866  0.00  0.00    +0.000 N 
ATOM     16  C   UNL     1      -8.789  -0.849 123.166  0.00  0.00    +0.000 C 
ATOM     17  O   UNL     1      -9.978  -0.586 122.775  0.00  0.00    +0.000 OA
ATOM     18  O   UNL     1      -8.741  -1.679 124.179  0.00  0.00    +0.000 OA
ATOM     19  C   UNL     1      -8.448  -2.794 123.438  0.00  0.00    +0.000 C 
ATOM     20  C   UNL     1      -7.028  -2.675 123.780  0.00  0.00    +0.000 A 
ATOM     21  C   UNL     1      -6.497  -3.831 124.495  0.00  0.00    +0.000 A 
ATOM     22  C   UNL     1      -5.222  -4.296 124.364  0.00  0.00    +0.000 A 
ATOM     23  C   UNL     1      -4.671  -3.799 123.213  0.00  0.00    +0.000 A 
ATOM     24  C   UNL     1      -5.274  -2.467 122.560  0.00  0.00    +0.000 A 
ATOM     25  C   UNL     1      -6.412  -1.572 123.162  0.00  0.00    +0.000 A 
ENDBRANCH  12  15
ENDBRANCH   6   7
BRANCH   1  27
ATOM     26  C   UNL     1      -2.445   3.092 126.962  0.00  0.00    +0.000 C 
ATOM     27  O   UNL     1      -3.769   2.707 126.695  0.00  0.00    +0.000 OA
ENDBRANCH   1  27
BRANCH   3  28
ATOM     28  O   UNL     1      -4.554   2.962 131.255  0.00  0.00    +0.000 OA
BRANCH  28  29
ATOM     29  C   UNL     1      -5.183   1.846 131.959  0.00  0.00    +0.000 C 
ATOM     30  C   UNL     1      -6.383   1.113 131.314  0.00  0.00    +0.000 C 
ATOM     31  C   UNL     1      -7.732   1.803 131.481  0.00  0.00    +0.000 C 
ATOM     32  N   UNL     1      -7.949   2.281 132.888  0.00  0.00    +0.000 NA
ATOM     33  C   UNL     1      -6.767   2.851 133.618  0.00  0.00    +0.000 C 
ATOM     34  C   UNL     1      -5.454   2.145 133.423  0.00  0.00    +0.000 C 
BRANCH  32  35
ATOM     35  C   UNL     1      -9.137   3.199 132.939  0.00  0.00    +0.000 C 
BRANCH  35  36
ATOM     36  C   UNL     1      -9.072   4.377 131.986  0.00  0.00    +0.000 A 
ATOM     37  C   UNL     1      -8.191   5.435 132.243  0.00  0.00    +0.000 A 
ATOM     38  C   UNL     1      -8.362   6.640 131.595  0.00  0.00    +0.000 A 
ATOM     39  C   UNL     1      -9.254   6.687 130.542  0.00  0.00    +0.000 A 
ATOM     40  C   UNL     1      -9.968   5.539 130.230  0.00  0.00    +0.000 A 
ATOM     41  N   UNL     1      -9.933   4.400 130.950  0.00  0.00    +0.000 NA
ENDBRANCH  35  36
ENDBRANCH  32  35
ENDBRANCH  28  29
ENDBRANCH   3  28
TORSDOF 7
ENDMDL
