MODEL 1
REMARK VINA RESULT:      -9.8      0.000      0.000
REMARK  Name = CHEMBL285312
REMARK  12 active torsions:
REMARK  status: ('A' for Active; 'I' for Inactive)
REMARK    1  A    between atoms: C_1  and  C_2
REMARK    2  A    between atoms: C_2  and  C_4
REMARK    3  A    between atoms: C_4  and  C_5
REMARK    4  A    between atoms: C_5  and  C_6
REMARK    5  A    between atoms: C_6  and  C_7
REMARK    6  A    between atoms: N_9  and  C_10
REMARK    7  A    between atoms: C_12  and  C_13
REMARK    8  A    between atoms: N_25  and  C_26
REMARK    9  A    between atoms: C_26  and  C_27
REMARK   10  A    between atoms: N_29  and  C_30
REMARK   11  A    between atoms: C_30  and  C_31
REMARK   12  A    between atoms: C_31  and  C_32
REMARK                            x       y       z     vdW  Elec       q    Type
REMARK                         _______ _______ _______ _____ _____    ______ ____
ROOT
ATOM      1  C   UNL     1      -8.083   4.004 129.648  0.00  0.00    +0.000 C 
ATOM      2  N   UNL     1      -8.604   3.321 128.466  0.00  0.00    +0.000 NA
ATOM      3  C   UNL     1      -7.775   2.874 127.583  0.00  0.00    +0.000 C 
ATOM      4  C   UNL     1      -6.284   2.929 127.697  0.00  0.00    +0.000 A 
ATOM      5  C   UNL     1      -5.535   3.088 126.516  0.00  0.00    +0.000 A 
ATOM      6  C   UNL     1      -4.141   3.039 126.537  0.00  0.00    +0.000 A 
ATOM      7  C   UNL     1      -3.477   2.912 127.747  0.00  0.00    +0.000 A 
ATOM      8  C   UNL     1      -4.207   2.833 128.931  0.00  0.00    +0.000 A 
ATOM      9  C   UNL     1      -5.611   2.739 128.919  0.00  0.00    +0.000 A 
ATOM     10  N   UNL     1      -6.272   2.315 130.115  0.00  0.00    +0.000 N 
ATOM     11  C   UNL     1      -7.440   2.929 130.574  0.00  0.00    +0.000 C 
ATOM     12  O   UNL     1      -7.916   2.664 131.688  0.00  0.00    +0.000 OA
ENDROOT
BRANCH   3  13
ATOM     13  C   UNL     1      -8.359   2.231 126.367  0.00  0.00    +0.000 A 
ATOM     14  C   UNL     1      -8.448   2.931 125.158  0.00  0.00    +0.000 A 
ATOM     15  C   UNL     1      -9.091   2.340 124.064  0.00  0.00    +0.000 A 
ATOM     16  C   UNL     1      -9.558   1.026 124.153  0.00  0.00    +0.000 A 
ATOM     17  C   UNL     1      -9.376   0.299 125.329  0.00  0.00    +0.000 A 
ATOM     18  C   UNL     1      -8.822   0.915 126.452  0.00  0.00    +0.000 A 
ENDBRANCH   3  13
BRANCH   1  21
ATOM     19  C   UNL     1      -9.272   6.008 130.439  0.00  0.00    +0.000 C 
ATOM     20  O   UNL     1      -8.390   6.760 129.995  0.00  0.00    +0.000 OA
ATOM     21  N   UNL     1      -9.196   4.647 130.330  0.00  0.00    +0.000 N 
ATOM     22  H   UNL     1      -9.888   4.036 130.751  0.00  0.00    +0.000 HD
BRANCH  19  23
ATOM     23  C   UNL     1     -10.497   6.551 131.165  0.00  0.00    +0.000 C 
BRANCH  23  24
ATOM     24  C   UNL     1     -11.347   7.390 130.204  0.00  0.00    +0.000 C 
BRANCH  24  25
ATOM     25  C   UNL     1     -12.061   6.582 129.124  0.00  0.00    +0.000 C 
BRANCH  25  27
ATOM     26  C   UNL     1     -10.788   8.283 127.652  0.00  0.00    +0.000 C 
ATOM     27  C   UNL     1     -11.776   7.152 127.738  0.00  0.00    +0.000 C 
ATOM     28  O   UNL     1     -12.316   6.721 126.718  0.00  0.00    +0.000 OA
ENDBRANCH  25  27
ENDBRANCH  24  25
ENDBRANCH  23  24
ENDBRANCH  19  23
ENDBRANCH   1  21
BRANCH  10  29
ATOM     29  C   UNL     1      -5.705   1.199 130.921  0.00  0.00    +0.000 C 
BRANCH  29  30
ATOM     30  C   UNL     1      -5.809  -0.239 130.377  0.00  0.00    +0.000 C 
ATOM     31  O   UNL     1      -4.835  -0.833 129.841  0.00  0.00    +0.000 OA
ATOM     32  N   UNL     1      -7.005  -0.903 130.459  0.00  0.00    +0.000 N 
ATOM     33  H   UNL     1      -7.875  -0.375 130.443  0.00  0.00    +0.000 HD
BRANCH  32  34
ATOM     34  C   UNL     1      -6.978  -2.320 130.116  0.00  0.00    +0.000 C 
BRANCH  34  35
ATOM     35  C   UNL     1      -8.194  -2.837 129.392  0.00  0.00    +0.000 C 
BRANCH  35  36
ATOM     36  C   UNL     1      -8.036  -2.925 127.877  0.00  0.00    +0.000 A 
ATOM     37  C   UNL     1      -7.059  -2.078 127.357  0.00  0.00    +0.000 A 
ATOM     38  C   UNL     1      -6.685  -2.185 126.033  0.00  0.00    +0.000 A 
ATOM     39  C   UNL     1      -7.318  -3.061 125.176  0.00  0.00    +0.000 A 
ATOM     40  C   UNL     1      -6.884  -3.269 123.864  0.00  0.00    +0.000 A 
ATOM     41  C   UNL     1      -7.336  -2.245 123.123  0.00  0.00    +0.000 A 
ATOM     42  C   UNL     1      -8.705  -2.455 123.081  0.00  0.00    +0.000 A 
ATOM     43  C   UNL     1      -9.319  -3.259 124.185  0.00  0.00    +0.000 A 
ATOM     44  C   UNL     1      -8.608  -3.395 125.475  0.00  0.00    +0.000 A 
ATOM     45  C   UNL     1      -8.789  -3.683 126.931  0.00  0.00    +0.000 A 
ENDBRANCH  35  36
ENDBRANCH  34  35
ENDBRANCH  32  34
ENDBRANCH  29  30
ENDBRANCH  10  29
TORSDOF 11
ENDMDL
MODEL 2
REMARK VINA RESULT:      -9.6      2.664      4.803
REMARK  Name = CHEMBL285312
REMARK  12 active torsions:
REMARK  status: ('A' for Active; 'I' for Inactive)
REMARK    1  A    between atoms: C_1  and  C_2
REMARK    2  A    between atoms: C_2  and  C_4
REMARK    3  A    between atoms: C_4  and  C_5
REMARK    4  A    between atoms: C_5  and  C_6
REMARK    5  A    between atoms: C_6  and  C_7
REMARK    6  A    between atoms: N_9  and  C_10
REMARK    7  A    between atoms: C_12  and  C_13
REMARK    8  A    between atoms: N_25  and  C_26
REMARK    9  A    between atoms: C_26  and  C_27
REMARK   10  A    between atoms: N_29  and  C_30
REMARK   11  A    between atoms: C_30  and  C_31
REMARK   12  A    between atoms: C_31  and  C_32
REMARK                            x       y       z     vdW  Elec       q    Type
REMARK                         _______ _______ _______ _____ _____    ______ ____
ROOT
ATOM      1  C   UNL     1      -9.233   5.460 130.281  0.00  0.00    +0.000 C 
ATOM      2  N   UNL     1      -7.804   5.438 129.981  0.00  0.00    +0.000 NA
ATOM      3  C   UNL     1      -6.961   5.321 130.952  0.00  0.00    +0.000 C 
ATOM      4  C   UNL     1      -7.326   5.129 132.390  0.00  0.00    +0.000 A 
ATOM      5  C   UNL     1      -6.485   5.692 133.368  0.00  0.00    +0.000 A 
ATOM      6  C   UNL     1      -6.706   5.460 134.726  0.00  0.00    +0.000 A 
ATOM      7  C   UNL     1      -7.816   4.731 135.126  0.00  0.00    +0.000 A 
ATOM      8  C   UNL     1      -8.699   4.236 134.169  0.00  0.00    +0.000 A 
ATOM      9  C   UNL     1      -8.418   4.337 132.794  0.00  0.00    +0.000 A 
ATOM     10  N   UNL     1      -9.166   3.521 131.888  0.00  0.00    +0.000 N 
ATOM     11  C   UNL     1      -9.659   4.015 130.678  0.00  0.00    +0.000 C 
ATOM     12  O   UNL     1     -10.437   3.353 129.977  0.00  0.00    +0.000 OA
ENDROOT
BRANCH   3  13
ATOM     13  C   UNL     1      -5.508   5.356 130.600  0.00  0.00    +0.000 A 
ATOM     14  C   UNL     1      -4.765   4.174 130.503  0.00  0.00    +0.000 A 
ATOM     15  C   UNL     1      -3.387   4.243 130.272  0.00  0.00    +0.000 A 
ATOM     16  C   UNL     1      -2.775   5.479 130.051  0.00  0.00    +0.000 A 
ATOM     17  C   UNL     1      -3.539   6.646 130.049  0.00  0.00    +0.000 A 
ATOM     18  C   UNL     1      -4.895   6.592 130.372  0.00  0.00    +0.000 A 
ENDBRANCH   3  13
BRANCH   1  21
ATOM     19  C   UNL     1     -10.002   7.191 128.709  0.00  0.00    +0.000 C 
ATOM     20  O   UNL     1      -9.485   8.096 129.385  0.00  0.00    +0.000 OA
ATOM     21  N   UNL     1      -9.943   5.876 129.081  0.00  0.00    +0.000 N 
ATOM     22  H   UNL     1     -10.422   5.150 128.559  0.00  0.00    +0.000 HD
BRANCH  19  23
ATOM     23  C   UNL     1     -10.766   7.487 127.424  0.00  0.00    +0.000 C 
BRANCH  23  24
ATOM     24  C   UNL     1     -11.966   8.393 127.724  0.00  0.00    +0.000 C 
BRANCH  24  25
ATOM     25  C   UNL     1     -13.001   7.779 128.662  0.00  0.00    +0.000 C 
BRANCH  25  27
ATOM     26  C   UNL     1     -12.790   7.477 131.220  0.00  0.00    +0.000 C 
ATOM     27  C   UNL     1     -12.925   8.410 130.048  0.00  0.00    +0.000 C 
ATOM     28  O   UNL     1     -12.967   9.628 130.227  0.00  0.00    +0.000 OA
ENDBRANCH  25  27
ENDBRANCH  24  25
ENDBRANCH  23  24
ENDBRANCH  19  23
ENDBRANCH   1  21
BRANCH  10  29
ATOM     29  C   UNL     1      -9.456   2.102 132.233  0.00  0.00    +0.000 C 
BRANCH  29  30
ATOM     30  C   UNL     1      -8.309   1.075 132.182  0.00  0.00    +0.000 C 
ATOM     31  O   UNL     1      -7.514   0.897 133.143  0.00  0.00    +0.000 OA
ATOM     32  N   UNL     1      -8.126   0.329 131.047  0.00  0.00    +0.000 N 
ATOM     33  H   UNL     1      -8.400   0.713 130.144  0.00  0.00    +0.000 HD
BRANCH  32  34
ATOM     34  C   UNL     1      -7.161  -0.759 131.141  0.00  0.00    +0.000 C 
BRANCH  34  35
ATOM     35  C   UNL     1      -7.680  -2.123 130.763  0.00  0.00    +0.000 C 
BRANCH  35  36
ATOM     36  C   UNL     1      -7.878  -2.330 129.265  0.00  0.00    +0.000 A 
ATOM     37  C   UNL     1      -8.516  -3.524 128.935  0.00  0.00    +0.000 A 
ATOM     38  C   UNL     1      -8.921  -3.756 127.636  0.00  0.00    +0.000 A 
ATOM     39  C   UNL     1      -8.632  -2.866 126.624  0.00  0.00    +0.000 A 
ATOM     40  C   UNL     1      -9.126  -3.021 125.325  0.00  0.00    +0.000 A 
ATOM     41  C   UNL     1      -8.363  -3.939 124.712  0.00  0.00    +0.000 A 
ATOM     42  C   UNL     1      -7.146  -3.296 124.553  0.00  0.00    +0.000 A 
ATOM     43  C   UNL     1      -6.827  -2.171 125.488  0.00  0.00    +0.000 A 
ATOM     44  C   UNL     1      -7.527  -2.079 126.788  0.00  0.00    +0.000 A 
ATOM     45  C   UNL     1      -7.436  -1.523 128.174  0.00  0.00    +0.000 A 
ENDBRANCH  35  36
ENDBRANCH  34  35
ENDBRANCH  32  34
ENDBRANCH  29  30
ENDBRANCH  10  29
TORSDOF 11
ENDMDL
MODEL 3
REMARK VINA RESULT:      -9.6      4.220      8.540
REMARK  Name = CHEMBL285312
REMARK  12 active torsions:
REMARK  status: ('A' for Active; 'I' for Inactive)
REMARK    1  A    between atoms: C_1  and  C_2
REMARK    2  A    between atoms: C_2  and  C_4
REMARK    3  A    between atoms: C_4  and  C_5
REMARK    4  A    between atoms: C_5  and  C_6
REMARK    5  A    between atoms: C_6  and  C_7
REMARK    6  A    between atoms: N_9  and  C_10
REMARK    7  A    between atoms: C_12  and  C_13
REMARK    8  A    between atoms: N_25  and  C_26
REMARK    9  A    between atoms: C_26  and  C_27
REMARK   10  A    between atoms: N_29  and  C_30
REMARK   11  A    between atoms: C_30  and  C_31
REMARK   12  A    between atoms: C_31  and  C_32
REMARK                            x       y       z     vdW  Elec       q    Type
REMARK                         _______ _______ _______ _____ _____    ______ ____
ROOT
ATOM      1  C   UNL     1     -10.045   5.888 130.669  0.00  0.00    +0.000 C 
ATOM      2  N   UNL     1      -8.998   6.185 131.643  0.00  0.00    +0.000 NA
ATOM      3  C   UNL     1      -8.340   5.210 132.174  0.00  0.00    +0.000 C 
ATOM      4  C   UNL     1      -8.506   3.766 131.820  0.00  0.00    +0.000 A 
ATOM      5  C   UNL     1      -8.323   2.810 132.838  0.00  0.00    +0.000 A 
ATOM      6  C   UNL     1      -8.358   1.444 132.554  0.00  0.00    +0.000 A 
ATOM      7  C   UNL     1      -8.654   1.016 131.269  0.00  0.00    +0.000 A 
ATOM      8  C   UNL     1      -8.915   1.954 130.272  0.00  0.00    +0.000 A 
ATOM      9  C   UNL     1      -8.747   3.332 130.503  0.00  0.00    +0.000 A 
ATOM     10  N   UNL     1      -8.688   4.206 129.372  0.00  0.00    +0.000 N 
ATOM     11  C   UNL     1      -9.353   5.434 129.348  0.00  0.00    +0.000 C 
ATOM     12  O   UNL     1      -9.428   6.110 128.312  0.00  0.00    +0.000 OA
ENDROOT
BRANCH   3  13
ATOM     13  C   UNL     1      -7.315   5.563 133.204  0.00  0.00    +0.000 A 
ATOM     14  C   UNL     1      -5.993   5.839 132.835  0.00  0.00    +0.000 A 
ATOM     15  C   UNL     1      -5.033   6.066 133.827  0.00  0.00    +0.000 A 
ATOM     16  C   UNL     1      -5.412   6.105 135.172  0.00  0.00    +0.000 A 
ATOM     17  C   UNL     1      -6.749   5.929 135.526  0.00  0.00    +0.000 A 
ATOM     18  C   UNL     1      -7.693   5.608 134.549  0.00  0.00    +0.000 A 
ENDBRANCH   3  13
BRANCH   1  21
ATOM     19  C   UNL     1     -12.026   7.302 131.033  0.00  0.00    +0.000 C 
ATOM     20  O   UNL     1     -12.551   6.452 131.770  0.00  0.00    +0.000 OA
ATOM     21  N   UNL     1     -10.811   7.103 130.438  0.00  0.00    +0.000 N 
ATOM     22  H   UNL     1     -10.417   7.773 129.786  0.00  0.00    +0.000 HD
BRANCH  19  23
ATOM     23  C   UNL     1     -12.715   8.624 130.716  0.00  0.00    +0.000 C 
BRANCH  23  24
ATOM     24  C   UNL     1     -12.449   9.018 129.259  0.00  0.00    +0.000 C 
BRANCH  24  25
ATOM     25  C   UNL     1     -13.421   8.407 128.253  0.00  0.00    +0.000 C 
BRANCH  25  27
ATOM     26  C   UNL     1     -12.270   7.227 126.262  0.00  0.00    +0.000 C 
ATOM     27  C   UNL     1     -12.848   7.130 127.647  0.00  0.00    +0.000 C 
ATOM     28  O   UNL     1     -12.844   6.053 128.246  0.00  0.00    +0.000 OA
ENDBRANCH  25  27
ENDBRANCH  24  25
ENDBRANCH  23  24
ENDBRANCH  19  23
ENDBRANCH   1  21
BRANCH  10  29
ATOM     29  C   UNL     1      -7.915   3.807 128.164  0.00  0.00    +0.000 C 
BRANCH  29  30
ATOM     30  C   UNL     1      -6.404   3.539 128.303  0.00  0.00    +0.000 C 
ATOM     31  O   UNL     1      -5.844   2.530 127.795  0.00  0.00    +0.000 OA
ATOM     32  N   UNL     1      -5.629   4.416 129.015  0.00  0.00    +0.000 N 
ATOM     33  H   UNL     1      -6.044   4.945 129.781  0.00  0.00    +0.000 HD
BRANCH  32  34
ATOM     34  C   UNL     1      -4.188   4.215 128.933  0.00  0.00    +0.000 C 
BRANCH  34  35
ATOM     35  C   UNL     1      -3.517   3.786 130.213  0.00  0.00    +0.000 C 
BRANCH  35  36
ATOM     36  C   UNL     1      -2.815   4.912 130.965  0.00  0.00    +0.000 A 
ATOM     37  C   UNL     1      -2.115   4.490 132.094  0.00  0.00    +0.000 A 
ATOM     38  C   UNL     1      -1.287   5.370 132.762  0.00  0.00    +0.000 A 
ATOM     39  C   UNL     1      -1.196   6.695 132.390  0.00  0.00    +0.000 A 
ATOM     40  C   UNL     1      -0.283   7.576 132.977  0.00  0.00    +0.000 A 
ATOM     41  C   UNL     1      -0.796   7.961 134.156  0.00  0.00    +0.000 A 
ATOM     42  C   UNL     1      -1.874   8.754 133.797  0.00  0.00    +0.000 A 
ATOM     43  C   UNL     1      -2.485   8.529 132.449  0.00  0.00    +0.000 A 
ATOM     44  C   UNL     1      -2.280   7.236 131.760  0.00  0.00    +0.000 A 
ATOM     45  C   UNL     1      -2.840   6.317 130.720  0.00  0.00    +0.000 A 
ENDBRANCH  35  36
ENDBRANCH  34  35
ENDBRANCH  32  34
ENDBRANCH  29  30
ENDBRANCH  10  29
TORSDOF 11
ENDMDL
MODEL 4
REMARK VINA RESULT:      -9.3      2.937      7.913
REMARK  Name = CHEMBL285312
REMARK  12 active torsions:
REMARK  status: ('A' for Active; 'I' for Inactive)
REMARK    1  A    between atoms: C_1  and  C_2
REMARK    2  A    between atoms: C_2  and  C_4
REMARK    3  A    between atoms: C_4  and  C_5
REMARK    4  A    between atoms: C_5  and  C_6
REMARK    5  A    between atoms: C_6  and  C_7
REMARK    6  A    between atoms: N_9  and  C_10
REMARK    7  A    between atoms: C_12  and  C_13
REMARK    8  A    between atoms: N_25  and  C_26
REMARK    9  A    between atoms: C_26  and  C_27
REMARK   10  A    between atoms: N_29  and  C_30
REMARK   11  A    between atoms: C_30  and  C_31
REMARK   12  A    between atoms: C_31  and  C_32
REMARK                            x       y       z     vdW  Elec       q    Type
REMARK                         _______ _______ _______ _____ _____    ______ ____
ROOT
ATOM      1  C   UNL     1      -6.045   1.765 126.129  0.00  0.00    +0.000 C 
ATOM      2  N   UNL     1      -6.651   0.515 125.679  0.00  0.00    +0.000 NA
ATOM      3  C   UNL     1      -6.505  -0.547 126.398  0.00  0.00    +0.000 C 
ATOM      4  C   UNL     1      -5.813  -0.601 127.724  0.00  0.00    +0.000 A 
ATOM      5  C   UNL     1      -5.116  -1.778 128.060  0.00  0.00    +0.000 A 
ATOM      6  C   UNL     1      -4.541  -1.936 129.321  0.00  0.00    +0.000 A 
ATOM      7  C   UNL     1      -4.584  -0.892 130.232  0.00  0.00    +0.000 A 
ATOM      8  C   UNL     1      -5.203   0.307 129.880  0.00  0.00    +0.000 A 
ATOM      9  C   UNL     1      -5.910   0.436 128.671  0.00  0.00    +0.000 A 
ATOM     10  N   UNL     1      -6.801   1.545 128.523  0.00  0.00    +0.000 N 
ATOM     11  C   UNL     1      -6.873   2.287 127.342  0.00  0.00    +0.000 C 
ATOM     12  O   UNL     1      -7.527   3.338 127.275  0.00  0.00    +0.000 OA
ENDROOT
BRANCH   3  13
ATOM     13  C   UNL     1      -7.098  -1.813 125.869  0.00  0.00    +0.000 A 
ATOM     14  C   UNL     1      -6.456  -2.540 124.859  0.00  0.00    +0.000 A 
ATOM     15  C   UNL     1      -7.084  -3.665 124.313  0.00  0.00    +0.000 A 
ATOM     16  C   UNL     1      -8.300  -4.110 124.835  0.00  0.00    +0.000 A 
ATOM     17  C   UNL     1      -8.887  -3.440 125.908  0.00  0.00    +0.000 A 
ATOM     18  C   UNL     1      -8.313  -2.264 126.394  0.00  0.00    +0.000 A 
ENDBRANCH   3  13
BRANCH   1  21
ATOM     19  C   UNL     1      -5.160   3.697 124.887  0.00  0.00    +0.000 C 
ATOM     20  O   UNL     1      -4.222   3.838 125.688  0.00  0.00    +0.000 OA
ATOM     21  N   UNL     1      -6.107   2.722 125.034  0.00  0.00    +0.000 N 
ATOM     22  H   UNL     1      -6.906   2.652 124.414  0.00  0.00    +0.000 HD
BRANCH  19  23
ATOM     23  C   UNL     1      -5.338   4.623 123.689  0.00  0.00    +0.000 C 
BRANCH  23  24
ATOM     24  C   UNL     1      -6.037   3.875 122.548  0.00  0.00    +0.000 C 
BRANCH  24  25
ATOM     25  C   UNL     1      -5.284   3.904 121.221  0.00  0.00    +0.000 C 
BRANCH  25  27
ATOM     26  C   UNL     1      -5.589   5.471 119.189  0.00  0.00    +0.000 C 
ATOM     27  C   UNL     1      -6.175   4.427 120.099  0.00  0.00    +0.000 C 
ATOM     28  O   UNL     1      -7.327   4.027 119.923  0.00  0.00    +0.000 OA
ENDBRANCH  25  27
ENDBRANCH  24  25
ENDBRANCH  23  24
ENDBRANCH  19  23
ENDBRANCH   1  21
BRANCH  10  29
ATOM     29  C   UNL     1      -7.677   1.951 129.657  0.00  0.00    +0.000 C 
BRANCH  29  30
ATOM     30  C   UNL     1      -7.296   3.194 130.482  0.00  0.00    +0.000 C 
ATOM     31  O   UNL     1      -6.117   3.636 130.538  0.00  0.00    +0.000 OA
ATOM     32  N   UNL     1      -8.264   3.846 131.200  0.00  0.00    +0.000 N 
ATOM     33  H   UNL     1      -9.064   3.325 131.554  0.00  0.00    +0.000 HD
BRANCH  32  34
ATOM     34  C   UNL     1      -7.879   5.124 131.786  0.00  0.00    +0.000 C 
BRANCH  34  35
ATOM     35  C   UNL     1      -9.005   5.936 132.373  0.00  0.00    +0.000 C 
BRANCH  35  36
ATOM     36  C   UNL     1      -9.928   6.573 131.339  0.00  0.00    +0.000 A 
ATOM     37  C   UNL     1     -11.285   6.422 131.619  0.00  0.00    +0.000 A 
ATOM     38  C   UNL     1     -12.225   7.100 130.870  0.00  0.00    +0.000 A 
ATOM     39  C   UNL     1     -11.861   7.868 129.784  0.00  0.00    +0.000 A 
ATOM     40  C   UNL     1     -12.779   8.653 129.080  0.00  0.00    +0.000 A 
ATOM     41  C   UNL     1     -13.456   7.839 128.256  0.00  0.00    +0.000 A 
ATOM     42  C   UNL     1     -12.509   7.471 127.313  0.00  0.00    +0.000 A 
ATOM     43  C   UNL     1     -11.067   7.543 127.712  0.00  0.00    +0.000 A 
ATOM     44  C   UNL     1     -10.703   7.526 129.146  0.00  0.00    +0.000 A 
ATOM     45  C   UNL     1      -9.601   7.220 130.110  0.00  0.00    +0.000 A 
ENDBRANCH  35  36
ENDBRANCH  34  35
ENDBRANCH  32  34
ENDBRANCH  29  30
ENDBRANCH  10  29
TORSDOF 11
ENDMDL
MODEL 5
REMARK VINA RESULT:      -9.1      2.259      7.845
REMARK  Name = CHEMBL285312
REMARK  12 active torsions:
REMARK  status: ('A' for Active; 'I' for Inactive)
REMARK    1  A    between atoms: C_1  and  C_2
REMARK    2  A    between atoms: C_2  and  C_4
REMARK    3  A    between atoms: C_4  and  C_5
REMARK    4  A    between atoms: C_5  and  C_6
REMARK    5  A    between atoms: C_6  and  C_7
REMARK    6  A    between atoms: N_9  and  C_10
REMARK    7  A    between atoms: C_12  and  C_13
REMARK    8  A    between atoms: N_25  and  C_26
REMARK    9  A    between atoms: C_26  and  C_27
REMARK   10  A    between atoms: N_29  and  C_30
REMARK   11  A    between atoms: C_30  and  C_31
REMARK   12  A    between atoms: C_31  and  C_32
REMARK                            x       y       z     vdW  Elec       q    Type
REMARK                         _______ _______ _______ _____ _____    ______ ____
ROOT
ATOM      1  C   UNL     1      -5.821   1.041 127.875  0.00  0.00    +0.000 C 
ATOM      2  N   UNL     1      -6.425   0.113 126.922  0.00  0.00    +0.000 NA
ATOM      3  C   UNL     1      -6.971  -0.971 127.362  0.00  0.00    +0.000 C 
ATOM      4  C   UNL     1      -7.108  -1.340 128.806  0.00  0.00    +0.000 A 
ATOM      5  C   UNL     1      -7.041  -2.704 129.150  0.00  0.00    +0.000 A 
ATOM      6  C   UNL     1      -7.269  -3.126 130.460  0.00  0.00    +0.000 A 
ATOM      7  C   UNL     1      -7.486  -2.188 131.456  0.00  0.00    +0.000 A 
ATOM      8  C   UNL     1      -7.476  -0.830 131.141  0.00  0.00    +0.000 A 
ATOM      9  C   UNL     1      -7.390  -0.391 129.806  0.00  0.00    +0.000 A 
ATOM     10  N   UNL     1      -7.731   0.968 129.518  0.00  0.00    +0.000 N 
ATOM     11  C   UNL     1      -6.974   1.753 128.644  0.00  0.00    +0.000 C 
ATOM     12  O   UNL     1      -7.181   2.969 128.522  0.00  0.00    +0.000 OA
ENDROOT
BRANCH   3  13
ATOM     13  C   UNL     1      -7.528  -1.913 126.345  0.00  0.00    +0.000 A 
ATOM     14  C   UNL     1      -6.682  -2.607 125.471  0.00  0.00    +0.000 A 
ATOM     15  C   UNL     1      -7.237  -3.404 124.463  0.00  0.00    +0.000 A 
ATOM     16  C   UNL     1      -8.621  -3.576 124.388  0.00  0.00    +0.000 A 
ATOM     17  C   UNL     1      -9.453  -2.962 125.324  0.00  0.00    +0.000 A 
ATOM     18  C   UNL     1      -8.912  -2.092 126.272  0.00  0.00    +0.000 A 
ENDBRANCH   3  13
BRANCH   1  21
ATOM     19  C   UNL     1      -3.909   2.574 127.651  0.00  0.00    +0.000 C 
ATOM     20  O   UNL     1      -3.501   2.302 128.792  0.00  0.00    +0.000 OA
ATOM     21  N   UNL     1      -5.044   2.018 127.128  0.00  0.00    +0.000 N 
ATOM     22  H   UNL     1      -5.406   2.293 126.221  0.00  0.00    +0.000 HD
BRANCH  19  23
ATOM     23  C   UNL     1      -3.183   3.573 126.757  0.00  0.00    +0.000 C 
BRANCH  23  24
ATOM     24  C   UNL     1      -2.546   4.675 127.612  0.00  0.00    +0.000 C 
BRANCH  24  25
ATOM     25  C   UNL     1      -3.445   5.885 127.852  0.00  0.00    +0.000 C 
BRANCH  25  27
ATOM     26  C   UNL     1      -3.129   5.561 130.397  0.00  0.00    +0.000 C 
ATOM     27  C   UNL     1      -4.059   5.840 129.247  0.00  0.00    +0.000 C 
ATOM     28  O   UNL     1      -5.260   6.024 129.452  0.00  0.00    +0.000 OA
ENDBRANCH  25  27
ENDBRANCH  24  25
ENDBRANCH  23  24
ENDBRANCH  19  23
ENDBRANCH   1  21
BRANCH  10  29
ATOM     29  C   UNL     1      -8.914   1.592 130.171  0.00  0.00    +0.000 C 
BRANCH  29  30
ATOM     30  C   UNL     1      -8.686   2.619 131.296  0.00  0.00    +0.000 C 
ATOM     31  O   UNL     1      -8.556   2.284 132.504  0.00  0.00    +0.000 OA
ATOM     32  N   UNL     1      -8.636   3.953 130.987  0.00  0.00    +0.000 N 
ATOM     33  H   UNL     1      -9.158   4.303 130.186  0.00  0.00    +0.000 HD
BRANCH  32  34
ATOM     34  C   UNL     1      -8.215   4.846 132.060  0.00  0.00    +0.000 C 
BRANCH  34  35
ATOM     35  C   UNL     1      -9.271   5.792 132.570  0.00  0.00    +0.000 C 
BRANCH  35  36
ATOM     36  C   UNL     1     -10.067   6.498 131.477  0.00  0.00    +0.000 A 
ATOM     37  C   UNL     1     -11.449   6.428 131.645  0.00  0.00    +0.000 A 
ATOM     38  C   UNL     1     -12.282   7.173 130.835  0.00  0.00    +0.000 A 
ATOM     39  C   UNL     1     -11.785   7.930 129.795  0.00  0.00    +0.000 A 
ATOM     40  C   UNL     1     -12.593   8.780 129.034  0.00  0.00    +0.000 A 
ATOM     41  C   UNL     1     -13.249   8.020 128.144  0.00  0.00    +0.000 A 
ATOM     42  C   UNL     1     -12.253   7.605 127.274  0.00  0.00    +0.000 A 
ATOM     43  C   UNL     1     -10.847   7.582 127.788  0.00  0.00    +0.000 A 
ATOM     44  C   UNL     1     -10.602   7.525 129.246  0.00  0.00    +0.000 A 
ATOM     45  C   UNL     1      -9.603   7.139 130.290  0.00  0.00    +0.000 A 
ENDBRANCH  35  36
ENDBRANCH  34  35
ENDBRANCH  32  34
ENDBRANCH  29  30
ENDBRANCH  10  29
TORSDOF 11
ENDMDL
MODEL 6
REMARK VINA RESULT:      -9.0      2.515      5.952
REMARK  Name = CHEMBL285312
REMARK  12 active torsions:
REMARK  status: ('A' for Active; 'I' for Inactive)
REMARK    1  A    between atoms: C_1  and  C_2
REMARK    2  A    between atoms: C_2  and  C_4
REMARK    3  A    between atoms: C_4  and  C_5
REMARK    4  A    between atoms: C_5  and  C_6
REMARK    5  A    between atoms: C_6  and  C_7
REMARK    6  A    between atoms: N_9  and  C_10
REMARK    7  A    between atoms: C_12  and  C_13
REMARK    8  A    between atoms: N_25  and  C_26
REMARK    9  A    between atoms: C_26  and  C_27
REMARK   10  A    between atoms: N_29  and  C_30
REMARK   11  A    between atoms: C_30  and  C_31
REMARK   12  A    between atoms: C_31  and  C_32
REMARK                            x       y       z     vdW  Elec       q    Type
REMARK                         _______ _______ _______ _____ _____    ______ ____
ROOT
ATOM      1  C   UNL     1      -7.830   0.541 131.695  0.00  0.00    +0.000 C 
ATOM      2  N   UNL     1      -7.377  -0.643 132.420  0.00  0.00    +0.000 NA
ATOM      3  C   UNL     1      -7.297  -1.770 131.795  0.00  0.00    +0.000 C 
ATOM      4  C   UNL     1      -7.565  -1.964 130.335  0.00  0.00    +0.000 A 
ATOM      5  C   UNL     1      -8.123  -3.188 129.921  0.00  0.00    +0.000 A 
ATOM      6  C   UNL     1      -8.297  -3.477 128.568  0.00  0.00    +0.000 A 
ATOM      7  C   UNL     1      -7.992  -2.517 127.615  0.00  0.00    +0.000 A 
ATOM      8  C   UNL     1      -7.512  -1.272 128.019  0.00  0.00    +0.000 A 
ATOM      9  C   UNL     1      -7.197  -1.012 129.365  0.00  0.00    +0.000 A 
ATOM     10  N   UNL     1      -6.395   0.135 129.664  0.00  0.00    +0.000 N 
ATOM     11  C   UNL     1      -6.683   0.981 130.738  0.00  0.00    +0.000 C 
ATOM     12  O   UNL     1      -6.084   2.055 130.894  0.00  0.00    +0.000 OA
ENDROOT
BRANCH   3  13
ATOM     13  C   UNL     1      -6.880  -2.963 132.592  0.00  0.00    +0.000 A 
ATOM     14  C   UNL     1      -5.745  -3.701 132.237  0.00  0.00    +0.000 A 
ATOM     15  C   UNL     1      -5.436  -4.871 132.940  0.00  0.00    +0.000 A 
ATOM     16  C   UNL     1      -6.204  -5.248 134.044  0.00  0.00    +0.000 A 
ATOM     17  C   UNL     1      -7.274  -4.453 134.455  0.00  0.00    +0.000 A 
ATOM     18  C   UNL     1      -7.643  -3.338 133.701  0.00  0.00    +0.000 A 
ENDBRANCH   3  13
BRANCH   1  21
ATOM     19  C   UNL     1      -9.263   2.312 132.627  0.00  0.00    +0.000 C 
ATOM     20  O   UNL     1     -10.128   2.131 131.755  0.00  0.00    +0.000 OA
ATOM     21  N   UNL     1      -8.101   1.592 132.665  0.00  0.00    +0.000 N 
ATOM     22  H   UNL     1      -7.370   1.789 133.340  0.00  0.00    +0.000 HD
BRANCH  19  23
ATOM     23  C   UNL     1      -9.425   3.373 133.709  0.00  0.00    +0.000 C 
BRANCH  23  24
ATOM     24  C   UNL     1      -8.055   3.947 134.089  0.00  0.00    +0.000 C 
BRANCH  24  25
ATOM     25  C   UNL     1      -7.985   5.472 134.077  0.00  0.00    +0.000 C 
BRANCH  25  27
ATOM     26  C   UNL     1      -7.803   6.080 131.572  0.00  0.00    +0.000 C 
ATOM     27  C   UNL     1      -8.639   6.038 132.822  0.00  0.00    +0.000 C 
ATOM     28  O   UNL     1      -9.800   6.449 132.803  0.00  0.00    +0.000 OA
ENDBRANCH  25  27
ENDBRANCH  24  25
ENDBRANCH  23  24
ENDBRANCH  19  23
ENDBRANCH   1  21
BRANCH  10  29
ATOM     29  C   UNL     1      -5.225   0.468 128.805  0.00  0.00    +0.000 C 
BRANCH  29  30
ATOM     30  C   UNL     1      -5.399   1.506 127.681  0.00  0.00    +0.000 C 
ATOM     31  O   UNL     1      -4.518   1.709 126.803  0.00  0.00    +0.000 OA
ATOM     32  N   UNL     1      -6.546   2.255 127.630  0.00  0.00    +0.000 N 
ATOM     33  H   UNL     1      -7.045   2.468 128.492  0.00  0.00    +0.000 HD
BRANCH  32  34
ATOM     34  C   UNL     1      -6.733   3.064 126.432  0.00  0.00    +0.000 C 
BRANCH  34  35
ATOM     35  C   UNL     1      -7.937   2.718 125.596  0.00  0.00    +0.000 C 
BRANCH  35  36
ATOM     36  C   UNL     1      -7.926   1.301 125.030  0.00  0.00    +0.000 A 
ATOM     37  C   UNL     1      -9.074   0.565 125.319  0.00  0.00    +0.000 A 
ATOM     38  C   UNL     1      -9.277  -0.661 124.719  0.00  0.00    +0.000 A 
ATOM     39  C   UNL     1      -8.325  -1.226 123.898  0.00  0.00    +0.000 A 
ATOM     40  C   UNL     1      -8.553  -2.411 123.191  0.00  0.00    +0.000 A 
ATOM     41  C   UNL     1      -8.390  -3.429 124.050  0.00  0.00    +0.000 A 
ATOM     42  C   UNL     1      -7.028  -3.425 124.304  0.00  0.00    +0.000 A 
ATOM     43  C   UNL     1      -6.287  -2.140 124.100  0.00  0.00    +0.000 A 
ATOM     44  C   UNL     1      -7.027  -0.859 124.111  0.00  0.00    +0.000 A 
ATOM     45  C   UNL     1      -6.890   0.615 124.329  0.00  0.00    +0.000 A 
ENDBRANCH  35  36
ENDBRANCH  34  35
ENDBRANCH  32  34
ENDBRANCH  29  30
ENDBRANCH  10  29
TORSDOF 11
ENDMDL
MODEL 7
REMARK VINA RESULT:      -8.9      2.169      7.679
REMARK  Name = CHEMBL285312
REMARK  12 active torsions:
REMARK  status: ('A' for Active; 'I' for Inactive)
REMARK    1  A    between atoms: C_1  and  C_2
REMARK    2  A    between atoms: C_2  and  C_4
REMARK    3  A    between atoms: C_4  and  C_5
REMARK    4  A    between atoms: C_5  and  C_6
REMARK    5  A    between atoms: C_6  and  C_7
REMARK    6  A    between atoms: N_9  and  C_10
REMARK    7  A    between atoms: C_12  and  C_13
REMARK    8  A    between atoms: N_25  and  C_26
REMARK    9  A    between atoms: C_26  and  C_27
REMARK   10  A    between atoms: N_29  and  C_30
REMARK   11  A    between atoms: C_30  and  C_31
REMARK   12  A    between atoms: C_31  and  C_32
REMARK                            x       y       z     vdW  Elec       q    Type
REMARK                         _______ _______ _______ _____ _____    ______ ____
ROOT
ATOM      1  C   UNL     1      -6.255   1.508 127.492  0.00  0.00    +0.000 C 
ATOM      2  N   UNL     1      -6.828   0.449 126.666  0.00  0.00    +0.000 NA
ATOM      3  C   UNL     1      -6.984  -0.728 127.174  0.00  0.00    +0.000 C 
ATOM      4  C   UNL     1      -6.691  -1.097 128.595  0.00  0.00    +0.000 A 
ATOM      5  C   UNL     1      -6.226  -2.400 128.857  0.00  0.00    +0.000 A 
ATOM      6  C   UNL     1      -6.037  -2.844 130.166  0.00  0.00    +0.000 A 
ATOM      7  C   UNL     1      -6.232  -1.970 131.224  0.00  0.00    +0.000 A 
ATOM      8  C   UNL     1      -6.616  -0.654 130.970  0.00  0.00    +0.000 A 
ATOM      9  C   UNL     1      -6.948  -0.228 129.671  0.00  0.00    +0.000 A 
ATOM     10  N   UNL     1      -7.658   1.006 129.524  0.00  0.00    +0.000 N 
ATOM     11  C   UNL     1      -7.332   1.935 128.533  0.00  0.00    +0.000 C 
ATOM     12  O   UNL     1      -7.843   3.065 128.512  0.00  0.00    +0.000 OA
ENDROOT
BRANCH   3  13
ATOM     13  C   UNL     1      -7.524  -1.792 126.274  0.00  0.00    +0.000 A 
ATOM     14  C   UNL     1      -6.691  -2.448 125.359  0.00  0.00    +0.000 A 
ATOM     15  C   UNL     1      -7.244  -3.366 124.460  0.00  0.00    +0.000 A 
ATOM     16  C   UNL     1      -8.601  -3.691 124.535  0.00  0.00    +0.000 A 
ATOM     17  C   UNL     1      -9.404  -3.108 125.515  0.00  0.00    +0.000 A 
ATOM     18  C   UNL     1      -8.880  -2.122 126.352  0.00  0.00    +0.000 A 
ENDBRANCH   3  13
BRANCH   1  21
ATOM     19  C   UNL     1      -4.632   2.906 126.280  0.00  0.00    +0.000 C 
ATOM     20  O   UNL     1      -3.675   2.237 126.704  0.00  0.00    +0.000 OA
ATOM     21  N   UNL     1      -5.926   2.631 126.627  0.00  0.00    +0.000 N 
ATOM     22  H   UNL     1      -6.696   3.219 126.330  0.00  0.00    +0.000 HD
BRANCH  19  23
ATOM     23  C   UNL     1      -4.429   4.102 125.358  0.00  0.00    +0.000 C 
BRANCH  23  24
ATOM     24  C   UNL     1      -5.765   4.512 124.729  0.00  0.00    +0.000 C 
BRANCH  24  25
ATOM     25  C   UNL     1      -5.917   4.126 123.260  0.00  0.00    +0.000 C 
BRANCH  25  27
ATOM     26  C   UNL     1      -7.897   3.319 121.809  0.00  0.00    +0.000 C 
ATOM     27  C   UNL     1      -7.085   3.166 123.066  0.00  0.00    +0.000 C 
ATOM     28  O   UNL     1      -7.373   2.293 123.887  0.00  0.00    +0.000 OA
ENDBRANCH  25  27
ENDBRANCH  24  25
ENDBRANCH  23  24
ENDBRANCH  19  23
ENDBRANCH   1  21
BRANCH  10  29
ATOM     29  C   UNL     1      -8.770   1.339 130.457  0.00  0.00    +0.000 C 
BRANCH  29  30
ATOM     30  C   UNL     1      -8.533   2.402 131.545  0.00  0.00    +0.000 C 
ATOM     31  O   UNL     1      -8.039   2.123 132.671  0.00  0.00    +0.000 OA
ATOM     32  N   UNL     1      -8.882   3.704 131.299  0.00  0.00    +0.000 N 
ATOM     33  H   UNL     1      -9.650   3.907 130.661  0.00  0.00    +0.000 HD
BRANCH  32  34
ATOM     34  C   UNL     1      -8.444   4.685 132.285  0.00  0.00    +0.000 C 
BRANCH  34  35
ATOM     35  C   UNL     1      -9.490   5.679 132.722  0.00  0.00    +0.000 C 
BRANCH  35  36
ATOM     36  C   UNL     1     -10.175   6.418 131.577  0.00  0.00    +0.000 A 
ATOM     37  C   UNL     1     -11.566   6.420 131.654  0.00  0.00    +0.000 A 
ATOM     38  C   UNL     1     -12.305   7.202 130.789  0.00  0.00    +0.000 A 
ATOM     39  C   UNL     1     -11.702   7.926 129.782  0.00  0.00    +0.000 A 
ATOM     40  C   UNL     1     -12.414   8.811 128.967  0.00  0.00    +0.000 A 
ATOM     41  C   UNL     1     -13.049   8.081 128.037  0.00  0.00    +0.000 A 
ATOM     42  C   UNL     1     -12.021   7.611 127.236  0.00  0.00    +0.000 A 
ATOM     43  C   UNL     1     -10.654   7.519 127.842  0.00  0.00    +0.000 A 
ATOM     44  C   UNL     1     -10.508   7.458 129.313  0.00  0.00    +0.000 A 
ATOM     45  C   UNL     1      -9.601   7.027 130.421  0.00  0.00    +0.000 A 
ENDBRANCH  35  36
ENDBRANCH  34  35
ENDBRANCH  32  34
ENDBRANCH  29  30
ENDBRANCH  10  29
TORSDOF 11
ENDMDL
MODEL 8
REMARK VINA RESULT:      -8.8      1.384      1.740
REMARK  Name = CHEMBL285312
REMARK  12 active torsions:
REMARK  status: ('A' for Active; 'I' for Inactive)
REMARK    1  A    between atoms: C_1  and  C_2
REMARK    2  A    between atoms: C_2  and  C_4
REMARK    3  A    between atoms: C_4  and  C_5
REMARK    4  A    between atoms: C_5  and  C_6
REMARK    5  A    between atoms: C_6  and  C_7
REMARK    6  A    between atoms: N_9  and  C_10
REMARK    7  A    between atoms: C_12  and  C_13
REMARK    8  A    between atoms: N_25  and  C_26
REMARK    9  A    between atoms: C_26  and  C_27
REMARK   10  A    between atoms: N_29  and  C_30
REMARK   11  A    between atoms: C_30  and  C_31
REMARK   12  A    between atoms: C_31  and  C_32
REMARK                            x       y       z     vdW  Elec       q    Type
REMARK                         _______ _______ _______ _____ _____    ______ ____
ROOT
ATOM      1  C   UNL     1      -7.345   4.407 129.548  0.00  0.00    +0.000 C 
ATOM      2  N   UNL     1      -7.883   3.503 128.535  0.00  0.00    +0.000 NA
ATOM      3  C   UNL     1      -7.100   3.059 127.610  0.00  0.00    +0.000 C 
ATOM      4  C   UNL     1      -5.632   3.336 127.520  0.00  0.00    +0.000 A 
ATOM      5  C   UNL     1      -5.053   3.434 126.240  0.00  0.00    +0.000 A 
ATOM      6  C   UNL     1      -3.675   3.583 126.085  0.00  0.00    +0.000 A 
ATOM      7  C   UNL     1      -2.868   3.716 127.204  0.00  0.00    +0.000 A 
ATOM      8  C   UNL     1      -3.440   3.699 128.474  0.00  0.00    +0.000 A 
ATOM      9  C   UNL     1      -4.805   3.410 128.657  0.00  0.00    +0.000 A 
ATOM     10  N   UNL     1      -5.254   3.066 129.971  0.00  0.00    +0.000 N 
ATOM     11  C   UNL     1      -6.444   3.569 130.503  0.00  0.00    +0.000 C 
ATOM     12  O   UNL     1      -6.745   3.395 131.693  0.00  0.00    +0.000 OA
ENDROOT
BRANCH   3  13
ATOM     13  C   UNL     1      -7.709   2.180 126.566  0.00  0.00    +0.000 A 
ATOM     14  C   UNL     1      -8.610   1.168 126.917  0.00  0.00    +0.000 A 
ATOM     15  C   UNL     1      -9.085   0.296 125.932  0.00  0.00    +0.000 A 
ATOM     16  C   UNL     1      -8.734   0.492 124.594  0.00  0.00    +0.000 A 
ATOM     17  C   UNL     1      -7.917   1.564 124.237  0.00  0.00    +0.000 A 
ATOM     18  C   UNL     1      -7.364   2.379 125.226  0.00  0.00    +0.000 A 
ENDBRANCH   3  13
BRANCH   1  21
ATOM     19  C   UNL     1      -8.437   6.272 130.727  0.00  0.00    +0.000 C 
ATOM     20  O   UNL     1      -7.459   7.016 130.545  0.00  0.00    +0.000 OA
ATOM     21  N   UNL     1      -8.461   4.976 130.289  0.00  0.00    +0.000 N 
ATOM     22  H   UNL     1      -9.235   4.355 130.496  0.00  0.00    +0.000 HD
BRANCH  19  23
ATOM     23  C   UNL     1      -9.676   6.745 131.477  0.00  0.00    +0.000 C 
BRANCH  23  24
ATOM     24  C   UNL     1     -10.894   5.917 131.051  0.00  0.00    +0.000 C 
BRANCH  24  25
ATOM     25  C   UNL     1     -12.215   6.681 131.076  0.00  0.00    +0.000 C 
BRANCH  25  27
ATOM     26  C   UNL     1     -11.912   7.160 128.554  0.00  0.00    +0.000 C 
ATOM     27  C   UNL     1     -12.296   7.668 129.917  0.00  0.00    +0.000 C 
ATOM     28  O   UNL     1     -12.659   8.837 130.062  0.00  0.00    +0.000 OA
ENDBRANCH  25  27
ENDBRANCH  24  25
ENDBRANCH  23  24
ENDBRANCH  19  23
ENDBRANCH   1  21
BRANCH  10  29
ATOM     29  C   UNL     1      -4.435   2.160 130.823  0.00  0.00    +0.000 C 
BRANCH  29  30
ATOM     30  C   UNL     1      -4.611   0.637 130.672  0.00  0.00    +0.000 C 
ATOM     31  O   UNL     1      -4.838  -0.120 131.654  0.00  0.00    +0.000 OA
ATOM     32  N   UNL     1      -4.504   0.069 129.430  0.00  0.00    +0.000 N 
ATOM     33  H   UNL     1      -3.907   0.503 128.729  0.00  0.00    +0.000 HD
BRANCH  32  34
ATOM     34  C   UNL     1      -4.883  -1.335 129.331  0.00  0.00    +0.000 C 
BRANCH  34  35
ATOM     35  C   UNL     1      -6.264  -1.599 128.787  0.00  0.00    +0.000 C 
BRANCH  35  36
ATOM     36  C   UNL     1      -6.309  -1.877 127.288  0.00  0.00    +0.000 A 
ATOM     37  C   UNL     1      -5.613  -0.948 126.517  0.00  0.00    +0.000 A 
ATOM     38  C   UNL     1      -5.417  -1.176 125.170  0.00  0.00    +0.000 A 
ATOM     39  C   UNL     1      -5.972  -2.270 124.538  0.00  0.00    +0.000 A 
ATOM     40  C   UNL     1      -5.697  -2.584 123.204  0.00  0.00    +0.000 A 
ATOM     41  C   UNL     1      -6.452  -1.780 122.438  0.00  0.00    +0.000 A 
ATOM     42  C   UNL     1      -7.740  -2.244 122.653  0.00  0.00    +0.000 A 
ATOM     43  C   UNL     1      -8.011  -2.978 123.929  0.00  0.00    +0.000 A 
ATOM     44  C   UNL     1      -7.110  -2.790 125.087  0.00  0.00    +0.000 A 
ATOM     45  C   UNL     1      -7.017  -2.891 126.577  0.00  0.00    +0.000 A 
ENDBRANCH  35  36
ENDBRANCH  34  35
ENDBRANCH  32  34
ENDBRANCH  29  30
ENDBRANCH  10  29
TORSDOF 11
ENDMDL
MODEL 9
REMARK VINA RESULT:      -8.5      2.969      8.294
REMARK  Name = CHEMBL285312
REMARK  12 active torsions:
REMARK  status: ('A' for Active; 'I' for Inactive)
REMARK    1  A    between atoms: C_1  and  C_2
REMARK    2  A    between atoms: C_2  and  C_4
REMARK    3  A    between atoms: C_4  and  C_5
REMARK    4  A    between atoms: C_5  and  C_6
REMARK    5  A    between atoms: C_6  and  C_7
REMARK    6  A    between atoms: N_9  and  C_10
REMARK    7  A    between atoms: C_12  and  C_13
REMARK    8  A    between atoms: N_25  and  C_26
REMARK    9  A    between atoms: C_26  and  C_27
REMARK   10  A    between atoms: N_29  and  C_30
REMARK   11  A    between atoms: C_30  and  C_31
REMARK   12  A    between atoms: C_31  and  C_32
REMARK                            x       y       z     vdW  Elec       q    Type
REMARK                         _______ _______ _______ _____ _____    ______ ____
ROOT
ATOM      1  C   UNL     1      -7.906  -0.187 127.574  0.00  0.00    +0.000 C 
ATOM      2  N   UNL     1      -6.666   0.522 127.266  0.00  0.00    +0.000 NA
ATOM      3  C   UNL     1      -6.507   1.726 127.704  0.00  0.00    +0.000 C 
ATOM      4  C   UNL     1      -7.472   2.456 128.585  0.00  0.00    +0.000 A 
ATOM      5  C   UNL     1      -7.584   3.851 128.430  0.00  0.00    +0.000 A 
ATOM      6  C   UNL     1      -8.383   4.607 129.289  0.00  0.00    +0.000 A 
ATOM      7  C   UNL     1      -9.141   3.971 130.260  0.00  0.00    +0.000 A 
ATOM      8  C   UNL     1      -9.097   2.582 130.370  0.00  0.00    +0.000 A 
ATOM      9  C   UNL     1      -8.194   1.817 129.610  0.00  0.00    +0.000 A 
ATOM     10  N   UNL     1      -7.950   0.465 130.008  0.00  0.00    +0.000 N 
ATOM     11  C   UNL     1      -7.869  -0.578 129.082  0.00  0.00    +0.000 C 
ATOM     12  O   UNL     1      -7.817  -1.763 129.443  0.00  0.00    +0.000 OA
ENDROOT
BRANCH   3  13
ATOM     13  C   UNL     1      -5.245   2.428 127.319  0.00  0.00    +0.000 A 
ATOM     14  C   UNL     1      -4.125   2.404 128.159  0.00  0.00    +0.000 A 
ATOM     15  C   UNL     1      -2.993   3.154 127.821  0.00  0.00    +0.000 A 
ATOM     16  C   UNL     1      -2.949   3.848 126.609  0.00  0.00    +0.000 A 
ATOM     17  C   UNL     1      -4.030   3.786 125.730  0.00  0.00    +0.000 A 
ATOM     18  C   UNL     1      -5.197   3.119 126.104  0.00  0.00    +0.000 A 
ENDBRANCH   3  13
BRANCH   1  21
ATOM     19  C   UNL     1      -8.909  -1.534 125.775  0.00  0.00    +0.000 C 
ATOM     20  O   UNL     1      -9.784  -0.677 125.563  0.00  0.00    +0.000 OA
ATOM     21  N   UNL     1      -7.962  -1.385 126.750  0.00  0.00    +0.000 N 
ATOM     22  H   UNL     1      -7.291  -2.115 126.961  0.00  0.00    +0.000 HD
BRANCH  19  23
ATOM     23  C   UNL     1      -8.846  -2.830 124.976  0.00  0.00    +0.000 C 
BRANCH  23  24
ATOM     24  C   UNL     1      -7.660  -2.790 124.006  0.00  0.00    +0.000 C 
BRANCH  24  25
ATOM     25  C   UNL     1      -6.503  -3.710 124.386  0.00  0.00    +0.000 C 
BRANCH  25  27
ATOM     26  C   UNL     1      -4.140  -4.422 123.617  0.00  0.00    +0.000 C 
ATOM     27  C   UNL     1      -5.295  -3.467 123.487  0.00  0.00    +0.000 C 
ATOM     28  O   UNL     1      -5.243  -2.538 122.679  0.00  0.00    +0.000 OA
ENDBRANCH  25  27
ENDBRANCH  24  25
ENDBRANCH  23  24
ENDBRANCH  19  23
ENDBRANCH   1  21
BRANCH  10  29
ATOM     29  C   UNL     1      -7.794   0.131 131.451  0.00  0.00    +0.000 C 
BRANCH  29  30
ATOM     30  C   UNL     1      -6.466   0.475 132.153  0.00  0.00    +0.000 C 
ATOM     31  O   UNL     1      -6.188   0.069 133.314  0.00  0.00    +0.000 OA
ATOM     32  N   UNL     1      -5.550   1.263 131.508  0.00  0.00    +0.000 N 
ATOM     33  H   UNL     1      -5.869   1.955 130.832  0.00  0.00    +0.000 HD
BRANCH  32  34
ATOM     34  C   UNL     1      -4.241   1.377 132.140  0.00  0.00    +0.000 C 
BRANCH  34  35
ATOM     35  C   UNL     1      -3.983   2.669 132.872  0.00  0.00    +0.000 C 
BRANCH  35  36
ATOM     36  C   UNL     1      -3.776   3.877 131.963  0.00  0.00    +0.000 A 
ATOM     37  C   UNL     1      -4.873   4.176 131.157  0.00  0.00    +0.000 A 
ATOM     38  C   UNL     1      -4.892   5.345 130.423  0.00  0.00    +0.000 A 
ATOM     39  C   UNL     1      -3.808   6.196 130.397  0.00  0.00    +0.000 A 
ATOM     40  C   UNL     1      -3.844   7.437 129.755  0.00  0.00    +0.000 A 
ATOM     41  C   UNL     1      -3.679   7.215 128.442  0.00  0.00    +0.000 A 
ATOM     42  C   UNL     1      -2.358   6.806 128.346  0.00  0.00    +0.000 A 
ATOM     43  C   UNL     1      -1.726   6.209 129.565  0.00  0.00    +0.000 A 
ATOM     44  C   UNL     1      -2.581   5.642 130.631  0.00  0.00    +0.000 A 
ATOM     45  C   UNL     1      -2.610   4.678 131.773  0.00  0.00    +0.000 A 
ENDBRANCH  35  36
ENDBRANCH  34  35
ENDBRANCH  32  34
ENDBRANCH  29  30
ENDBRANCH  10  29
TORSDOF 11
ENDMDL
