MODEL 1
REMARK VINA RESULT:      -7.9      0.000      0.000
REMARK  Name = CHEMBL1092098
REMARK  6 active torsions:
REMARK  status: ('A' for Active; 'I' for Inactive)
REMARK    1  A    between atoms: C_1  and  O_2
REMARK    2  A    between atoms: O_2  and  C_3
REMARK    3  A    between atoms: C_6  and  N_7
REMARK    4  A    between atoms: N_7  and  C_8
REMARK    5  A    between atoms: C_9  and  C_11
REMARK    6  A    between atoms: C_14  and  C_15
REMARK                            x       y       z     vdW  Elec       q    Type
REMARK                         _______ _______ _______ _____ _____    ______ ____
ROOT
ATOM      1  N   UNL     1     -10.092   5.355 130.475  0.00  0.00    +0.000 N 
ATOM      2  C   UNL     1      -8.679   5.544 130.834  0.00  0.00    +0.000 C 
ATOM      3  C   UNL     1     -10.620   4.046 130.315  0.00  0.00    +0.000 C 
ATOM      4  O   UNL     1     -11.757   3.761 129.912  0.00  0.00    +0.000 OA
ENDROOT
BRANCH   1   8
ATOM      5  C   UNL     1     -12.425   8.825 129.659  0.00  0.00    +0.000 A 
ATOM      6  C   UNL     1     -12.721   8.067 130.772  0.00  0.00    +0.000 A 
ATOM      7  C   UNL     1     -11.949   6.936 131.049  0.00  0.00    +0.000 A 
ATOM      8  C   UNL     1     -10.898   6.540 130.217  0.00  0.00    +0.000 A 
ATOM      9  C   UNL     1     -10.706   7.385 129.117  0.00  0.00    +0.000 A 
ATOM     10  N   UNL     1     -11.432   8.498 128.819  0.00  0.00    +0.000 NA
BRANCH   5  12
ATOM     11  C   UNL     1     -13.399  10.859 130.296  0.00  0.00    +0.000 C 
ATOM     12  O   UNL     1     -13.161   9.908 129.267  0.00  0.00    +0.000 OA
ENDBRANCH   5  12
ENDBRANCH   1   8
BRANCH   3  13
ATOM     13  C   UNL     1      -9.821   2.842 130.652  0.00  0.00    +0.000 A 
ATOM     14  C   UNL     1      -8.951   2.312 129.688  0.00  0.00    +0.000 A 
ATOM     15  C   UNL     1      -8.330   1.085 129.917  0.00  0.00    +0.000 A 
ATOM     16  C   UNL     1      -8.480   0.418 131.145  0.00  0.00    +0.000 A 
ATOM     17  C   UNL     1      -9.360   0.948 132.091  0.00  0.00    +0.000 A 
ATOM     18  C   UNL     1     -10.063   2.116 131.818  0.00  0.00    +0.000 A 
BRANCH  16  19
ATOM     19  C   UNL     1      -7.767  -0.831 131.400  0.00  0.00    +0.000 A 
ATOM     20  C   UNL     1      -7.710  -1.828 130.415  0.00  0.00    +0.000 A 
ATOM     21  C   UNL     1      -7.182  -3.082 130.706  0.00  0.00    +0.000 A 
ATOM     22  C   UNL     1      -6.625  -3.326 131.959  0.00  0.00    +0.000 A 
ATOM     23  C   UNL     1      -6.610  -2.322 132.926  0.00  0.00    +0.000 A 
ATOM     24  C   UNL     1      -7.180  -1.081 132.649  0.00  0.00    +0.000 A 
ENDBRANCH  16  19
ENDBRANCH   3  13
TORSDOF 4
ENDMDL
MODEL 2
REMARK VINA RESULT:      -7.7      6.838      8.059
REMARK  Name = CHEMBL1092098
REMARK  6 active torsions:
REMARK  status: ('A' for Active; 'I' for Inactive)
REMARK    1  A    between atoms: C_1  and  O_2
REMARK    2  A    between atoms: O_2  and  C_3
REMARK    3  A    between atoms: C_6  and  N_7
REMARK    4  A    between atoms: N_7  and  C_8
REMARK    5  A    between atoms: C_9  and  C_11
REMARK    6  A    between atoms: C_14  and  C_15
REMARK                            x       y       z     vdW  Elec       q    Type
REMARK                         _______ _______ _______ _____ _____    ______ ____
ROOT
ATOM      1  N   UNL     1      -7.061   2.148 123.844  0.00  0.00    +0.000 N 
ATOM      2  C   UNL     1      -6.903   2.986 125.041  0.00  0.00    +0.000 C 
ATOM      3  C   UNL     1      -6.973   0.734 123.944  0.00  0.00    +0.000 C 
ATOM      4  O   UNL     1      -6.982  -0.068 122.998  0.00  0.00    +0.000 OA
ENDROOT
BRANCH   1   8
ATOM      5  C   UNL     1      -7.502   4.084 120.074  0.00  0.00    +0.000 A 
ATOM      6  C   UNL     1      -8.632   3.707 120.768  0.00  0.00    +0.000 A 
ATOM      7  C   UNL     1      -8.490   3.084 122.010  0.00  0.00    +0.000 A 
ATOM      8  C   UNL     1      -7.234   2.813 122.560  0.00  0.00    +0.000 A 
ATOM      9  C   UNL     1      -6.169   3.235 121.755  0.00  0.00    +0.000 A 
ATOM     10  N   UNL     1      -6.268   3.851 120.544  0.00  0.00    +0.000 NA
BRANCH   5  12
ATOM     11  C   UNL     1      -6.370   5.382 118.484  0.00  0.00    +0.000 C 
ATOM     12  O   UNL     1      -7.533   4.638 118.825  0.00  0.00    +0.000 OA
ENDBRANCH   5  12
ENDBRANCH   1   8
BRANCH   3  13
ATOM     13  C   UNL     1      -6.874   0.055 125.260  0.00  0.00    +0.000 A 
ATOM     14  C   UNL     1      -5.605  -0.218 125.790  0.00  0.00    +0.000 A 
ATOM     15  C   UNL     1      -5.488  -1.011 126.931  0.00  0.00    +0.000 A 
ATOM     16  C   UNL     1      -6.629  -1.455 127.620  0.00  0.00    +0.000 A 
ATOM     17  C   UNL     1      -7.886  -1.189 127.074  0.00  0.00    +0.000 A 
ATOM     18  C   UNL     1      -7.998  -0.492 125.877  0.00  0.00    +0.000 A 
BRANCH  16  19
ATOM     19  C   UNL     1      -6.494  -2.225 128.854  0.00  0.00    +0.000 A 
ATOM     20  C   UNL     1      -5.343  -2.992 129.089  0.00  0.00    +0.000 A 
ATOM     21  C   UNL     1      -5.278  -3.857 130.176  0.00  0.00    +0.000 A 
ATOM     22  C   UNL     1      -6.327  -3.901 131.092  0.00  0.00    +0.000 A 
ATOM     23  C   UNL     1      -7.447  -3.092 130.911  0.00  0.00    +0.000 A 
ATOM     24  C   UNL     1      -7.532  -2.260 129.797  0.00  0.00    +0.000 A 
ENDBRANCH  16  19
ENDBRANCH   3  13
TORSDOF 4
ENDMDL
MODEL 3
REMARK VINA RESULT:      -7.3      7.166      9.752
REMARK  Name = CHEMBL1092098
REMARK  6 active torsions:
REMARK  status: ('A' for Active; 'I' for Inactive)
REMARK    1  A    between atoms: C_1  and  O_2
REMARK    2  A    between atoms: O_2  and  C_3
REMARK    3  A    between atoms: C_6  and  N_7
REMARK    4  A    between atoms: N_7  and  C_8
REMARK    5  A    between atoms: C_9  and  C_11
REMARK    6  A    between atoms: C_14  and  C_15
REMARK                            x       y       z     vdW  Elec       q    Type
REMARK                         _______ _______ _______ _____ _____    ______ ____
ROOT
ATOM      1  N   UNL     1      -7.519  -1.904 131.850  0.00  0.00    +0.000 N 
ATOM      2  C   UNL     1      -8.341  -0.771 131.403  0.00  0.00    +0.000 C 
ATOM      3  C   UNL     1      -7.112  -2.903 130.925  0.00  0.00    +0.000 C 
ATOM      4  O   UNL     1      -6.515  -3.954 131.199  0.00  0.00    +0.000 OA
ENDROOT
BRANCH   1   8
ATOM      5  C   UNL     1      -6.646  -2.249 136.006  0.00  0.00    +0.000 A 
ATOM      6  C   UNL     1      -5.786  -1.535 135.199  0.00  0.00    +0.000 A 
ATOM      7  C   UNL     1      -6.077  -1.410 133.839  0.00  0.00    +0.000 A 
ATOM      8  C   UNL     1      -7.205  -2.006 133.269  0.00  0.00    +0.000 A 
ATOM      9  C   UNL     1      -7.990  -2.710 134.189  0.00  0.00    +0.000 A 
ATOM     10  N   UNL     1      -7.744  -2.848 135.521  0.00  0.00    +0.000 NA
BRANCH   5  12
ATOM     11  C   UNL     1      -7.476  -2.086 138.192  0.00  0.00    +0.000 C 
ATOM     12  O   UNL     1      -6.416  -2.485 137.332  0.00  0.00    +0.000 OA
ENDBRANCH   5  12
ENDBRANCH   1   8
BRANCH   3  13
ATOM     13  C   UNL     1      -7.367  -2.759 129.470  0.00  0.00    +0.000 A 
ATOM     14  C   UNL     1      -8.489  -3.387 128.911  0.00  0.00    +0.000 A 
ATOM     15  C   UNL     1      -8.647  -3.416 127.526  0.00  0.00    +0.000 A 
ATOM     16  C   UNL     1      -7.752  -2.735 126.684  0.00  0.00    +0.000 A 
ATOM     17  C   UNL     1      -6.631  -2.127 127.251  0.00  0.00    +0.000 A 
ATOM     18  C   UNL     1      -6.416  -2.192 128.622  0.00  0.00    +0.000 A 
BRANCH  16  19
ATOM     19  C   UNL     1      -7.969  -2.713 125.239  0.00  0.00    +0.000 A 
ATOM     20  C   UNL     1      -7.014  -2.138 124.388  0.00  0.00    +0.000 A 
ATOM     21  C   UNL     1      -7.288  -1.960 123.035  0.00  0.00    +0.000 A 
ATOM     22  C   UNL     1      -8.483  -2.436 122.500  0.00  0.00    +0.000 A 
ATOM     23  C   UNL     1      -9.411  -3.074 123.321  0.00  0.00    +0.000 A 
ATOM     24  C   UNL     1      -9.157  -3.210 124.684  0.00  0.00    +0.000 A 
ENDBRANCH  16  19
ENDBRANCH   3  13
TORSDOF 4
ENDMDL
MODEL 4
REMARK VINA RESULT:      -7.2      1.524      2.454
REMARK  Name = CHEMBL1092098
REMARK  6 active torsions:
REMARK  status: ('A' for Active; 'I' for Inactive)
REMARK    1  A    between atoms: C_1  and  O_2
REMARK    2  A    between atoms: O_2  and  C_3
REMARK    3  A    between atoms: C_6  and  N_7
REMARK    4  A    between atoms: N_7  and  C_8
REMARK    5  A    between atoms: C_9  and  C_11
REMARK    6  A    between atoms: C_14  and  C_15
REMARK                            x       y       z     vdW  Elec       q    Type
REMARK                         _______ _______ _______ _____ _____    ______ ____
ROOT
ATOM      1  N   UNL     1      -9.164   3.740 130.967  0.00  0.00    +0.000 N 
ATOM      2  C   UNL     1      -8.539   3.657 132.294  0.00  0.00    +0.000 C 
ATOM      3  C   UNL     1      -9.048   2.659 130.052  0.00  0.00    +0.000 C 
ATOM      4  O   UNL     1      -9.435   2.653 128.875  0.00  0.00    +0.000 OA
ENDROOT
BRANCH   1   8
ATOM      5  C   UNL     1     -11.176   7.345 129.917  0.00  0.00    +0.000 A 
ATOM      6  C   UNL     1      -9.797   7.329 129.933  0.00  0.00    +0.000 A 
ATOM      7  C   UNL     1      -9.135   6.145 130.265  0.00  0.00    +0.000 A 
ATOM      8  C   UNL     1      -9.832   4.981 130.601  0.00  0.00    +0.000 A 
ATOM      9  C   UNL     1     -11.223   5.130 130.558  0.00  0.00    +0.000 A 
ATOM     10  N   UNL     1     -11.904   6.264 130.232  0.00  0.00    +0.000 NA
BRANCH   5  12
ATOM     11  C   UNL     1     -12.701   8.407 128.489  0.00  0.00    +0.000 C 
ATOM     12  O   UNL     1     -11.915   8.469 129.672  0.00  0.00    +0.000 OA
ENDBRANCH   5  12
ENDBRANCH   1   8
BRANCH   3  13
ATOM     13  C   UNL     1      -8.434   1.368 130.452  0.00  0.00    +0.000 A 
ATOM     14  C   UNL     1      -7.386   0.846 129.682  0.00  0.00    +0.000 A 
ATOM     15  C   UNL     1      -6.919  -0.444 129.933  0.00  0.00    +0.000 A 
ATOM     16  C   UNL     1      -7.414  -1.192 131.015  0.00  0.00    +0.000 A 
ATOM     17  C   UNL     1      -8.467  -0.667 131.765  0.00  0.00    +0.000 A 
ATOM     18  C   UNL     1      -9.006   0.574 131.446  0.00  0.00    +0.000 A 
BRANCH  16  19
ATOM     19  C   UNL     1      -6.866  -2.513 131.310  0.00  0.00    +0.000 A 
ATOM     20  C   UNL     1      -6.735  -2.946 132.638  0.00  0.00    +0.000 A 
ATOM     21  C   UNL     1      -6.061  -4.127 132.935  0.00  0.00    +0.000 A 
ATOM     22  C   UNL     1      -5.588  -4.934 131.903  0.00  0.00    +0.000 A 
ATOM     23  C   UNL     1      -5.774  -4.553 130.576  0.00  0.00    +0.000 A 
ATOM     24  C   UNL     1      -6.407  -3.347 130.280  0.00  0.00    +0.000 A 
ENDBRANCH  16  19
ENDBRANCH   3  13
TORSDOF 4
ENDMDL
MODEL 5
REMARK VINA RESULT:      -7.2      8.234     10.397
REMARK  Name = CHEMBL1092098
REMARK  6 active torsions:
REMARK  status: ('A' for Active; 'I' for Inactive)
REMARK    1  A    between atoms: C_1  and  O_2
REMARK    2  A    between atoms: O_2  and  C_3
REMARK    3  A    between atoms: C_6  and  N_7
REMARK    4  A    between atoms: N_7  and  C_8
REMARK    5  A    between atoms: C_9  and  C_11
REMARK    6  A    between atoms: C_14  and  C_15
REMARK                            x       y       z     vdW  Elec       q    Type
REMARK                         _______ _______ _______ _____ _____    ______ ____
ROOT
ATOM      1  N   UNL     1      -6.389  -3.679 131.667  0.00  0.00    +0.000 N 
ATOM      2  C   UNL     1      -5.651  -4.726 130.946  0.00  0.00    +0.000 C 
ATOM      3  C   UNL     1      -7.143  -2.712 130.949  0.00  0.00    +0.000 C 
ATOM      4  O   UNL     1      -7.715  -1.724 131.434  0.00  0.00    +0.000 OA
ENDROOT
BRANCH   1   8
ATOM      5  C   UNL     1      -5.953  -3.478 135.900  0.00  0.00    +0.000 A 
ATOM      6  C   UNL     1      -7.145  -3.924 135.371  0.00  0.00    +0.000 A 
ATOM      7  C   UNL     1      -7.286  -4.003 133.983  0.00  0.00    +0.000 A 
ATOM      8  C   UNL     1      -6.259  -3.622 133.116  0.00  0.00    +0.000 A 
ATOM      9  C   UNL     1      -5.106  -3.179 133.775  0.00  0.00    +0.000 A 
ATOM     10  N   UNL     1      -4.929  -3.095 135.123  0.00  0.00    +0.000 NA
BRANCH   5  12
ATOM     11  C   UNL     1      -6.883  -2.864 137.962  0.00  0.00    +0.000 C 
ATOM     12  O   UNL     1      -5.740  -3.302 137.238  0.00  0.00    +0.000 OA
ENDBRANCH   5  12
ENDBRANCH   1   8
BRANCH   3  13
ATOM     13  C   UNL     1      -7.337  -2.815 129.482  0.00  0.00    +0.000 A 
ATOM     14  C   UNL     1      -6.467  -2.120 128.630  0.00  0.00    +0.000 A 
ATOM     15  C   UNL     1      -6.739  -2.056 127.264  0.00  0.00    +0.000 A 
ATOM     16  C   UNL     1      -7.817  -2.767 126.710  0.00  0.00    +0.000 A 
ATOM     17  C   UNL     1      -8.685  -3.443 127.570  0.00  0.00    +0.000 A 
ATOM     18  C   UNL     1      -8.476  -3.415 128.943  0.00  0.00    +0.000 A 
BRANCH  16  19
ATOM     19  C   UNL     1      -8.049  -2.751 125.268  0.00  0.00    +0.000 A 
ATOM     20  C   UNL     1      -7.107  -2.174 124.405  0.00  0.00    +0.000 A 
ATOM     21  C   UNL     1      -7.395  -2.002 123.055  0.00  0.00    +0.000 A 
ATOM     22  C   UNL     1      -8.593  -2.485 122.534  0.00  0.00    +0.000 A 
ATOM     23  C   UNL     1      -9.510  -3.124 123.366  0.00  0.00    +0.000 A 
ATOM     24  C   UNL     1      -9.241  -3.255 124.727  0.00  0.00    +0.000 A 
ENDBRANCH  16  19
ENDBRANCH   3  13
TORSDOF 4
ENDMDL
MODEL 6
REMARK VINA RESULT:      -7.1      6.947      9.940
REMARK  Name = CHEMBL1092098
REMARK  6 active torsions:
REMARK  status: ('A' for Active; 'I' for Inactive)
REMARK    1  A    between atoms: C_1  and  O_2
REMARK    2  A    between atoms: O_2  and  C_3
REMARK    3  A    between atoms: C_6  and  N_7
REMARK    4  A    between atoms: N_7  and  C_8
REMARK    5  A    between atoms: C_9  and  C_11
REMARK    6  A    between atoms: C_14  and  C_15
REMARK                            x       y       z     vdW  Elec       q    Type
REMARK                         _______ _______ _______ _____ _____    ______ ____
ROOT
ATOM      1  N   UNL     1      -5.202   3.174 127.101  0.00  0.00    +0.000 N 
ATOM      2  C   UNL     1      -6.121   4.024 127.872  0.00  0.00    +0.000 C 
ATOM      3  C   UNL     1      -3.797   3.296 127.277  0.00  0.00    +0.000 C 
ATOM      4  O   UNL     1      -2.925   2.717 126.613  0.00  0.00    +0.000 OA
ENDROOT
BRANCH   1   8
ATOM      5  C   UNL     1      -6.875   0.486 124.251  0.00  0.00    +0.000 A 
ATOM      6  C   UNL     1      -6.744   1.818 123.917  0.00  0.00    +0.000 A 
ATOM      7  C   UNL     1      -6.184   2.698 124.846  0.00  0.00    +0.000 A 
ATOM      8  C   UNL     1      -5.771   2.271 126.111  0.00  0.00    +0.000 A 
ATOM      9  C   UNL     1      -5.967   0.903 126.330  0.00  0.00    +0.000 A 
ATOM     10  N   UNL     1      -6.501   0.013 125.448  0.00  0.00    +0.000 NA
BRANCH   5  12
ATOM     11  C   UNL     1      -6.561  -1.316 122.785  0.00  0.00    +0.000 C 
ATOM     12  O   UNL     1      -7.469  -0.440 123.440  0.00  0.00    +0.000 OA
ENDBRANCH   5  12
ENDBRANCH   1   8
BRANCH   3  13
ATOM     13  C   UNL     1      -3.221   4.159 128.338  0.00  0.00    +0.000 A 
ATOM     14  C   UNL     1      -3.400   3.796 129.681  0.00  0.00    +0.000 A 
ATOM     15  C   UNL     1      -3.028   4.681 130.692  0.00  0.00    +0.000 A 
ATOM     16  C   UNL     1      -2.378   5.890 130.389  0.00  0.00    +0.000 A 
ATOM     17  C   UNL     1      -2.219   6.246 129.049  0.00  0.00    +0.000 A 
ATOM     18  C   UNL     1      -2.690   5.413 128.040  0.00  0.00    +0.000 A 
BRANCH  16  19
ATOM     19  C   UNL     1      -1.928   6.775 131.460  0.00  0.00    +0.000 A 
ATOM     20  C   UNL     1      -2.751   7.817 131.911  0.00  0.00    +0.000 A 
ATOM     21  C   UNL     1      -2.266   8.765 132.807  0.00  0.00    +0.000 A 
ATOM     22  C   UNL     1      -0.983   8.631 133.331  0.00  0.00    +0.000 A 
ATOM     23  C   UNL     1      -0.178   7.561 132.947  0.00  0.00    +0.000 A 
ATOM     24  C   UNL     1      -0.647   6.638 132.014  0.00  0.00    +0.000 A 
ENDBRANCH  16  19
ENDBRANCH   3  13
TORSDOF 4
ENDMDL
MODEL 7
REMARK VINA RESULT:      -7.0      7.088      8.436
REMARK  Name = CHEMBL1092098
REMARK  6 active torsions:
REMARK  status: ('A' for Active; 'I' for Inactive)
REMARK    1  A    between atoms: C_1  and  O_2
REMARK    2  A    between atoms: O_2  and  C_3
REMARK    3  A    between atoms: C_6  and  N_7
REMARK    4  A    between atoms: N_7  and  C_8
REMARK    5  A    between atoms: C_9  and  C_11
REMARK    6  A    between atoms: C_14  and  C_15
REMARK                            x       y       z     vdW  Elec       q    Type
REMARK                         _______ _______ _______ _____ _____    ______ ____
ROOT
ATOM      1  N   UNL     1      -8.026  -2.675 127.712  0.00  0.00    +0.000 N 
ATOM      2  C   UNL     1      -8.897  -3.819 128.015  0.00  0.00    +0.000 C 
ATOM      3  C   UNL     1      -7.022  -2.275 128.635  0.00  0.00    +0.000 C 
ATOM      4  O   UNL     1      -6.304  -1.269 128.543  0.00  0.00    +0.000 OA
ENDROOT
BRANCH   1   8
ATOM      5  C   UNL     1      -8.756  -0.435 124.162  0.00  0.00    +0.000 A 
ATOM      6  C   UNL     1      -8.408  -1.765 124.054  0.00  0.00    +0.000 A 
ATOM      7  C   UNL     1      -8.181  -2.504 125.217  0.00  0.00    +0.000 A 
ATOM      8  C   UNL     1      -8.276  -1.928 126.487  0.00  0.00    +0.000 A 
ATOM      9  C   UNL     1      -8.625  -0.573 126.461  0.00  0.00    +0.000 A 
ATOM     10  N   UNL     1      -8.861   0.179 125.350  0.00  0.00    +0.000 NA
BRANCH   5  12
ATOM     11  C   UNL     1     -10.238   0.347 122.524  0.00  0.00    +0.000 C 
ATOM     12  O   UNL     1      -8.933   0.389 123.086  0.00  0.00    +0.000 OA
ENDBRANCH   5  12
ENDBRANCH   1   8
BRANCH   3  13
ATOM     13  C   UNL     1      -6.718  -3.080 129.844  0.00  0.00    +0.000 A 
ATOM     14  C   UNL     1      -7.342  -2.751 131.055  0.00  0.00    +0.000 A 
ATOM     15  C   UNL     1      -6.937  -3.374 132.235  0.00  0.00    +0.000 A 
ATOM     16  C   UNL     1      -5.983  -4.405 132.214  0.00  0.00    +0.000 A 
ATOM     17  C   UNL     1      -5.358  -4.714 131.005  0.00  0.00    +0.000 A 
ATOM     18  C   UNL     1      -5.683  -4.016 129.848  0.00  0.00    +0.000 A 
BRANCH  16  19
ATOM     19  C   UNL     1      -5.619  -5.099 133.447  0.00  0.00    +0.000 A 
ATOM     20  C   UNL     1      -4.342  -5.660 133.595  0.00  0.00    +0.000 A 
ATOM     21  C   UNL     1      -4.045  -6.466 134.690  0.00  0.00    +0.000 A 
ATOM     22  C   UNL     1      -4.993  -6.648 135.695  0.00  0.00    +0.000 A 
ATOM     23  C   UNL     1      -6.242  -6.039 135.596  0.00  0.00    +0.000 A 
ATOM     24  C   UNL     1      -6.555  -5.271 134.477  0.00  0.00    +0.000 A 
ENDBRANCH  16  19
ENDBRANCH   3  13
TORSDOF 4
ENDMDL
MODEL 8
REMARK VINA RESULT:      -7.0      1.715      2.450
REMARK  Name = CHEMBL1092098
REMARK  6 active torsions:
REMARK  status: ('A' for Active; 'I' for Inactive)
REMARK    1  A    between atoms: C_1  and  O_2
REMARK    2  A    between atoms: O_2  and  C_3
REMARK    3  A    between atoms: C_6  and  N_7
REMARK    4  A    between atoms: N_7  and  C_8
REMARK    5  A    between atoms: C_9  and  C_11
REMARK    6  A    between atoms: C_14  and  C_15
REMARK                            x       y       z     vdW  Elec       q    Type
REMARK                         _______ _______ _______ _____ _____    ______ ____
ROOT
ATOM      1  N   UNL     1      -9.960   5.965 130.678  0.00  0.00    +0.000 N 
ATOM      2  C   UNL     1      -8.665   6.415 131.207  0.00  0.00    +0.000 C 
ATOM      3  C   UNL     1     -10.295   4.584 130.684  0.00  0.00    +0.000 C 
ATOM      4  O   UNL     1     -11.301   4.073 130.172  0.00  0.00    +0.000 OA
ENDROOT
BRANCH   1   8
ATOM      5  C   UNL     1     -12.578   8.878 129.002  0.00  0.00    +0.000 A 
ATOM      6  C   UNL     1     -11.374   8.624 128.379  0.00  0.00    +0.000 A 
ATOM      7  C   UNL     1     -10.520   7.660 128.919  0.00  0.00    +0.000 A 
ATOM      8  C   UNL     1     -10.842   6.960 130.086  0.00  0.00    +0.000 A 
ATOM      9  C   UNL     1     -12.083   7.317 130.627  0.00  0.00    +0.000 A 
ATOM     10  N   UNL     1     -12.945   8.244 130.125  0.00  0.00    +0.000 NA
BRANCH   5  12
ATOM     11  C   UNL     1     -13.550  10.958 129.471  0.00  0.00    +0.000 C 
ATOM     12  O   UNL     1     -13.450   9.846 128.591  0.00  0.00    +0.000 OA
ENDBRANCH   5  12
ENDBRANCH   1   8
BRANCH   3  13
ATOM     13  C   UNL     1      -9.430   3.581 131.355  0.00  0.00    +0.000 A 
ATOM     14  C   UNL     1      -9.365   3.568 132.756  0.00  0.00    +0.000 A 
ATOM     15  C   UNL     1      -8.427   2.760 133.397  0.00  0.00    +0.000 A 
ATOM     16  C   UNL     1      -7.615   1.877 132.665  0.00  0.00    +0.000 A 
ATOM     17  C   UNL     1      -7.679   1.910 131.271  0.00  0.00    +0.000 A 
ATOM     18  C   UNL     1      -8.537   2.795 130.628  0.00  0.00    +0.000 A 
BRANCH  16  19
ATOM     19  C   UNL     1      -6.687   0.984 133.354  0.00  0.00    +0.000 A 
ATOM     20  C   UNL     1      -6.541  -0.346 132.935  0.00  0.00    +0.000 A 
ATOM     21  C   UNL     1      -5.791  -1.247 133.686  0.00  0.00    +0.000 A 
ATOM     22  C   UNL     1      -5.107  -0.807 134.817  0.00  0.00    +0.000 A 
ATOM     23  C   UNL     1      -5.186   0.529 135.206  0.00  0.00    +0.000 A 
ATOM     24  C   UNL     1      -5.974   1.420 134.480  0.00  0.00    +0.000 A 
ENDBRANCH  16  19
ENDBRANCH   3  13
TORSDOF 4
ENDMDL
MODEL 9
REMARK VINA RESULT:      -6.7      7.446      9.009
REMARK  Name = CHEMBL1092098
REMARK  6 active torsions:
REMARK  status: ('A' for Active; 'I' for Inactive)
REMARK    1  A    between atoms: C_1  and  O_2
REMARK    2  A    between atoms: O_2  and  C_3
REMARK    3  A    between atoms: C_6  and  N_7
REMARK    4  A    between atoms: N_7  and  C_8
REMARK    5  A    between atoms: C_9  and  C_11
REMARK    6  A    between atoms: C_14  and  C_15
REMARK                            x       y       z     vdW  Elec       q    Type
REMARK                         _______ _______ _______ _____ _____    ______ ____
ROOT
ATOM      1  N   UNL     1      -2.684   5.735 130.799  0.00  0.00    +0.000 N 
ATOM      2  C   UNL     1      -3.378   4.642 131.494  0.00  0.00    +0.000 C 
ATOM      3  C   UNL     1      -2.603   5.745 129.380  0.00  0.00    +0.000 C 
ATOM      4  O   UNL     1      -1.958   6.548 128.691  0.00  0.00    +0.000 OA
ENDROOT
BRANCH   1   8
ATOM      5  C   UNL     1      -0.817   8.740 133.174  0.00  0.00    +0.000 A 
ATOM      6  C   UNL     1      -0.103   7.606 132.847  0.00  0.00    +0.000 A 
ATOM      7  C   UNL     1      -0.709   6.626 132.058  0.00  0.00    +0.000 A 
ATOM      8  C   UNL     1      -2.026   6.752 131.607  0.00  0.00    +0.000 A 
ATOM      9  C   UNL     1      -2.645   7.940 132.015  0.00  0.00    +0.000 A 
ATOM     10  N   UNL     1      -2.085   8.921 132.777  0.00  0.00    +0.000 NA
BRANCH   5  12
ATOM     11  C   UNL     1      -0.118  10.970 133.348  0.00  0.00    +0.000 C 
ATOM     12  O   UNL     1      -0.339   9.723 133.994  0.00  0.00    +0.000 OA
ENDBRANCH   5  12
ENDBRANCH   1   8
BRANCH   3  13
ATOM     13  C   UNL     1      -3.337   4.753 128.556  0.00  0.00    +0.000 A 
ATOM     14  C   UNL     1      -2.608   3.831 127.792  0.00  0.00    +0.000 A 
ATOM     15  C   UNL     1      -3.270   3.014 126.877  0.00  0.00    +0.000 A 
ATOM     16  C   UNL     1      -4.672   3.025 126.783  0.00  0.00    +0.000 A 
ATOM     17  C   UNL     1      -5.386   3.957 127.538  0.00  0.00    +0.000 A 
ATOM     18  C   UNL     1      -4.716   4.847 128.369  0.00  0.00    +0.000 A 
BRANCH  16  19
ATOM     19  C   UNL     1      -5.358   2.113 125.871  0.00  0.00    +0.000 A 
ATOM     20  C   UNL     1      -6.137   2.615 124.819  0.00  0.00    +0.000 A 
ATOM     21  C   UNL     1      -6.928   1.763 124.053  0.00  0.00    +0.000 A 
ATOM     22  C   UNL     1      -6.881   0.389 124.274  0.00  0.00    +0.000 A 
ATOM     23  C   UNL     1      -6.057  -0.132 125.270  0.00  0.00    +0.000 A 
ATOM     24  C   UNL     1      -5.302   0.725 126.067  0.00  0.00    +0.000 A 
ENDBRANCH  16  19
ENDBRANCH   3  13
TORSDOF 4
ENDMDL
