MODEL 1
REMARK VINA RESULT:     -10.8      0.000      0.000
REMARK  Name = CHEMBL24786
REMARK  12 active torsions:
REMARK  status: ('A' for Active; 'I' for Inactive)
REMARK    1  A    between atoms: C_1  and  C_2
REMARK    2  A    between atoms: C_2  and  C_4
REMARK    3  A    between atoms: C_4  and  C_5
REMARK    4  A    between atoms: C_5  and  C_6
REMARK    5  A    between atoms: C_6  and  C_7
REMARK    6  A    between atoms: N_9  and  C_10
REMARK    7  A    between atoms: C_12  and  C_13
REMARK    8  A    between atoms: N_25  and  C_26
REMARK    9  A    between atoms: C_26  and  C_27
REMARK   10  A    between atoms: N_29  and  C_30
REMARK   11  A    between atoms: C_30  and  C_31
REMARK   12  A    between atoms: C_31  and  C_32
REMARK                            x       y       z     vdW  Elec       q    Type
REMARK                         _______ _______ _______ _____ _____    ______ ____
ROOT
ATOM      1  C   UNL     1      -9.167   4.407 130.599  0.00  0.00    +0.000 C 
ATOM      2  N   UNL     1      -9.115   3.779 129.287  0.00  0.00    +0.000 NA
ATOM      3  C   UNL     1      -8.052   3.256 128.804  0.00  0.00    +0.000 C 
ATOM      4  C   UNL     1      -6.727   3.338 129.452  0.00  0.00    +0.000 A 
ATOM      5  C   UNL     1      -5.624   3.555 128.616  0.00  0.00    +0.000 A 
ATOM      6  C   UNL     1      -4.335   3.630 129.131  0.00  0.00    +0.000 A 
ATOM      7  C   UNL     1      -4.138   3.559 130.492  0.00  0.00    +0.000 A 
ATOM      8  C   UNL     1      -5.240   3.466 131.331  0.00  0.00    +0.000 A 
ATOM      9  C   UNL     1      -6.533   3.244 130.831  0.00  0.00    +0.000 A 
ATOM     10  N   UNL     1      -7.536   2.831 131.747  0.00  0.00    +0.000 N 
ATOM     11  C   UNL     1      -8.820   3.384 131.734  0.00  0.00    +0.000 C 
ATOM     12  O   UNL     1      -9.604   3.152 132.664  0.00  0.00    +0.000 OA
ENDROOT
BRANCH   3  13
ATOM     13  C   UNL     1      -8.163   2.550 127.493  0.00  0.00    +0.000 A 
ATOM     14  C   UNL     1      -7.763   3.144 126.292  0.00  0.00    +0.000 A 
ATOM     15  C   UNL     1      -8.053   2.517 125.079  0.00  0.00    +0.000 A 
ATOM     16  C   UNL     1      -8.542   1.218 125.074  0.00  0.00    +0.000 A 
ATOM     17  C   UNL     1      -8.727   0.551 126.280  0.00  0.00    +0.000 A 
ATOM     18  C   UNL     1      -8.654   1.249 127.484  0.00  0.00    +0.000 A 
ENDBRANCH   3  13
BRANCH   1  21
ATOM     19  C   UNL     1     -10.686   6.194 131.382  0.00  0.00    +0.000 C 
ATOM     20  O   UNL     1      -9.756   6.857 131.839  0.00  0.00    +0.000 OA
ATOM     21  N   UNL     1     -10.516   4.950 130.797  0.00  0.00    +0.000 N 
ATOM     22  H   UNL     1     -11.272   4.504 130.295  0.00  0.00    +0.000 HD
BRANCH  19  23
ATOM     23  C   UNL     1     -12.109   6.732 131.487  0.00  0.00    +0.000 C 
BRANCH  23  24
ATOM     24  C   UNL     1     -12.370   7.714 130.334  0.00  0.00    +0.000 C 
BRANCH  24  25
ATOM     25  C   UNL     1     -12.934   7.028 129.096  0.00  0.00    +0.000 C 
BRANCH  25  27
ATOM     26  C   UNL     1     -10.926   8.287 128.046  0.00  0.00    +0.000 C 
ATOM     27  C   UNL     1     -12.028   7.270 127.897  0.00  0.00    +0.000 C 
ATOM     28  O   UNL     1     -12.170   6.669 126.832  0.00  0.00    +0.000 OA
ENDBRANCH  25  27
ENDBRANCH  24  25
ENDBRANCH  23  24
ENDBRANCH  19  23
ENDBRANCH   1  21
BRANCH  10  29
ATOM     29  C   UNL     1      -7.203   1.807 132.804  0.00  0.00    +0.000 C 
BRANCH  29  30
ATOM     30  C   UNL     1      -6.890   0.285 132.342  0.00  0.00    +0.000 C 
ATOM     31  O   UNL     1      -5.801  -0.019 131.850  0.00  0.00    +0.000 OA
ATOM     32  N   UNL     1      -7.794  -0.791 132.422  0.00  0.00    +0.000 N 
ATOM     33  H   UNL     1      -8.763  -0.507 132.537  0.00  0.00    +0.000 HD
BRANCH  32  34
ATOM     34  C   UNL     1      -7.234  -2.319 132.051  0.00  0.00    +0.000 C 
BRANCH  34  35
ATOM     35  C   UNL     1      -7.450  -3.280 130.420  0.00  0.00    +0.000 C 
BRANCH  35  36
ATOM     36  C   UNL     1      -7.217  -3.043 128.431  0.00  0.00    +0.000 A 
ATOM     37  C   UNL     1      -8.345  -3.445 128.893  0.00  0.00    +0.000 A 
ATOM     38  C   UNL     1      -8.222  -2.600 127.999  0.00  0.00    +0.000 A 
ATOM     39  C   UNL     1      -8.986  -3.196 126.867  0.00  0.00    +0.000 A 
ATOM     40  C   UNL     1      -8.458  -2.953 125.743  0.00  0.00    +0.000 A 
ATOM     41  C   UNL     1      -9.288  -3.149 124.327  0.00  0.00    +0.000 A 
ATOM     42  C   UNL     1      -8.871  -2.979 123.026  0.00  0.00    +0.000 A 
ATOM     43  C   UNL     1      -7.689  -2.338 123.112  0.00  0.00    +0.000 A 
ATOM     44  C   UNL     1      -6.997  -2.121 124.648  0.00  0.00    +0.000 A 
ATOM     45  C   UNL     1      -7.275  -2.677 126.346  0.00  0.00    +0.000 A 
ENDBRANCH  35  36
ENDBRANCH  34  35
ENDBRANCH  32  34
ENDBRANCH  29  30
ENDBRANCH  10  29
TORSDOF 11
ENDMDL
MODEL 2
REMARK VINA RESULT:     -10.4      1.598      2.085
REMARK  Name = CHEMBL24786
REMARK  12 active torsions:
REMARK  status: ('A' for Active; 'I' for Inactive)
REMARK    1  A    between atoms: C_1  and  C_2
REMARK    2  A    between atoms: C_2  and  C_4
REMARK    3  A    between atoms: C_4  and  C_5
REMARK    4  A    between atoms: C_5  and  C_6
REMARK    5  A    between atoms: C_6  and  C_7
REMARK    6  A    between atoms: N_9  and  C_10
REMARK    7  A    between atoms: C_12  and  C_13
REMARK    8  A    between atoms: N_25  and  C_26
REMARK    9  A    between atoms: C_26  and  C_27
REMARK   10  A    between atoms: N_29  and  C_30
REMARK   11  A    between atoms: C_30  and  C_31
REMARK   12  A    between atoms: C_31  and  C_32
REMARK                            x       y       z     vdW  Elec       q    Type
REMARK                         _______ _______ _______ _____ _____    ______ ____
ROOT
ATOM      1  C   UNL     1      -7.306   4.492 129.408  0.00  0.00    +0.000 C 
ATOM      2  N   UNL     1      -7.715   3.841 128.172  0.00  0.00    +0.000 NA
ATOM      3  C   UNL     1      -6.884   3.339 127.338  0.00  0.00    +0.000 C 
ATOM      4  C   UNL     1      -5.417   3.470 127.459  0.00  0.00    +0.000 A 
ATOM      5  C   UNL     1      -4.702   3.702 126.277  0.00  0.00    +0.000 A 
ATOM      6  C   UNL     1      -3.317   3.823 126.286  0.00  0.00    +0.000 A 
ATOM      7  C   UNL     1      -2.636   3.783 127.483  0.00  0.00    +0.000 A 
ATOM      8  C   UNL     1      -3.354   3.675 128.666  0.00  0.00    +0.000 A 
ATOM      9  C   UNL     1      -4.731   3.408 128.673  0.00  0.00    +0.000 A 
ATOM     10  N   UNL     1      -5.318   2.984 129.895  0.00  0.00    +0.000 N 
ATOM     11  C   UNL     1      -6.537   3.501 130.346  0.00  0.00    +0.000 C 
ATOM     12  O   UNL     1      -6.920   3.265 131.500  0.00  0.00    +0.000 OA
ENDROOT
BRANCH   3  13
ATOM     13  C   UNL     1      -7.441   2.606 126.164  0.00  0.00    +0.000 A 
ATOM     14  C   UNL     1      -7.263   1.230 125.994  0.00  0.00    +0.000 A 
ATOM     15  C   UNL     1      -7.646   0.625 124.794  0.00  0.00    +0.000 A 
ATOM     16  C   UNL     1      -8.387   1.343 123.866  0.00  0.00    +0.000 A 
ATOM     17  C   UNL     1      -8.751   2.655 124.147  0.00  0.00    +0.000 A 
ATOM     18  C   UNL     1      -8.183   3.322 125.230  0.00  0.00    +0.000 A 
ENDBRANCH   3  13
BRANCH   1  21
ATOM     19  C   UNL     1      -8.522   6.285 130.601  0.00  0.00    +0.000 C 
ATOM     20  O   UNL     1      -7.535   7.019 130.613  0.00  0.00    +0.000 OA
ATOM     21  N   UNL     1      -8.508   5.001 130.080  0.00  0.00    +0.000 N 
ATOM     22  H   UNL     1      -9.367   4.486 129.943  0.00  0.00    +0.000 HD
BRANCH  19  23
ATOM     23  C   UNL     1      -9.827   6.779 131.216  0.00  0.00    +0.000 C 
BRANCH  23  24
ATOM     24  C   UNL     1     -10.906   6.862 130.126  0.00  0.00    +0.000 C 
BRANCH  24  25
ATOM     25  C   UNL     1     -10.573   7.884 129.047  0.00  0.00    +0.000 C 
BRANCH  25  27
ATOM     26  C   UNL     1     -11.498   7.616 126.640  0.00  0.00    +0.000 C 
ATOM     27  C   UNL     1     -10.491   7.209 127.685  0.00  0.00    +0.000 C 
ATOM     28  O   UNL     1      -9.641   6.359 127.421  0.00  0.00    +0.000 OA
ENDBRANCH  25  27
ENDBRANCH  24  25
ENDBRANCH  23  24
ENDBRANCH  19  23
ENDBRANCH   1  21
BRANCH  10  29
ATOM     29  C   UNL     1      -4.590   1.990 130.765  0.00  0.00    +0.000 C 
BRANCH  29  30
ATOM     30  C   UNL     1      -5.187   0.489 130.898  0.00  0.00    +0.000 C 
ATOM     31  O   UNL     1      -4.750  -0.432 130.203  0.00  0.00    +0.000 OA
ATOM     32  N   UNL     1      -6.232   0.102 131.757  0.00  0.00    +0.000 N 
ATOM     33  H   UNL     1      -6.789   0.879 132.103  0.00  0.00    +0.000 HD
BRANCH  32  34
ATOM     34  C   UNL     1      -6.596  -1.523 131.873  0.00  0.00    +0.000 C 
BRANCH  34  35
ATOM     35  C   UNL     1      -6.983  -2.739 130.460  0.00  0.00    +0.000 C 
BRANCH  35  36
ATOM     36  C   UNL     1      -6.943  -2.850 128.447  0.00  0.00    +0.000 A 
ATOM     37  C   UNL     1      -8.066  -2.928 129.062  0.00  0.00    +0.000 A 
ATOM     38  C   UNL     1      -7.882  -2.269 128.032  0.00  0.00    +0.000 A 
ATOM     39  C   UNL     1      -8.877  -2.844 127.084  0.00  0.00    +0.000 A 
ATOM     40  C   UNL     1      -8.447  -2.886 125.895  0.00  0.00    +0.000 A 
ATOM     41  C   UNL     1      -9.460  -3.103 124.606  0.00  0.00    +0.000 A 
ATOM     42  C   UNL     1      -9.173  -3.218 123.265  0.00  0.00    +0.000 A 
ATOM     43  C   UNL     1      -7.885  -2.842 123.143  0.00  0.00    +0.000 A 
ATOM     44  C   UNL     1      -6.988  -2.558 124.557  0.00  0.00    +0.000 A 
ATOM     45  C   UNL     1      -7.170  -2.788 126.342  0.00  0.00    +0.000 A 
ENDBRANCH  35  36
ENDBRANCH  34  35
ENDBRANCH  32  34
ENDBRANCH  29  30
ENDBRANCH  10  29
TORSDOF 11
ENDMDL
MODEL 3
REMARK VINA RESULT:     -10.2      4.046      9.017
REMARK  Name = CHEMBL24786
REMARK  12 active torsions:
REMARK  status: ('A' for Active; 'I' for Inactive)
REMARK    1  A    between atoms: C_1  and  C_2
REMARK    2  A    between atoms: C_2  and  C_4
REMARK    3  A    between atoms: C_4  and  C_5
REMARK    4  A    between atoms: C_5  and  C_6
REMARK    5  A    between atoms: C_6  and  C_7
REMARK    6  A    between atoms: N_9  and  C_10
REMARK    7  A    between atoms: C_12  and  C_13
REMARK    8  A    between atoms: N_25  and  C_26
REMARK    9  A    between atoms: C_26  and  C_27
REMARK   10  A    between atoms: N_29  and  C_30
REMARK   11  A    between atoms: C_30  and  C_31
REMARK   12  A    between atoms: C_31  and  C_32
REMARK                            x       y       z     vdW  Elec       q    Type
REMARK                         _______ _______ _______ _____ _____    ______ ____
ROOT
ATOM      1  C   UNL     1      -9.847   5.723 130.916  0.00  0.00    +0.000 C 
ATOM      2  N   UNL     1      -8.987   5.886 132.079  0.00  0.00    +0.000 NA
ATOM      3  C   UNL     1      -8.251   4.946 132.540  0.00  0.00    +0.000 C 
ATOM      4  C   UNL     1      -8.278   3.558 132.037  0.00  0.00    +0.000 A 
ATOM      5  C   UNL     1      -8.192   2.536 132.993  0.00  0.00    +0.000 A 
ATOM      6  C   UNL     1      -8.193   1.198 132.616  0.00  0.00    +0.000 A 
ATOM      7  C   UNL     1      -8.349   0.862 131.289  0.00  0.00    +0.000 A 
ATOM      8  C   UNL     1      -8.556   1.868 130.357  0.00  0.00    +0.000 A 
ATOM      9  C   UNL     1      -8.416   3.224 130.689  0.00  0.00    +0.000 A 
ATOM     10  N   UNL     1      -8.312   4.160 129.626  0.00  0.00    +0.000 N 
ATOM     11  C   UNL     1      -9.015   5.369 129.637  0.00  0.00    +0.000 C 
ATOM     12  O   UNL     1      -9.062   6.066 128.615  0.00  0.00    +0.000 OA
ENDROOT
BRANCH   3  13
ATOM     13  C   UNL     1      -7.336   5.278 133.672  0.00  0.00    +0.000 A 
ATOM     14  C   UNL     1      -5.976   5.535 133.478  0.00  0.00    +0.000 A 
ATOM     15  C   UNL     1      -5.131   5.663 134.583  0.00  0.00    +0.000 A 
ATOM     16  C   UNL     1      -5.671   5.744 135.858  0.00  0.00    +0.000 A 
ATOM     17  C   UNL     1      -7.051   5.710 136.021  0.00  0.00    +0.000 A 
ATOM     18  C   UNL     1      -7.873   5.359 134.953  0.00  0.00    +0.000 A 
ENDBRANCH   3  13
BRANCH   1  21
ATOM     19  C   UNL     1     -11.873   6.945 130.196  0.00  0.00    +0.000 C 
ATOM     20  O   UNL     1     -12.420   5.915 129.806  0.00  0.00    +0.000 OA
ATOM     21  N   UNL     1     -10.588   6.974 130.712  0.00  0.00    +0.000 N 
ATOM     22  H   UNL     1     -10.229   7.803 131.165  0.00  0.00    +0.000 HD
BRANCH  19  23
ATOM     23  C   UNL     1     -12.615   8.273 130.083  0.00  0.00    +0.000 C 
BRANCH  23  24
ATOM     24  C   UNL     1     -12.665   8.705 128.609  0.00  0.00    +0.000 C 
BRANCH  24  25
ATOM     25  C   UNL     1     -11.312   8.598 127.919  0.00  0.00    +0.000 C 
BRANCH  25  27
ATOM     26  C   UNL     1     -12.626   6.916 126.449  0.00  0.00    +0.000 C 
ATOM     27  C   UNL     1     -11.444   7.836 126.608  0.00  0.00    +0.000 C 
ATOM     28  O   UNL     1     -10.626   7.951 125.695  0.00  0.00    +0.000 OA
ENDBRANCH  25  27
ENDBRANCH  24  25
ENDBRANCH  23  24
ENDBRANCH  19  23
ENDBRANCH   1  21
BRANCH  10  29
ATOM     29  C   UNL     1      -7.466   3.828 128.422  0.00  0.00    +0.000 C 
BRANCH  29  30
ATOM     30  C   UNL     1      -5.885   4.187 128.459  0.00  0.00    +0.000 C 
ATOM     31  O   UNL     1      -5.405   5.023 127.689  0.00  0.00    +0.000 OA
ATOM     32  N   UNL     1      -4.936   3.592 129.311  0.00  0.00    +0.000 N 
ATOM     33  H   UNL     1      -5.246   2.717 129.725  0.00  0.00    +0.000 HD
BRANCH  32  34
ATOM     34  C   UNL     1      -3.386   4.210 129.318  0.00  0.00    +0.000 C 
BRANCH  34  35
ATOM     35  C   UNL     1      -2.573   5.318 130.637  0.00  0.00    +0.000 C 
BRANCH  35  36
ATOM     36  C   UNL     1      -2.650   7.203 131.349  0.00  0.00    +0.000 A 
ATOM     37  C   UNL     1      -2.570   6.220 132.170  0.00  0.00    +0.000 A 
ATOM     38  C   UNL     1      -1.926   7.270 132.278  0.00  0.00    +0.000 A 
ATOM     39  C   UNL     1      -2.327   7.771 133.623  0.00  0.00    +0.000 A 
ATOM     40  C   UNL     1      -2.412   9.032 133.666  0.00  0.00    +0.000 A 
ATOM     41  C   UNL     1      -2.449   9.858 135.099  0.00  0.00    +0.000 A 
ATOM     42  C   UNL     1      -2.580  11.206 135.340  0.00  0.00    +0.000 A 
ATOM     43  C   UNL     1      -2.400  11.801 134.145  0.00  0.00    +0.000 A 
ATOM     44  C   UNL     1      -2.281  10.820 132.763  0.00  0.00    +0.000 A 
ATOM     45  C   UNL     1      -2.515   9.083 132.315  0.00  0.00    +0.000 A 
ENDBRANCH  35  36
ENDBRANCH  34  35
ENDBRANCH  32  34
ENDBRANCH  29  30
ENDBRANCH  10  29
TORSDOF 11
ENDMDL
MODEL 4
REMARK VINA RESULT:     -10.2      2.975      8.051
REMARK  Name = CHEMBL24786
REMARK  12 active torsions:
REMARK  status: ('A' for Active; 'I' for Inactive)
REMARK    1  A    between atoms: C_1  and  C_2
REMARK    2  A    between atoms: C_2  and  C_4
REMARK    3  A    between atoms: C_4  and  C_5
REMARK    4  A    between atoms: C_5  and  C_6
REMARK    5  A    between atoms: C_6  and  C_7
REMARK    6  A    between atoms: N_9  and  C_10
REMARK    7  A    between atoms: C_12  and  C_13
REMARK    8  A    between atoms: N_25  and  C_26
REMARK    9  A    between atoms: C_26  and  C_27
REMARK   10  A    between atoms: N_29  and  C_30
REMARK   11  A    between atoms: C_30  and  C_31
REMARK   12  A    between atoms: C_31  and  C_32
REMARK                            x       y       z     vdW  Elec       q    Type
REMARK                         _______ _______ _______ _____ _____    ______ ____
ROOT
ATOM      1  C   UNL     1      -7.414   2.350 127.482  0.00  0.00    +0.000 C 
ATOM      2  N   UNL     1      -7.465   1.077 126.778  0.00  0.00    +0.000 NA
ATOM      3  C   UNL     1      -7.036   0.923 125.582  0.00  0.00    +0.000 C 
ATOM      4  C   UNL     1      -6.562   2.031 124.729  0.00  0.00    +0.000 A 
ATOM      5  C   UNL     1      -6.931   1.994 123.377  0.00  0.00    +0.000 A 
ATOM      6  C   UNL     1      -6.520   2.983 122.492  0.00  0.00    +0.000 A 
ATOM      7  C   UNL     1      -5.794   4.057 122.957  0.00  0.00    +0.000 A 
ATOM      8  C   UNL     1      -5.532   4.158 124.316  0.00  0.00    +0.000 A 
ATOM      9  C   UNL     1      -5.809   3.107 125.203  0.00  0.00    +0.000 A 
ATOM     10  N   UNL     1      -5.215   3.152 126.492  0.00  0.00    +0.000 N 
ATOM     11  C   UNL     1      -5.940   2.851 127.649  0.00  0.00    +0.000 C 
ATOM     12  O   UNL     1      -5.455   3.092 128.762  0.00  0.00    +0.000 OA
ENDROOT
BRANCH   3  13
ATOM     13  C   UNL     1      -7.048  -0.458 125.016  0.00  0.00    +0.000 A 
ATOM     14  C   UNL     1      -5.874  -1.191 124.819  0.00  0.00    +0.000 A 
ATOM     15  C   UNL     1      -5.922  -2.402 124.123  0.00  0.00    +0.000 A 
ATOM     16  C   UNL     1      -7.149  -2.973 123.818  0.00  0.00    +0.000 A 
ATOM     17  C   UNL     1      -8.320  -2.338 124.219  0.00  0.00    +0.000 A 
ATOM     18  C   UNL     1      -8.276  -1.035 124.707  0.00  0.00    +0.000 A 
ENDBRANCH   3  13
BRANCH   1  21
ATOM     19  C   UNL     1      -8.851   3.172 129.319  0.00  0.00    +0.000 C 
ATOM     20  O   UNL     1      -9.010   4.265 128.777  0.00  0.00    +0.000 OA
ATOM     21  N   UNL     1      -8.045   2.174 128.796  0.00  0.00    +0.000 N 
ATOM     22  H   UNL     1      -8.060   1.240 129.180  0.00  0.00    +0.000 HD
BRANCH  19  23
ATOM     23  C   UNL     1      -9.538   2.894 130.652  0.00  0.00    +0.000 C 
BRANCH  23  24
ATOM     24  C   UNL     1      -8.621   2.026 131.527  0.00  0.00    +0.000 C 
BRANCH  24  25
ATOM     25  C   UNL     1      -9.226   0.664 131.841  0.00  0.00    +0.000 C 
BRANCH  25  27
ATOM     26  C   UNL     1      -7.770  -1.421 132.342  0.00  0.00    +0.000 C 
ATOM     27  C   UNL     1      -8.319  -0.448 131.332  0.00  0.00    +0.000 C 
ATOM     28  O   UNL     1      -8.031  -0.569 130.141  0.00  0.00    +0.000 OA
ENDBRANCH  25  27
ENDBRANCH  24  25
ENDBRANCH  23  24
ENDBRANCH  19  23
ENDBRANCH   1  21
BRANCH  10  29
ATOM     29  C   UNL     1      -3.777   3.587 126.633  0.00  0.00    +0.000 C 
BRANCH  29  30
ATOM     30  C   UNL     1      -3.461   4.997 127.368  0.00  0.00    +0.000 C 
ATOM     31  O   UNL     1      -4.284   5.916 127.361  0.00  0.00    +0.000 OA
ATOM     32  N   UNL     1      -2.263   5.316 128.034  0.00  0.00    +0.000 N 
ATOM     33  H   UNL     1      -1.485   4.706 127.796  0.00  0.00    +0.000 HD
BRANCH  32  34
ATOM     34  C   UNL     1      -2.187   6.758 128.872  0.00  0.00    +0.000 C 
BRANCH  34  35
ATOM     35  C   UNL     1      -3.141   7.249 130.445  0.00  0.00    +0.000 C 
BRANCH  35  36
ATOM     36  C   UNL     1      -4.767   6.712 131.511  0.00  0.00    +0.000 A 
ATOM     37  C   UNL     1      -4.918   7.302 130.381  0.00  0.00    +0.000 A 
ATOM     38  C   UNL     1      -5.588   6.333 130.753  0.00  0.00    +0.000 A 
ATOM     39  C   UNL     1      -6.984   6.849 130.697  0.00  0.00    +0.000 A 
ATOM     40  C   UNL     1      -7.709   6.393 131.628  0.00  0.00    +0.000 A 
ATOM     41  C   UNL     1      -9.359   6.485 131.577  0.00  0.00    +0.000 A 
ATOM     42  C   UNL     1     -10.297   6.089 132.503  0.00  0.00    +0.000 A 
ATOM     43  C   UNL     1      -9.622   5.333 133.391  0.00  0.00    +0.000 A 
ATOM     44  C   UNL     1      -7.930   5.253 133.265  0.00  0.00    +0.000 A 
ATOM     45  C   UNL     1      -6.604   6.069 132.345  0.00  0.00    +0.000 A 
ENDBRANCH  35  36
ENDBRANCH  34  35
ENDBRANCH  32  34
ENDBRANCH  29  30
ENDBRANCH  10  29
TORSDOF 11
ENDMDL
MODEL 5
REMARK VINA RESULT:     -10.1      2.084      2.462
REMARK  Name = CHEMBL24786
REMARK  12 active torsions:
REMARK  status: ('A' for Active; 'I' for Inactive)
REMARK    1  A    between atoms: C_1  and  C_2
REMARK    2  A    between atoms: C_2  and  C_4
REMARK    3  A    between atoms: C_4  and  C_5
REMARK    4  A    between atoms: C_5  and  C_6
REMARK    5  A    between atoms: C_6  and  C_7
REMARK    6  A    between atoms: N_9  and  C_10
REMARK    7  A    between atoms: C_12  and  C_13
REMARK    8  A    between atoms: N_25  and  C_26
REMARK    9  A    between atoms: C_26  and  C_27
REMARK   10  A    between atoms: N_29  and  C_30
REMARK   11  A    between atoms: C_30  and  C_31
REMARK   12  A    between atoms: C_31  and  C_32
REMARK                            x       y       z     vdW  Elec       q    Type
REMARK                         _______ _______ _______ _____ _____    ______ ____
ROOT
ATOM      1  C   UNL     1      -7.047   5.251 130.330  0.00  0.00    +0.000 C 
ATOM      2  N   UNL     1      -7.036   4.652 129.004  0.00  0.00    +0.000 NA
ATOM      3  C   UNL     1      -5.968   4.496 128.317  0.00  0.00    +0.000 C 
ATOM      4  C   UNL     1      -4.646   5.015 128.723  0.00  0.00    +0.000 A 
ATOM      5  C   UNL     1      -3.844   5.565 127.714  0.00  0.00    +0.000 A 
ATOM      6  C   UNL     1      -2.577   6.064 127.995  0.00  0.00    +0.000 A 
ATOM      7  C   UNL     1      -2.123   6.083 129.295  0.00  0.00    +0.000 A 
ATOM      8  C   UNL     1      -2.964   5.651 130.311  0.00  0.00    +0.000 A 
ATOM      9  C   UNL     1      -4.183   5.013 130.040  0.00  0.00    +0.000 A 
ATOM     10  N   UNL     1      -4.815   4.311 131.101  0.00  0.00    +0.000 N 
ATOM     11  C   UNL     1      -6.189   4.416 131.339  0.00  0.00    +0.000 C 
ATOM     12  O   UNL     1      -6.672   3.957 132.383  0.00  0.00    +0.000 OA
ENDROOT
BRANCH   3  13
ATOM     13  C   UNL     1      -6.082   3.771 127.017  0.00  0.00    +0.000 A 
ATOM     14  C   UNL     1      -6.629   4.368 125.878  0.00  0.00    +0.000 A 
ATOM     15  C   UNL     1      -6.878   3.595 124.742  0.00  0.00    +0.000 A 
ATOM     16  C   UNL     1      -6.393   2.297 124.672  0.00  0.00    +0.000 A 
ATOM     17  C   UNL     1      -5.652   1.783 125.732  0.00  0.00    +0.000 A 
ATOM     18  C   UNL     1      -5.598   2.468 126.943  0.00  0.00    +0.000 A 
ENDBRANCH   3  13
BRANCH   1  21
ATOM     19  C   UNL     1      -9.163   6.499 130.621  0.00  0.00    +0.000 C 
ATOM     20  O   UNL     1      -8.674   7.536 130.177  0.00  0.00    +0.000 OA
ATOM     21  N   UNL     1      -8.440   5.328 130.788  0.00  0.00    +0.000 N 
ATOM     22  H   UNL     1      -8.905   4.458 131.005  0.00  0.00    +0.000 HD
BRANCH  19  23
ATOM     23  C   UNL     1     -10.627   6.487 131.048  0.00  0.00    +0.000 C 
BRANCH  23  24
ATOM     24  C   UNL     1     -11.488   5.930 129.904  0.00  0.00    +0.000 C 
BRANCH  24  25
ATOM     25  C   UNL     1     -12.355   6.997 129.248  0.00  0.00    +0.000 C 
BRANCH  25  27
ATOM     26  C   UNL     1     -10.825   8.315 127.622  0.00  0.00    +0.000 C 
ATOM     27  C   UNL     1     -11.884   7.263 127.825  0.00  0.00    +0.000 C 
ATOM     28  O   UNL     1     -12.337   6.651 126.857  0.00  0.00    +0.000 OA
ENDBRANCH  25  27
ENDBRANCH  24  25
ENDBRANCH  23  24
ENDBRANCH  19  23
ENDBRANCH   1  21
BRANCH  10  29
ATOM     29  C   UNL     1      -3.982   3.469 132.035  0.00  0.00    +0.000 C 
BRANCH  29  30
ATOM     30  C   UNL     1      -3.968   1.860 131.830  0.00  0.00    +0.000 C 
ATOM     31  O   UNL     1      -3.656   1.105 132.754  0.00  0.00    +0.000 OA
ATOM     32  N   UNL     1      -4.269   1.192 130.629  0.00  0.00    +0.000 N 
ATOM     33  H   UNL     1      -4.232   1.787 129.807  0.00  0.00    +0.000 HD
BRANCH  32  34
ATOM     34  C   UNL     1      -4.362  -0.475 130.658  0.00  0.00    +0.000 C 
BRANCH  34  35
ATOM     35  C   UNL     1      -4.773  -1.649 129.215  0.00  0.00    +0.000 C 
BRANCH  35  36
ATOM     36  C   UNL     1      -5.604  -1.626 127.378  0.00  0.00    +0.000 A 
ATOM     37  C   UNL     1      -6.091  -2.395 128.283  0.00  0.00    +0.000 A 
ATOM     38  C   UNL     1      -6.773  -1.716 127.508  0.00  0.00    +0.000 A 
ATOM     39  C   UNL     1      -7.620  -2.734 126.827  0.00  0.00    +0.000 A 
ATOM     40  C   UNL     1      -7.830  -2.457 125.610  0.00  0.00    +0.000 A 
ATOM     41  C   UNL     1      -9.033  -3.187 124.742  0.00  0.00    +0.000 A 
ATOM     42  C   UNL     1      -9.378  -3.047 123.417  0.00  0.00    +0.000 A 
ATOM     43  C   UNL     1      -8.704  -1.963 122.986  0.00  0.00    +0.000 A 
ATOM     44  C   UNL     1      -7.563  -1.254 124.026  0.00  0.00    +0.000 A 
ATOM     45  C   UNL     1      -6.760  -1.624 125.603  0.00  0.00    +0.000 A 
ENDBRANCH  35  36
ENDBRANCH  34  35
ENDBRANCH  32  34
ENDBRANCH  29  30
ENDBRANCH  10  29
TORSDOF 11
ENDMDL
MODEL 6
REMARK VINA RESULT:     -10.0      3.137      7.513
REMARK  Name = CHEMBL24786
REMARK  12 active torsions:
REMARK  status: ('A' for Active; 'I' for Inactive)
REMARK    1  A    between atoms: C_1  and  C_2
REMARK    2  A    between atoms: C_2  and  C_4
REMARK    3  A    between atoms: C_4  and  C_5
REMARK    4  A    between atoms: C_5  and  C_6
REMARK    5  A    between atoms: C_6  and  C_7
REMARK    6  A    between atoms: N_9  and  C_10
REMARK    7  A    between atoms: C_12  and  C_13
REMARK    8  A    between atoms: N_25  and  C_26
REMARK    9  A    between atoms: C_26  and  C_27
REMARK   10  A    between atoms: N_29  and  C_30
REMARK   11  A    between atoms: C_30  and  C_31
REMARK   12  A    between atoms: C_31  and  C_32
REMARK                            x       y       z     vdW  Elec       q    Type
REMARK                         _______ _______ _______ _____ _____    ______ ____
ROOT
ATOM      1  C   UNL     1      -8.702   4.354 130.890  0.00  0.00    +0.000 C 
ATOM      2  N   UNL     1      -7.406   4.499 131.536  0.00  0.00    +0.000 NA
ATOM      3  C   UNL     1      -6.676   3.502 131.868  0.00  0.00    +0.000 C 
ATOM      4  C   UNL     1      -7.107   2.094 131.757  0.00  0.00    +0.000 A 
ATOM      5  C   UNL     1      -6.749   1.237 132.807  0.00  0.00    +0.000 A 
ATOM      6  C   UNL     1      -7.094  -0.109 132.786  0.00  0.00    +0.000 A 
ATOM      7  C   UNL     1      -7.859  -0.602 131.752  0.00  0.00    +0.000 A 
ATOM      8  C   UNL     1      -8.317   0.271 130.774  0.00  0.00    +0.000 A 
ATOM      9  C   UNL     1      -7.864   1.596 130.696  0.00  0.00    +0.000 A 
ATOM     10  N   UNL     1      -8.112   2.312 129.495  0.00  0.00    +0.000 N 
ATOM     11  C   UNL     1      -8.571   3.633 129.505  0.00  0.00    +0.000 C 
ATOM     12  O   UNL     1      -8.967   4.159 128.456  0.00  0.00    +0.000 OA
ENDROOT
BRANCH   3  13
ATOM     13  C   UNL     1      -5.322   3.793 132.426  0.00  0.00    +0.000 A 
ATOM     14  C   UNL     1      -4.169   3.169 131.943  0.00  0.00    +0.000 A 
ATOM     15  C   UNL     1      -2.956   3.339 132.614  0.00  0.00    +0.000 A 
ATOM     16  C   UNL     1      -2.854   4.284 133.624  0.00  0.00    +0.000 A 
ATOM     17  C   UNL     1      -3.960   5.062 133.949  0.00  0.00    +0.000 A 
ATOM     18  C   UNL     1      -5.216   4.739 133.441  0.00  0.00    +0.000 A 
ENDBRANCH   3  13
BRANCH   1  21
ATOM     19  C   UNL     1     -10.657   5.851 130.658  0.00  0.00    +0.000 C 
ATOM     20  O   UNL     1     -11.447   4.908 130.659  0.00  0.00    +0.000 OA
ATOM     21  N   UNL     1      -9.282   5.692 130.715  0.00  0.00    +0.000 N 
ATOM     22  H   UNL     1      -8.673   6.483 130.870  0.00  0.00    +0.000 HD
BRANCH  19  23
ATOM     23  C   UNL     1     -11.195   7.274 130.554  0.00  0.00    +0.000 C 
BRANCH  23  24
ATOM     24  C   UNL     1     -12.567   7.252 129.862  0.00  0.00    +0.000 C 
BRANCH  24  25
ATOM     25  C   UNL     1     -12.621   8.157 128.638  0.00  0.00    +0.000 C 
BRANCH  25  27
ATOM     26  C   UNL     1     -10.690   7.686 126.974  0.00  0.00    +0.000 C 
ATOM     27  C   UNL     1     -12.107   7.419 127.410  0.00  0.00    +0.000 C 
ATOM     28  O   UNL     1     -12.806   6.626 126.778  0.00  0.00    +0.000 OA
ENDBRANCH  25  27
ENDBRANCH  24  25
ENDBRANCH  23  24
ENDBRANCH  19  23
ENDBRANCH   1  21
BRANCH  10  29
ATOM     29  C   UNL     1      -7.933   1.621 128.166  0.00  0.00    +0.000 C 
BRANCH  29  30
ATOM     30  C   UNL     1      -6.699   2.071 127.216  0.00  0.00    +0.000 C 
ATOM     31  O   UNL     1      -6.872   2.855 126.279  0.00  0.00    +0.000 OA
ATOM     32  N   UNL     1      -5.373   1.617 127.335  0.00  0.00    +0.000 N 
ATOM     33  H   UNL     1      -5.276   0.770 127.888  0.00  0.00    +0.000 HD
BRANCH  32  34
ATOM     34  C   UNL     1      -4.208   2.321 126.368  0.00  0.00    +0.000 C 
BRANCH  34  35
ATOM     35  C   UNL     1      -3.207   3.906 126.707  0.00  0.00    +0.000 C 
BRANCH  35  36
ATOM     36  C   UNL     1      -2.431   4.958 128.241  0.00  0.00    +0.000 A 
ATOM     37  C   UNL     1      -3.677   5.076 127.960  0.00  0.00    +0.000 A 
ATOM     38  C   UNL     1      -3.230   4.978 129.109  0.00  0.00    +0.000 A 
ATOM     39  C   UNL     1      -3.726   6.219 129.768  0.00  0.00    +0.000 A 
ATOM     40  C   UNL     1      -2.896   6.695 130.595  0.00  0.00    +0.000 A 
ATOM     41  C   UNL     1      -3.335   7.813 131.731  0.00  0.00    +0.000 A 
ATOM     42  C   UNL     1      -2.572   8.467 132.671  0.00  0.00    +0.000 A 
ATOM     43  C   UNL     1      -1.393   7.814 132.688  0.00  0.00    +0.000 A 
ATOM     44  C   UNL     1      -1.115   6.616 131.517  0.00  0.00    +0.000 A 
ATOM     45  C   UNL     1      -1.892   5.998 130.006  0.00  0.00    +0.000 A 
ENDBRANCH  35  36
ENDBRANCH  34  35
ENDBRANCH  32  34
ENDBRANCH  29  30
ENDBRANCH  10  29
TORSDOF 11
ENDMDL
MODEL 7
REMARK VINA RESULT:     -10.0      2.715      7.540
REMARK  Name = CHEMBL24786
REMARK  12 active torsions:
REMARK  status: ('A' for Active; 'I' for Inactive)
REMARK    1  A    between atoms: C_1  and  C_2
REMARK    2  A    between atoms: C_2  and  C_4
REMARK    3  A    between atoms: C_4  and  C_5
REMARK    4  A    between atoms: C_5  and  C_6
REMARK    5  A    between atoms: C_6  and  C_7
REMARK    6  A    between atoms: N_9  and  C_10
REMARK    7  A    between atoms: C_12  and  C_13
REMARK    8  A    between atoms: N_25  and  C_26
REMARK    9  A    between atoms: C_26  and  C_27
REMARK   10  A    between atoms: N_29  and  C_30
REMARK   11  A    between atoms: C_30  and  C_31
REMARK   12  A    between atoms: C_31  and  C_32
REMARK                            x       y       z     vdW  Elec       q    Type
REMARK                         _______ _______ _______ _____ _____    ______ ____
ROOT
ATOM      1  C   UNL     1      -8.975   3.930 130.298  0.00  0.00    +0.000 C 
ATOM      2  N   UNL     1      -7.902   3.576 131.216  0.00  0.00    +0.000 NA
ATOM      3  C   UNL     1      -7.174   2.534 131.070  0.00  0.00    +0.000 C 
ATOM      4  C   UNL     1      -7.410   1.503 130.040  0.00  0.00    +0.000 A 
ATOM      5  C   UNL     1      -7.233   0.168 130.426  0.00  0.00    +0.000 A 
ATOM      6  C   UNL     1      -7.416  -0.873 129.523  0.00  0.00    +0.000 A 
ATOM      7  C   UNL     1      -7.844  -0.599 128.243  0.00  0.00    +0.000 A 
ATOM      8  C   UNL     1      -8.137   0.712 127.894  0.00  0.00    +0.000 A 
ATOM      9  C   UNL     1      -7.824   1.789 128.738  0.00  0.00    +0.000 A 
ATOM     10  N   UNL     1      -7.843   3.095 128.181  0.00  0.00    +0.000 N 
ATOM     11  C   UNL     1      -8.429   4.174 128.851  0.00  0.00    +0.000 C 
ATOM     12  O   UNL     1      -8.608   5.247 128.258  0.00  0.00    +0.000 OA
ENDROOT
BRANCH   3  13
ATOM     13  C   UNL     1      -6.039   2.346 132.022  0.00  0.00    +0.000 A 
ATOM     14  C   UNL     1      -4.746   2.041 131.587  0.00  0.00    +0.000 A 
ATOM     15  C   UNL     1      -3.764   1.698 132.519  0.00  0.00    +0.000 A 
ATOM     16  C   UNL     1      -4.012   1.865 133.874  0.00  0.00    +0.000 A 
ATOM     17  C   UNL     1      -5.234   2.383 134.288  0.00  0.00    +0.000 A 
ATOM     18  C   UNL     1      -6.284   2.510 133.382  0.00  0.00    +0.000 A 
ENDBRANCH   3  13
BRANCH   1  21
ATOM     19  C   UNL     1     -10.996   5.319 130.623  0.00  0.00    +0.000 C 
ATOM     20  O   UNL     1     -11.696   4.546 129.970  0.00  0.00    +0.000 OA
ATOM     21  N   UNL     1      -9.634   5.141 130.805  0.00  0.00    +0.000 N 
ATOM     22  H   UNL     1      -9.121   5.702 131.471  0.00  0.00    +0.000 HD
BRANCH  19  23
ATOM     23  C   UNL     1     -11.630   6.560 131.242  0.00  0.00    +0.000 C 
BRANCH  23  24
ATOM     24  C   UNL     1     -12.881   6.949 130.438  0.00  0.00    +0.000 C 
BRANCH  24  25
ATOM     25  C   UNL     1     -12.639   8.135 129.514  0.00  0.00    +0.000 C 
BRANCH  25  27
ATOM     26  C   UNL     1     -10.561   8.367 127.982  0.00  0.00    +0.000 C 
ATOM     27  C   UNL     1     -11.877   7.694 128.273  0.00  0.00    +0.000 C 
ATOM     28  O   UNL     1     -12.301   6.819 127.517  0.00  0.00    +0.000 OA
ENDBRANCH  25  27
ENDBRANCH  24  25
ENDBRANCH  23  24
ENDBRANCH  19  23
ENDBRANCH   1  21
BRANCH  10  29
ATOM     29  C   UNL     1      -7.268   3.326 126.805  0.00  0.00    +0.000 C 
BRANCH  29  30
ATOM     30  C   UNL     1      -5.796   3.996 126.680  0.00  0.00    +0.000 C 
ATOM     31  O   UNL     1      -5.664   5.212 126.521  0.00  0.00    +0.000 OA
ATOM     32  N   UNL     1      -4.578   3.293 126.710  0.00  0.00    +0.000 N 
ATOM     33  H   UNL     1      -4.674   2.296 126.540  0.00  0.00    +0.000 HD
BRANCH  32  34
ATOM     34  C   UNL     1      -3.160   4.175 126.733  0.00  0.00    +0.000 C 
BRANCH  34  35
ATOM     35  C   UNL     1      -2.487   5.272 128.137  0.00  0.00    +0.000 C 
BRANCH  35  36
ATOM     36  C   UNL     1      -2.549   5.442 130.145  0.00  0.00    +0.000 A 
ATOM     37  C   UNL     1      -3.622   5.615 129.462  0.00  0.00    +0.000 A 
ATOM     38  C   UNL     1      -3.566   4.973 130.518  0.00  0.00    +0.000 A 
ATOM     39  C   UNL     1      -4.548   5.677 131.389  0.00  0.00    +0.000 A 
ATOM     40  C   UNL     1      -4.183   5.714 132.600  0.00  0.00    +0.000 A 
ATOM     41  C   UNL     1      -5.239   6.074 133.821  0.00  0.00    +0.000 A 
ATOM     42  C   UNL     1      -5.019   6.202 135.173  0.00  0.00    +0.000 A 
ATOM     43  C   UNL     1      -3.785   5.700 135.381  0.00  0.00    +0.000 A 
ATOM     44  C   UNL     1      -2.844   5.280 134.031  0.00  0.00    +0.000 A 
ATOM     45  C   UNL     1      -2.900   5.471 132.233  0.00  0.00    +0.000 A 
ENDBRANCH  35  36
ENDBRANCH  34  35
ENDBRANCH  32  34
ENDBRANCH  29  30
ENDBRANCH  10  29
TORSDOF 11
ENDMDL
MODEL 8
REMARK VINA RESULT:      -9.9      2.952      5.297
REMARK  Name = CHEMBL24786
REMARK  12 active torsions:
REMARK  status: ('A' for Active; 'I' for Inactive)
REMARK    1  A    between atoms: C_1  and  C_2
REMARK    2  A    between atoms: C_2  and  C_4
REMARK    3  A    between atoms: C_4  and  C_5
REMARK    4  A    between atoms: C_5  and  C_6
REMARK    5  A    between atoms: C_6  and  C_7
REMARK    6  A    between atoms: N_9  and  C_10
REMARK    7  A    between atoms: C_12  and  C_13
REMARK    8  A    between atoms: N_25  and  C_26
REMARK    9  A    between atoms: C_26  and  C_27
REMARK   10  A    between atoms: N_29  and  C_30
REMARK   11  A    between atoms: C_30  and  C_31
REMARK   12  A    between atoms: C_31  and  C_32
REMARK                            x       y       z     vdW  Elec       q    Type
REMARK                         _______ _______ _______ _____ _____    ______ ____
ROOT
ATOM      1  C   UNL     1      -6.729   3.219 129.893  0.00  0.00    +0.000 C 
ATOM      2  N   UNL     1      -5.865   4.365 130.136  0.00  0.00    +0.000 NA
ATOM      3  C   UNL     1      -5.820   4.981 131.257  0.00  0.00    +0.000 C 
ATOM      4  C   UNL     1      -6.722   4.692 132.391  0.00  0.00    +0.000 A 
ATOM      5  C   UNL     1      -7.205   5.792 133.112  0.00  0.00    +0.000 A 
ATOM      6  C   UNL     1      -8.046   5.621 134.206  0.00  0.00    +0.000 A 
ATOM      7  C   UNL     1      -8.470   4.357 134.551  0.00  0.00    +0.000 A 
ATOM      8  C   UNL     1      -8.090   3.279 133.764  0.00  0.00    +0.000 A 
ATOM      9  C   UNL     1      -7.131   3.406 132.748  0.00  0.00    +0.000 A 
ATOM     10  N   UNL     1      -6.557   2.218 132.223  0.00  0.00    +0.000 N 
ATOM     11  C   UNL     1      -6.378   2.029 130.849  0.00  0.00    +0.000 C 
ATOM     12  O   UNL     1      -6.066   0.913 130.413  0.00  0.00    +0.000 OA
ENDROOT
BRANCH   3  13
ATOM     13  C   UNL     1      -4.813   6.072 131.406  0.00  0.00    +0.000 A 
ATOM     14  C   UNL     1      -3.816   6.036 132.385  0.00  0.00    +0.000 A 
ATOM     15  C   UNL     1      -3.013   7.159 132.599  0.00  0.00    +0.000 A 
ATOM     16  C   UNL     1      -3.065   8.222 131.709  0.00  0.00    +0.000 A 
ATOM     17  C   UNL     1      -3.907   8.152 130.605  0.00  0.00    +0.000 A 
ATOM     18  C   UNL     1      -4.861   7.142 130.517  0.00  0.00    +0.000 A 
ENDBRANCH   3  13
BRANCH   1  21
ATOM     19  C   UNL     1      -7.685   2.560 127.710  0.00  0.00    +0.000 C 
ATOM     20  O   UNL     1      -8.834   2.574 128.149  0.00  0.00    +0.000 OA
ATOM     21  N   UNL     1      -6.569   2.812 128.492  0.00  0.00    +0.000 N 
ATOM     22  H   UNL     1      -5.660   2.947 128.072  0.00  0.00    +0.000 HD
BRANCH  19  23
ATOM     23  C   UNL     1      -7.451   2.217 126.242  0.00  0.00    +0.000 C 
BRANCH  23  24
ATOM     24  C   UNL     1      -8.628   1.379 125.720  0.00  0.00    +0.000 C 
BRANCH  24  25
ATOM     25  C   UNL     1      -8.648   1.278 124.201  0.00  0.00    +0.000 C 
BRANCH  25  27
ATOM     26  C   UNL     1     -10.227   0.498 122.299  0.00  0.00    +0.000 C 
ATOM     27  C   UNL     1     -10.063   1.010 123.706  0.00  0.00    +0.000 C 
ATOM     28  O   UNL     1     -11.054   1.197 124.412  0.00  0.00    +0.000 OA
ENDBRANCH  25  27
ENDBRANCH  24  25
ENDBRANCH  23  24
ENDBRANCH  19  23
ENDBRANCH   1  21
BRANCH  10  29
ATOM     29  C   UNL     1      -6.177   1.099 133.161  0.00  0.00    +0.000 C 
BRANCH  29  30
ATOM     30  C   UNL     1      -6.705  -0.400 132.837  0.00  0.00    +0.000 C 
ATOM     31  O   UNL     1      -7.890  -0.704 132.994  0.00  0.00    +0.000 OA
ATOM     32  N   UNL     1      -5.901  -1.467 132.394  0.00  0.00    +0.000 N 
ATOM     33  H   UNL     1      -4.907  -1.324 132.546  0.00  0.00    +0.000 HD
BRANCH  32  34
ATOM     34  C   UNL     1      -6.654  -2.891 131.956  0.00  0.00    +0.000 C 
BRANCH  34  35
ATOM     35  C   UNL     1      -7.489  -3.311 130.296  0.00  0.00    +0.000 C 
BRANCH  35  36
ATOM     36  C   UNL     1      -7.264  -2.996 128.317  0.00  0.00    +0.000 A 
ATOM     37  C   UNL     1      -8.365  -3.488 128.759  0.00  0.00    +0.000 A 
ATOM     38  C   UNL     1      -8.295  -2.609 127.892  0.00  0.00    +0.000 A 
ATOM     39  C   UNL     1      -9.012  -3.218 126.738  0.00  0.00    +0.000 A 
ATOM     40  C   UNL     1      -8.497  -2.905 125.625  0.00  0.00    +0.000 A 
ATOM     41  C   UNL     1      -9.305  -3.112 124.198  0.00  0.00    +0.000 A 
ATOM     42  C   UNL     1      -8.896  -2.874 122.906  0.00  0.00    +0.000 A 
ATOM     43  C   UNL     1      -7.760  -2.158 123.020  0.00  0.00    +0.000 A 
ATOM     44  C   UNL     1      -7.090  -1.942 124.566  0.00  0.00    +0.000 A 
ATOM     45  C   UNL     1      -7.338  -2.569 126.244  0.00  0.00    +0.000 A 
ENDBRANCH  35  36
ENDBRANCH  34  35
ENDBRANCH  32  34
ENDBRANCH  29  30
ENDBRANCH  10  29
TORSDOF 11
ENDMDL
MODEL 9
REMARK VINA RESULT:      -9.8      2.922      7.214
REMARK  Name = CHEMBL24786
REMARK  12 active torsions:
REMARK  status: ('A' for Active; 'I' for Inactive)
REMARK    1  A    between atoms: C_1  and  C_2
REMARK    2  A    between atoms: C_2  and  C_4
REMARK    3  A    between atoms: C_4  and  C_5
REMARK    4  A    between atoms: C_5  and  C_6
REMARK    5  A    between atoms: C_6  and  C_7
REMARK    6  A    between atoms: N_9  and  C_10
REMARK    7  A    between atoms: C_12  and  C_13
REMARK    8  A    between atoms: N_25  and  C_26
REMARK    9  A    between atoms: C_26  and  C_27
REMARK   10  A    between atoms: N_29  and  C_30
REMARK   11  A    between atoms: C_30  and  C_31
REMARK   12  A    between atoms: C_31  and  C_32
REMARK                            x       y       z     vdW  Elec       q    Type
REMARK                         _______ _______ _______ _____ _____    ______ ____
ROOT
ATOM      1  C   UNL     1      -6.440   1.242 126.350  0.00  0.00    +0.000 C 
ATOM      2  N   UNL     1      -5.825   0.585 127.494  0.00  0.00    +0.000 NA
ATOM      3  C   UNL     1      -5.112   1.206 128.356  0.00  0.00    +0.000 C 
ATOM      4  C   UNL     1      -4.721   2.625 128.231  0.00  0.00    +0.000 A 
ATOM      5  C   UNL     1      -3.413   2.958 128.608  0.00  0.00    +0.000 A 
ATOM      6  C   UNL     1      -2.957   4.269 128.541  0.00  0.00    +0.000 A 
ATOM      7  C   UNL     1      -3.777   5.253 128.034  0.00  0.00    +0.000 A 
ATOM      8  C   UNL     1      -5.029   4.904 127.546  0.00  0.00    +0.000 A 
ATOM      9  C   UNL     1      -5.564   3.621 127.734  0.00  0.00    +0.000 A 
ATOM     10  N   UNL     1      -6.956   3.443 127.512  0.00  0.00    +0.000 N 
ATOM     11  C   UNL     1      -7.455   2.345 126.804  0.00  0.00    +0.000 C 
ATOM     12  O   UNL     1      -8.643   2.322 126.455  0.00  0.00    +0.000 OA
ENDROOT
BRANCH   3  13
ATOM     13  C   UNL     1      -4.630   0.435 129.539  0.00  0.00    +0.000 A 
ATOM     14  C   UNL     1      -4.684   0.951 130.837  0.00  0.00    +0.000 A 
ATOM     15  C   UNL     1      -4.058   0.268 131.881  0.00  0.00    +0.000 A 
ATOM     16  C   UNL     1      -3.571  -1.015 131.672  0.00  0.00    +0.000 A 
ATOM     17  C   UNL     1      -3.723  -1.610 130.424  0.00  0.00    +0.000 A 
ATOM     18  C   UNL     1      -4.139  -0.851 129.333  0.00  0.00    +0.000 A 
ENDBRANCH   3  13
BRANCH   1  21
ATOM     19  C   UNL     1      -7.225   0.370 124.172  0.00  0.00    +0.000 C 
ATOM     20  O   UNL     1      -6.842   1.374 123.573  0.00  0.00    +0.000 OA
ATOM     21  N   UNL     1      -7.124   0.221 125.546  0.00  0.00    +0.000 N 
ATOM     22  H   UNL     1      -7.301  -0.672 125.986  0.00  0.00    +0.000 HD
BRANCH  19  23
ATOM     23  C   UNL     1      -7.878  -0.763 123.388  0.00  0.00    +0.000 C 
BRANCH  23  24
ATOM     24  C   UNL     1      -8.294  -1.880 124.357  0.00  0.00    +0.000 C 
BRANCH  24  25
ATOM     25  C   UNL     1      -7.523  -3.174 124.128  0.00  0.00    +0.000 C 
BRANCH  25  27
ATOM     26  C   UNL     1      -5.013  -3.366 123.509  0.00  0.00    +0.000 C 
ATOM     27  C   UNL     1      -6.063  -2.998 124.524  0.00  0.00    +0.000 C 
ATOM     28  O   UNL     1      -5.728  -2.571 125.629  0.00  0.00    +0.000 OA
ENDBRANCH  25  27
ENDBRANCH  24  25
ENDBRANCH  23  24
ENDBRANCH  19  23
ENDBRANCH   1  21
BRANCH  10  29
ATOM     29  C   UNL     1      -7.927   4.489 128.000  0.00  0.00    +0.000 C 
BRANCH  29  30
ATOM     30  C   UNL     1      -8.724   4.224 129.386  0.00  0.00    +0.000 C 
ATOM     31  O   UNL     1      -9.841   3.699 129.386  0.00  0.00    +0.000 OA
ATOM     32  N   UNL     1      -8.263   4.573 130.669  0.00  0.00    +0.000 N 
ATOM     33  H   UNL     1      -7.511   5.256 130.664  0.00  0.00    +0.000 HD
BRANCH  32  34
ATOM     34  C   UNL     1      -9.152   4.070 131.989  0.00  0.00    +0.000 C 
BRANCH  34  35
ATOM     35  C   UNL     1      -9.444   2.286 132.592  0.00  0.00    +0.000 C 
BRANCH  35  36
ATOM     36  C   UNL     1      -8.642   0.442 132.443  0.00  0.00    +0.000 A 
ATOM     37  C   UNL     1      -9.001   1.064 131.379  0.00  0.00    +0.000 A 
ATOM     38  C   UNL     1      -7.949   0.424 131.488  0.00  0.00    +0.000 A 
ATOM     39  C   UNL     1      -8.052  -0.579 130.392  0.00  0.00    +0.000 A 
ATOM     40  C   UNL     1      -7.554  -1.698 130.708  0.00  0.00    +0.000 A 
ATOM     41  C   UNL     1      -7.184  -2.843 129.574  0.00  0.00    +0.000 A 
ATOM     42  C   UNL     1      -6.684  -4.116 129.732  0.00  0.00    +0.000 A 
ATOM     43  C   UNL     1      -6.277  -4.181 131.015  0.00  0.00    +0.000 A 
ATOM     44  C   UNL     1      -6.643  -2.884 132.047  0.00  0.00    +0.000 A 
ATOM     45  C   UNL     1      -7.649  -1.381 132.023  0.00  0.00    +0.000 A 
ENDBRANCH  35  36
ENDBRANCH  34  35
ENDBRANCH  32  34
ENDBRANCH  29  30
ENDBRANCH  10  29
TORSDOF 11
ENDMDL
