MODEL 1
REMARK VINA RESULT:     -10.3      0.000      0.000
REMARK  Name = CHEMBL2037497
REMARK  10 active torsions:
REMARK  status: ('A' for Active; 'I' for Inactive)
REMARK    1  A    between atoms: C_1  and  C_2
REMARK    2  A    between atoms: C_5  and  C_6
REMARK    3  A    between atoms: C_6  and  C_7
REMARK    4  A    between atoms: C_6  and  N_15
REMARK    5  A    between atoms: CA_18  and  C_19
REMARK    6  A    between atoms: CA_31  and  C_32
REMARK    7  A    between atoms: C_32  and  C_33
REMARK    8  A    between atoms: C_33  and  C_34
REMARK    9  A    between atoms: C_33  and  C_35
REMARK   10  A    between atoms: C_33  and  C_36
REMARK                            x       y       z     vdW  Elec       q    Type
REMARK                         _______ _______ _______ _____ _____    ______ ____
ROOT
ATOM      1  N   UNL     1      -7.556   0.419 125.840  0.00  0.00    +0.000 N 
ATOM      2  C   UNL     1      -7.402   1.681 125.240  0.00  0.00    +0.000 C 
ATOM      3  O   UNL     1      -6.833   2.598 125.845  0.00  0.00    +0.000 OA
ATOM      4  CA  UNL     1      -8.205   1.909 123.892  0.00  0.00    +0.000 C 
ATOM      5  N   UNL     1      -7.933   0.859 123.008  0.00  0.00    +0.000 N 
ATOM      6  C   UNL     1      -7.936  -0.402 123.409  0.00  0.00    +0.000 C 
ATOM      7  O   UNL     1      -7.669  -1.118 122.475  0.00  0.00    +0.000 OA
ATOM      8  CA  UNL     1      -8.206  -0.659 124.964  0.00  0.00    +0.000 C 
ATOM      9  H   UNL     1      -7.546   0.947 122.072  0.00  0.00    +0.000 HD
ENDROOT
BRANCH   4  10
ATOM     10  C   UNL     1      -7.854   3.123 123.083  0.00  0.00    +0.000 C 
ATOM     11  C   UNL     1      -6.382   3.219 122.778  0.00  0.00    +0.000 C 
ATOM     12  C   UNL     1      -6.383   3.877 121.468  0.00  0.00    +0.000 A 
ATOM     13  C   UNL     1      -5.264   4.309 120.796  0.00  0.00    +0.000 A 
ATOM     14  C   UNL     1      -5.466   4.825 119.530  0.00  0.00    +0.000 A 
ATOM     15  C   UNL     1      -6.750   4.830 118.952  0.00  0.00    +0.000 A 
ATOM     16  C   UNL     1      -7.850   4.286 119.612  0.00  0.00    +0.000 A 
ATOM     17  C   UNL     1      -7.648   3.816 120.881  0.00  0.00    +0.000 A 
ATOM     18  C   UNL     1      -8.625   3.115 121.747  0.00  0.00    +0.000 C 
ENDBRANCH   4  10
BRANCH   1  19
ATOM     19  C   UNL     1      -7.134   0.289 127.363  0.00  0.00    +0.000 C 
BRANCH  19  20
ATOM     20  C   UNL     1      -7.993   1.126 128.414  0.00  0.00    +0.000 C 
ATOM     21  O   UNL     1      -9.053   1.646 128.029  0.00  0.00    +0.000 OA
ATOM     22  N   UNL     1      -7.706   1.202 129.761  0.00  0.00    +0.000 N 
ATOM     23  C   UNL     1      -6.410   1.271 130.428  0.00  0.00    +0.000 C 
ATOM     24  C   UNL     1      -6.481   0.361 131.642  0.00  0.00    +0.000 C 
ATOM     25  O   UNL     1      -7.495   0.717 132.576  0.00  0.00    +0.000 OA
ATOM     26  C   UNL     1      -8.764   0.550 131.910  0.00  0.00    +0.000 C 
ATOM     27  C   UNL     1      -8.809   1.485 130.691  0.00  0.00    +0.000 C 
ENDBRANCH  19  20
BRANCH  19  32
ATOM     28  C   UNL     1      -5.494  -4.236 130.684  0.00  0.00    +0.000 C 
ATOM     29  C   UNL     1      -5.914  -3.177 129.707  0.00  0.00    +0.000 A 
ATOM     30  C   UNL     1      -7.239  -2.816 129.697  0.00  0.00    +0.000 A 
ATOM     31  C   UNL     1      -7.707  -1.864 128.781  0.00  0.00    +0.000 A 
ATOM     32  C   UNL     1      -6.789  -1.128 128.004  0.00  0.00    +0.000 A 
ATOM     33  C   UNL     1      -5.502  -1.671 127.992  0.00  0.00    +0.000 A 
ATOM     34  N   UNL     1      -5.050  -2.673 128.809  0.00  0.00    +0.000 NA
ENDBRANCH  19  32
ENDBRANCH   1  19
BRANCH   8  35
ATOM     35  C   UNL     1      -7.597  -1.986 125.345  0.00  0.00    +0.000 C 
BRANCH  35  36
ATOM     36  C   UNL     1      -8.401  -3.265 125.166  0.00  0.00    +0.000 C 
ATOM     37  C   UNL     1      -7.308  -4.208 124.649  0.00  0.00    +0.000 C 
ATOM     38  C   UNL     1      -9.330  -3.457 126.452  0.00  0.00    +0.000 C 
ATOM     39  C   UNL     1      -9.440  -3.322 124.049  0.00  0.00    +0.000 C 
ENDBRANCH  35  36
ENDBRANCH   8  35
TORSDOF 6
ENDMDL
MODEL 2
REMARK VINA RESULT:     -10.1      4.172      7.439
REMARK  Name = CHEMBL2037497
REMARK  10 active torsions:
REMARK  status: ('A' for Active; 'I' for Inactive)
REMARK    1  A    between atoms: C_1  and  C_2
REMARK    2  A    between atoms: C_5  and  C_6
REMARK    3  A    between atoms: C_6  and  C_7
REMARK    4  A    between atoms: C_6  and  N_15
REMARK    5  A    between atoms: CA_18  and  C_19
REMARK    6  A    between atoms: CA_31  and  C_32
REMARK    7  A    between atoms: C_32  and  C_33
REMARK    8  A    between atoms: C_33  and  C_34
REMARK    9  A    between atoms: C_33  and  C_35
REMARK   10  A    between atoms: C_33  and  C_36
REMARK                            x       y       z     vdW  Elec       q    Type
REMARK                         _______ _______ _______ _____ _____    ______ ____
ROOT
ATOM      1  N   UNL     1      -7.991   3.015 129.224  0.00  0.00    +0.000 N 
ATOM      2  C   UNL     1      -8.730   4.209 129.250  0.00  0.00    +0.000 C 
ATOM      3  O   UNL     1      -8.779   4.940 128.252  0.00  0.00    +0.000 OA
ATOM      4  CA  UNL     1      -9.261   4.664 130.674  0.00  0.00    +0.000 C 
ATOM      5  N   UNL     1      -9.943   3.600 131.274  0.00  0.00    +0.000 N 
ATOM      6  C   UNL     1      -9.451   2.371 131.268  0.00  0.00    +0.000 C 
ATOM      7  O   UNL     1     -10.217   1.632 131.837  0.00  0.00    +0.000 OA
ATOM      8  CA  UNL     1      -8.071   2.155 130.492  0.00  0.00    +0.000 C 
ATOM      9  H   UNL     1     -10.908   3.608 131.592  0.00  0.00    +0.000 HD
ENDROOT
BRANCH   4  10
ATOM     10  C   UNL     1     -10.276   5.768 130.705  0.00  0.00    +0.000 C 
ATOM     11  C   UNL     1      -9.822   7.004 129.972  0.00  0.00    +0.000 C 
ATOM     12  C   UNL     1     -11.087   7.539 129.459  0.00  0.00    +0.000 A 
ATOM     13  C   UNL     1     -11.235   8.742 128.813  0.00  0.00    +0.000 A 
ATOM     14  C   UNL     1     -12.495   9.029 128.323  0.00  0.00    +0.000 A 
ATOM     15  C   UNL     1     -13.538   8.088 128.429  0.00  0.00    +0.000 A 
ATOM     16  C   UNL     1     -13.332   6.830 128.992  0.00  0.00    +0.000 A 
ATOM     17  C   UNL     1     -12.093   6.573 129.511  0.00  0.00    +0.000 A 
ATOM     18  C   UNL     1     -11.601   5.293 130.074  0.00  0.00    +0.000 C 
ENDBRANCH   4  10
BRANCH   1  19
ATOM     19  C   UNL     1      -7.099   2.748 127.940  0.00  0.00    +0.000 C 
BRANCH  19  20
ATOM     20  C   UNL     1      -5.568   2.384 128.201  0.00  0.00    +0.000 C 
ATOM     21  O   UNL     1      -5.231   1.190 128.166  0.00  0.00    +0.000 OA
ATOM     22  N   UNL     1      -4.562   3.320 128.331  0.00  0.00    +0.000 N 
ATOM     23  C   UNL     1      -4.594   4.626 128.979  0.00  0.00    +0.000 C 
ATOM     24  C   UNL     1      -3.837   5.591 128.082  0.00  0.00    +0.000 C 
ATOM     25  O   UNL     1      -2.479   5.227 127.854  0.00  0.00    +0.000 OA
ATOM     26  C   UNL     1      -2.490   3.976 127.133  0.00  0.00    +0.000 C 
ATOM     27  C   UNL     1      -3.189   2.915 127.996  0.00  0.00    +0.000 C 
ENDBRANCH  19  20
BRANCH  19  32
ATOM     28  C   UNL     1      -8.114  -1.278 123.822  0.00  0.00    +0.000 C 
ATOM     29  C   UNL     1      -7.951  -0.147 124.795  0.00  0.00    +0.000 A 
ATOM     30  C   UNL     1      -8.656  -0.219 125.971  0.00  0.00    +0.000 A 
ATOM     31  C   UNL     1      -8.583   0.823 126.906  0.00  0.00    +0.000 A 
ATOM     32  C   UNL     1      -7.634   1.852 126.737  0.00  0.00    +0.000 A 
ATOM     33  C   UNL     1      -7.081   1.899 125.454  0.00  0.00    +0.000 A 
ATOM     34  N   UNL     1      -7.223   0.940 124.487  0.00  0.00    +0.000 NA
ENDBRANCH  19  32
ENDBRANCH   1  19
BRANCH   8  35
ATOM     35  C   UNL     1      -7.977   0.709 130.071  0.00  0.00    +0.000 C 
BRANCH  35  36
ATOM     36  C   UNL     1      -7.152  -0.266 130.897  0.00  0.00    +0.000 C 
ATOM     37  C   UNL     1      -7.027  -1.430 129.906  0.00  0.00    +0.000 C 
ATOM     38  C   UNL     1      -5.973   0.548 131.603  0.00  0.00    +0.000 C 
ATOM     39  C   UNL     1      -7.807  -0.932 132.105  0.00  0.00    +0.000 C 
ENDBRANCH  35  36
ENDBRANCH   8  35
TORSDOF 6
ENDMDL
MODEL 3
REMARK VINA RESULT:     -10.0      3.748      7.408
REMARK  Name = CHEMBL2037497
REMARK  10 active torsions:
REMARK  status: ('A' for Active; 'I' for Inactive)
REMARK    1  A    between atoms: C_1  and  C_2
REMARK    2  A    between atoms: C_5  and  C_6
REMARK    3  A    between atoms: C_6  and  C_7
REMARK    4  A    between atoms: C_6  and  N_15
REMARK    5  A    between atoms: CA_18  and  C_19
REMARK    6  A    between atoms: CA_31  and  C_32
REMARK    7  A    between atoms: C_32  and  C_33
REMARK    8  A    between atoms: C_33  and  C_34
REMARK    9  A    between atoms: C_33  and  C_35
REMARK   10  A    between atoms: C_33  and  C_36
REMARK                            x       y       z     vdW  Elec       q    Type
REMARK                         _______ _______ _______ _____ _____    ______ ____
ROOT
ATOM      1  N   UNL     1      -8.091   2.111 129.553  0.00  0.00    +0.000 N 
ATOM      2  C   UNL     1      -8.656   3.396 129.484  0.00  0.00    +0.000 C 
ATOM      3  O   UNL     1      -8.625   4.040 128.427  0.00  0.00    +0.000 OA
ATOM      4  CA  UNL     1      -9.085   4.038 130.869  0.00  0.00    +0.000 C 
ATOM      5  N   UNL     1      -9.895   3.135 131.566  0.00  0.00    +0.000 N 
ATOM      6  C   UNL     1      -9.579   1.853 131.661  0.00  0.00    +0.000 C 
ATOM      7  O   UNL     1     -10.427   1.279 132.300  0.00  0.00    +0.000 OA
ATOM      8  CA  UNL     1      -8.260   1.381 130.890  0.00  0.00    +0.000 C 
ATOM      9  H   UNL     1     -10.842   3.306 131.893  0.00  0.00    +0.000 HD
ENDROOT
BRANCH   4  10
ATOM     10  C   UNL     1      -9.936   5.273 130.816  0.00  0.00    +0.000 C 
ATOM     11  C   UNL     1      -9.334   6.364 129.969  0.00  0.00    +0.000 C 
ATOM     12  C   UNL     1     -10.526   7.025 129.428  0.00  0.00    +0.000 A 
ATOM     13  C   UNL     1     -10.523   8.177 128.680  0.00  0.00    +0.000 A 
ATOM     14  C   UNL     1     -11.745   8.595 128.185  0.00  0.00    +0.000 A 
ATOM     15  C   UNL     1     -12.904   7.823 128.390  0.00  0.00    +0.000 A 
ATOM     16  C   UNL     1     -12.860   6.602 129.060  0.00  0.00    +0.000 A 
ATOM     17  C   UNL     1     -11.655   6.219 129.582  0.00  0.00    +0.000 A 
ATOM     18  C   UNL     1     -11.331   4.936 130.251  0.00  0.00    +0.000 C 
ENDBRANCH   4  10
BRANCH   1  19
ATOM     19  C   UNL     1      -7.274   1.615 128.287  0.00  0.00    +0.000 C 
BRANCH  19  20
ATOM     20  C   UNL     1      -8.125   1.243 126.991  0.00  0.00    +0.000 C 
ATOM     21  O   UNL     1      -8.774   2.142 126.433  0.00  0.00    +0.000 OA
ATOM     22  N   UNL     1      -8.086   0.013 126.366  0.00  0.00    +0.000 N 
ATOM     23  C   UNL     1      -7.980  -1.318 126.954  0.00  0.00    +0.000 C 
ATOM     24  C   UNL     1      -7.007  -2.111 126.097  0.00  0.00    +0.000 C 
ATOM     25  O   UNL     1      -7.405  -2.241 124.736  0.00  0.00    +0.000 OA
ATOM     26  C   UNL     1      -7.411  -0.915 124.166  0.00  0.00    +0.000 C 
ATOM     27  C   UNL     1      -8.421  -0.051 124.937  0.00  0.00    +0.000 C 
ENDBRANCH  19  20
BRANCH  19  32
ATOM     28  C   UNL     1      -1.858   3.248 126.805  0.00  0.00    +0.000 C 
ATOM     29  C   UNL     1      -3.283   2.986 127.193  0.00  0.00    +0.000 A 
ATOM     30  C   UNL     1      -4.148   2.601 126.198  0.00  0.00    +0.000 A 
ATOM     31  C   UNL     1      -5.503   2.381 126.483  0.00  0.00    +0.000 A 
ATOM     32  C   UNL     1      -5.944   2.358 127.822  0.00  0.00    +0.000 A 
ATOM     33  C   UNL     1      -5.023   2.897 128.724  0.00  0.00    +0.000 A 
ATOM     34  N   UNL     1      -3.721   3.216 128.443  0.00  0.00    +0.000 NA
ENDBRANCH  19  32
ENDBRANCH   1  19
BRANCH   8  35
ATOM     35  C   UNL     1      -8.378  -0.095 130.594  0.00  0.00    +0.000 C 
BRANCH  35  36
ATOM     36  C   UNL     1      -7.440  -1.079 131.275  0.00  0.00    +0.000 C 
ATOM     37  C   UNL     1      -7.729  -2.345 130.460  0.00  0.00    +0.000 C 
ATOM     38  C   UNL     1      -6.031  -0.358 131.495  0.00  0.00    +0.000 C 
ATOM     39  C   UNL     1      -7.761  -1.524 132.700  0.00  0.00    +0.000 C 
ENDBRANCH  35  36
ENDBRANCH   8  35
TORSDOF 6
ENDMDL
MODEL 4
REMARK VINA RESULT:      -9.9      4.448      8.242
REMARK  Name = CHEMBL2037497
REMARK  10 active torsions:
REMARK  status: ('A' for Active; 'I' for Inactive)
REMARK    1  A    between atoms: C_1  and  C_2
REMARK    2  A    between atoms: C_5  and  C_6
REMARK    3  A    between atoms: C_6  and  C_7
REMARK    4  A    between atoms: C_6  and  N_15
REMARK    5  A    between atoms: CA_18  and  C_19
REMARK    6  A    between atoms: CA_31  and  C_32
REMARK    7  A    between atoms: C_32  and  C_33
REMARK    8  A    between atoms: C_33  and  C_34
REMARK    9  A    between atoms: C_33  and  C_35
REMARK   10  A    between atoms: C_33  and  C_36
REMARK                            x       y       z     vdW  Elec       q    Type
REMARK                         _______ _______ _______ _____ _____    ______ ____
ROOT
ATOM      1  N   UNL     1      -7.721   3.665 130.102  0.00  0.00    +0.000 N 
ATOM      2  C   UNL     1      -8.693   4.670 129.956  0.00  0.00    +0.000 C 
ATOM      3  O   UNL     1      -8.675   5.423 128.974  0.00  0.00    +0.000 OA
ATOM      4  CA  UNL     1      -9.618   4.925 131.218  0.00  0.00    +0.000 C 
ATOM      5  N   UNL     1     -10.165   3.710 131.644  0.00  0.00    +0.000 N 
ATOM      6  C   UNL     1      -9.425   2.618 131.752  0.00  0.00    +0.000 C 
ATOM      7  O   UNL     1     -10.116   1.703 132.129  0.00  0.00    +0.000 OA
ATOM      8  CA  UNL     1      -7.892   2.745 131.316  0.00  0.00    +0.000 C 
ATOM      9  H   UNL     1     -11.155   3.494 131.730  0.00  0.00    +0.000 HD
ENDROOT
BRANCH   4  10
ATOM     10  C   UNL     1     -10.833   5.782 131.014  0.00  0.00    +0.000 C 
ATOM     11  C   UNL     1     -10.494   7.193 130.609  0.00  0.00    +0.000 C 
ATOM     12  C   UNL     1     -11.630   7.547 129.752  0.00  0.00    +0.000 A 
ATOM     13  C   UNL     1     -11.864   8.792 129.220  0.00  0.00    +0.000 A 
ATOM     14  C   UNL     1     -12.943   8.904 128.362  0.00  0.00    +0.000 A 
ATOM     15  C   UNL     1     -13.701   7.771 128.011  0.00  0.00    +0.000 A 
ATOM     16  C   UNL     1     -13.375   6.499 128.480  0.00  0.00    +0.000 A 
ATOM     17  C   UNL     1     -12.333   6.407 129.361  0.00  0.00    +0.000 A 
ATOM     18  C   UNL     1     -11.739   5.171 129.925  0.00  0.00    +0.000 C 
ENDBRANCH   4  10
BRANCH   1  19
ATOM     19  C   UNL     1      -6.525   3.663 129.059  0.00  0.00    +0.000 C 
BRANCH  19  20
ATOM     20  C   UNL     1      -6.926   3.721 127.517  0.00  0.00    +0.000 C 
ATOM     21  O   UNL     1      -6.599   4.723 126.860  0.00  0.00    +0.000 OA
ATOM     22  N   UNL     1      -7.495   2.672 126.825  0.00  0.00    +0.000 N 
ATOM     23  C   UNL     1      -8.483   1.698 127.275  0.00  0.00    +0.000 C 
ATOM     24  C   UNL     1      -8.053   0.342 126.739  0.00  0.00    +0.000 C 
ATOM     25  O   UNL     1      -7.964   0.282 125.319  0.00  0.00    +0.000 OA
ATOM     26  C   UNL     1      -6.917   1.191 124.919  0.00  0.00    +0.000 C 
ATOM     27  C   UNL     1      -7.297   2.610 125.370  0.00  0.00    +0.000 C 
ENDBRANCH  19  20
BRANCH  19  32
ATOM     28  C   UNL     1      -1.774   6.469 130.996  0.00  0.00    +0.000 C 
ATOM     29  C   UNL     1      -3.001   5.860 130.383  0.00  0.00    +0.000 A 
ATOM     30  C   UNL     1      -2.832   4.737 129.610  0.00  0.00    +0.000 A 
ATOM     31  C   UNL     1      -3.929   4.143 128.973  0.00  0.00    +0.000 A 
ATOM     32  C   UNL     1      -5.236   4.572 129.283  0.00  0.00    +0.000 A 
ATOM     33  C   UNL     1      -5.280   5.795 129.958  0.00  0.00    +0.000 A 
ATOM     34  N   UNL     1      -4.205   6.446 130.501  0.00  0.00    +0.000 NA
ENDBRANCH  19  32
ENDBRANCH   1  19
BRANCH   8  35
ATOM     35  C   UNL     1      -7.388   1.376 130.928  0.00  0.00    +0.000 C 
BRANCH  35  36
ATOM     36  C   UNL     1      -6.056   0.880 131.471  0.00  0.00    +0.000 C 
ATOM     37  C   UNL     1      -6.531   0.123 132.717  0.00  0.00    +0.000 C 
ATOM     38  C   UNL     1      -5.197   0.313 130.249  0.00  0.00    +0.000 C 
ATOM     39  C   UNL     1      -5.084   1.901 132.057  0.00  0.00    +0.000 C 
ENDBRANCH  35  36
ENDBRANCH   8  35
TORSDOF 6
ENDMDL
MODEL 5
REMARK VINA RESULT:      -9.8      4.622      8.042
REMARK  Name = CHEMBL2037497
REMARK  10 active torsions:
REMARK  status: ('A' for Active; 'I' for Inactive)
REMARK    1  A    between atoms: C_1  and  C_2
REMARK    2  A    between atoms: C_5  and  C_6
REMARK    3  A    between atoms: C_6  and  C_7
REMARK    4  A    between atoms: C_6  and  N_15
REMARK    5  A    between atoms: CA_18  and  C_19
REMARK    6  A    between atoms: CA_31  and  C_32
REMARK    7  A    between atoms: C_32  and  C_33
REMARK    8  A    between atoms: C_33  and  C_34
REMARK    9  A    between atoms: C_33  and  C_35
REMARK   10  A    between atoms: C_33  and  C_36
REMARK                            x       y       z     vdW  Elec       q    Type
REMARK                         _______ _______ _______ _____ _____    ______ ____
ROOT
ATOM      1  N   UNL     1      -7.816   3.808 130.036  0.00  0.00    +0.000 N 
ATOM      2  C   UNL     1      -8.813   4.788 129.899  0.00  0.00    +0.000 C 
ATOM      3  O   UNL     1      -8.789   5.580 128.948  0.00  0.00    +0.000 OA
ATOM      4  CA  UNL     1      -9.783   4.967 131.140  0.00  0.00    +0.000 C 
ATOM      5  N   UNL     1     -10.305   3.720 131.502  0.00  0.00    +0.000 N 
ATOM      6  C   UNL     1      -9.535   2.647 131.592  0.00  0.00    +0.000 C 
ATOM      7  O   UNL     1     -10.209   1.698 131.911  0.00  0.00    +0.000 OA
ATOM      8  CA  UNL     1      -7.995   2.836 131.208  0.00  0.00    +0.000 C 
ATOM      9  H   UNL     1     -11.289   3.472 131.549  0.00  0.00    +0.000 HD
ENDROOT
BRANCH   4  10
ATOM     10  C   UNL     1     -11.017   5.795 130.931  0.00  0.00    +0.000 C 
ATOM     11  C   UNL     1     -10.710   7.239 130.632  0.00  0.00    +0.000 C 
ATOM     12  C   UNL     1     -11.818   7.610 129.745  0.00  0.00    +0.000 A 
ATOM     13  C   UNL     1     -12.071   8.878 129.281  0.00  0.00    +0.000 A 
ATOM     14  C   UNL     1     -13.112   9.009 128.380  0.00  0.00    +0.000 A 
ATOM     15  C   UNL     1     -13.813   7.876 127.923  0.00  0.00    +0.000 A 
ATOM     16  C   UNL     1     -13.464   6.589 128.327  0.00  0.00    +0.000 A 
ATOM     17  C   UNL     1     -12.461   6.474 129.250  0.00  0.00    +0.000 A 
ATOM     18  C   UNL     1     -11.849   5.225 129.765  0.00  0.00    +0.000 C 
ENDBRANCH   4  10
BRANCH   1  19
ATOM     19  C   UNL     1      -6.590   3.882 129.032  0.00  0.00    +0.000 C 
BRANCH  19  20
ATOM     20  C   UNL     1      -5.134   3.865 129.683  0.00  0.00    +0.000 C 
ATOM     21  O   UNL     1      -4.480   2.811 129.638  0.00  0.00    +0.000 OA
ATOM     22  N   UNL     1      -4.495   4.983 130.177  0.00  0.00    +0.000 N 
ATOM     23  C   UNL     1      -5.051   6.119 130.904  0.00  0.00    +0.000 C 
ATOM     24  C   UNL     1      -4.393   7.372 130.350  0.00  0.00    +0.000 C 
ATOM     25  O   UNL     1      -2.976   7.391 130.486  0.00  0.00    +0.000 OA
ATOM     26  C   UNL     1      -2.457   6.311 129.682  0.00  0.00    +0.000 C 
ATOM     27  C   UNL     1      -3.025   4.985 130.212  0.00  0.00    +0.000 C 
ENDBRANCH  19  20
BRANCH  19  32
ATOM     28  C   UNL     1      -7.179   1.573 123.691  0.00  0.00    +0.000 C 
ATOM     29  C   UNL     1      -6.979   2.020 125.110  0.00  0.00    +0.000 A 
ATOM     30  C   UNL     1      -5.846   2.743 125.391  0.00  0.00    +0.000 A 
ATOM     31  C   UNL     1      -5.576   3.155 126.704  0.00  0.00    +0.000 A 
ATOM     32  C   UNL     1      -6.560   3.005 127.702  0.00  0.00    +0.000 A 
ATOM     33  C   UNL     1      -7.597   2.141 127.342  0.00  0.00    +0.000 A 
ATOM     34  N   UNL     1      -7.823   1.643 126.086  0.00  0.00    +0.000 NA
ENDBRANCH  19  32
ENDBRANCH   1  19
BRANCH   8  35
ATOM     35  C   UNL     1      -7.437   1.499 130.784  0.00  0.00    +0.000 C 
BRANCH  35  36
ATOM     36  C   UNL     1      -6.656   0.656 131.780  0.00  0.00    +0.000 C 
ATOM     37  C   UNL     1      -6.051   1.758 132.658  0.00  0.00    +0.000 C 
ATOM     38  C   UNL     1      -7.581  -0.563 132.239  0.00  0.00    +0.000 C 
ATOM     39  C   UNL     1      -5.418  -0.090 131.289  0.00  0.00    +0.000 C 
ENDBRANCH  35  36
ENDBRANCH   8  35
TORSDOF 6
ENDMDL
MODEL 6
REMARK VINA RESULT:      -9.7      4.394      8.198
REMARK  Name = CHEMBL2037497
REMARK  10 active torsions:
REMARK  status: ('A' for Active; 'I' for Inactive)
REMARK    1  A    between atoms: C_1  and  C_2
REMARK    2  A    between atoms: C_5  and  C_6
REMARK    3  A    between atoms: C_6  and  C_7
REMARK    4  A    between atoms: C_6  and  N_15
REMARK    5  A    between atoms: CA_18  and  C_19
REMARK    6  A    between atoms: CA_31  and  C_32
REMARK    7  A    between atoms: C_32  and  C_33
REMARK    8  A    between atoms: C_33  and  C_34
REMARK    9  A    between atoms: C_33  and  C_35
REMARK   10  A    between atoms: C_33  and  C_36
REMARK                            x       y       z     vdW  Elec       q    Type
REMARK                         _______ _______ _______ _____ _____    ______ ____
ROOT
ATOM      1  N   UNL     1      -5.825   2.695 129.585  0.00  0.00    +0.000 N 
ATOM      2  C   UNL     1      -6.230   1.378 129.307  0.00  0.00    +0.000 C 
ATOM      3  O   UNL     1      -7.294   0.940 129.761  0.00  0.00    +0.000 OA
ATOM      4  CA  UNL     1      -5.145   0.452 128.615  0.00  0.00    +0.000 C 
ATOM      5  N   UNL     1      -4.632   1.104 127.488  0.00  0.00    +0.000 N 
ATOM      6  C   UNL     1      -4.282   2.380 127.525  0.00  0.00    +0.000 C 
ATOM      7  O   UNL     1      -3.878   2.714 126.439  0.00  0.00    +0.000 OA
ATOM      8  CA  UNL     1      -4.529   3.150 128.904  0.00  0.00    +0.000 C 
ATOM      9  H   UNL     1      -4.646   0.754 126.533  0.00  0.00    +0.000 HD
ENDROOT
BRANCH   4  10
ATOM     10  C   UNL     1      -5.619  -0.856 128.054  0.00  0.00    +0.000 C 
ATOM     11  C   UNL     1      -6.230  -1.755 129.098  0.00  0.00    +0.000 C 
ATOM     12  C   UNL     1      -7.246  -2.476 128.326  0.00  0.00    +0.000 A 
ATOM     13  C   UNL     1      -8.010  -3.516 128.797  0.00  0.00    +0.000 A 
ATOM     14  C   UNL     1      -8.980  -4.006 127.942  0.00  0.00    +0.000 A 
ATOM     15  C   UNL     1      -9.201  -3.406 126.687  0.00  0.00    +0.000 A 
ATOM     16  C   UNL     1      -8.485  -2.282 126.278  0.00  0.00    +0.000 A 
ATOM     17  C   UNL     1      -7.500  -1.831 127.113  0.00  0.00    +0.000 A 
ATOM     18  C   UNL     1      -6.669  -0.614 126.951  0.00  0.00    +0.000 C 
ENDBRANCH   4  10
BRANCH   1  19
ATOM     19  C   UNL     1      -6.693   3.510 130.633  0.00  0.00    +0.000 C 
BRANCH  19  20
ATOM     20  C   UNL     1      -6.013   3.806 132.044  0.00  0.00    +0.000 C 
ATOM     21  O   UNL     1      -4.799   4.068 132.071  0.00  0.00    +0.000 OA
ATOM     22  N   UNL     1      -6.710   3.924 133.229  0.00  0.00    +0.000 N 
ATOM     23  C   UNL     1      -7.872   3.177 133.696  0.00  0.00    +0.000 C 
ATOM     24  C   UNL     1      -8.815   4.174 134.348  0.00  0.00    +0.000 C 
ATOM     25  O   UNL     1      -8.247   4.872 135.452  0.00  0.00    +0.000 OA
ATOM     26  C   UNL     1      -7.159   5.668 134.937  0.00  0.00    +0.000 C 
ATOM     27  C   UNL     1      -6.117   4.731 134.306  0.00  0.00    +0.000 C 
ENDBRANCH  19  20
BRANCH  19  32
ATOM     28  C   UNL     1     -10.667   7.682 129.631  0.00  0.00    +0.000 C 
ATOM     29  C   UNL     1      -9.561   6.677 129.769  0.00  0.00    +0.000 A 
ATOM     30  C   UNL     1      -8.679   6.846 130.808  0.00  0.00    +0.000 A 
ATOM     31  C   UNL     1      -7.598   5.969 130.970  0.00  0.00    +0.000 A 
ATOM     32  C   UNL     1      -7.524   4.795 130.192  0.00  0.00    +0.000 A 
ATOM     33  C   UNL     1      -8.381   4.800 129.087  0.00  0.00    +0.000 A 
ATOM     34  N   UNL     1      -9.380   5.708 128.855  0.00  0.00    +0.000 NA
ENDBRANCH  19  32
ENDBRANCH   1  19
BRANCH   8  35
ATOM     35  C   UNL     1      -4.659   4.626 128.613  0.00  0.00    +0.000 C 
BRANCH  35  36
ATOM     36  C   UNL     1      -3.586   5.588 129.098  0.00  0.00    +0.000 C 
ATOM     37  C   UNL     1      -2.710   5.681 127.843  0.00  0.00    +0.000 C 
ATOM     38  C   UNL     1      -4.301   6.783 129.881  0.00  0.00    +0.000 C 
ATOM     39  C   UNL     1      -2.596   5.103 130.155  0.00  0.00    +0.000 C 
ENDBRANCH  35  36
ENDBRANCH   8  35
TORSDOF 6
ENDMDL
MODEL 7
REMARK VINA RESULT:      -9.7      4.886      8.723
REMARK  Name = CHEMBL2037497
REMARK  10 active torsions:
REMARK  status: ('A' for Active; 'I' for Inactive)
REMARK    1  A    between atoms: C_1  and  C_2
REMARK    2  A    between atoms: C_5  and  C_6
REMARK    3  A    between atoms: C_6  and  C_7
REMARK    4  A    between atoms: C_6  and  N_15
REMARK    5  A    between atoms: CA_18  and  C_19
REMARK    6  A    between atoms: CA_31  and  C_32
REMARK    7  A    between atoms: C_32  and  C_33
REMARK    8  A    between atoms: C_33  and  C_34
REMARK    9  A    between atoms: C_33  and  C_35
REMARK   10  A    between atoms: C_33  and  C_36
REMARK                            x       y       z     vdW  Elec       q    Type
REMARK                         _______ _______ _______ _____ _____    ______ ____
ROOT
ATOM      1  N   UNL     1      -6.512   3.678 130.395  0.00  0.00    +0.000 N 
ATOM      2  C   UNL     1      -5.577   4.697 130.146  0.00  0.00    +0.000 C 
ATOM      3  O   UNL     1      -5.809   5.568 129.298  0.00  0.00    +0.000 OA
ATOM      4  CA  UNL     1      -4.152   4.508 130.816  0.00  0.00    +0.000 C 
ATOM      5  N   UNL     1      -4.314   4.252 132.182  0.00  0.00    +0.000 N 
ATOM      6  C   UNL     1      -5.217   3.390 132.623  0.00  0.00    +0.000 C 
ATOM      7  O   UNL     1      -5.171   3.347 133.828  0.00  0.00    +0.000 OA
ATOM      8  CA  UNL     1      -6.149   2.703 131.522  0.00  0.00    +0.000 C 
ATOM      9  H   UNL     1      -3.921   4.796 132.945  0.00  0.00    +0.000 HD
ENDROOT
BRANCH   4  10
ATOM     10  C   UNL     1      -3.229   5.690 130.807  0.00  0.00    +0.000 C 
ATOM     11  C   UNL     1      -3.798   6.884 131.529  0.00  0.00    +0.000 C 
ATOM     12  C   UNL     1      -2.592   7.518 132.071  0.00  0.00    +0.000 A 
ATOM     13  C   UNL     1      -2.555   8.729 132.720  0.00  0.00    +0.000 A 
ATOM     14  C   UNL     1      -1.333   9.115 133.237  0.00  0.00    +0.000 A 
ATOM     15  C   UNL     1      -0.216   8.262 133.154  0.00  0.00    +0.000 A 
ATOM     16  C   UNL     1      -0.307   6.992 132.587  0.00  0.00    +0.000 A 
ATOM     17  C   UNL     1      -1.510   6.637 132.040  0.00  0.00    +0.000 A 
ATOM     18  C   UNL     1      -1.885   5.322 131.466  0.00  0.00    +0.000 C 
ENDBRANCH   4  10
BRANCH   1  19
ATOM     19  C   UNL     1      -7.769   3.602 129.430  0.00  0.00    +0.000 C 
BRANCH  19  20
ATOM     20  C   UNL     1      -8.621   4.939 129.264  0.00  0.00    +0.000 C 
ATOM     21  O   UNL     1      -8.900   5.322 128.117  0.00  0.00    +0.000 OA
ATOM     22  N   UNL     1      -9.186   5.632 130.315  0.00  0.00    +0.000 N 
ATOM     23  C   UNL     1      -8.659   5.868 131.655  0.00  0.00    +0.000 C 
ATOM     24  C   UNL     1      -9.810   5.686 132.629  0.00  0.00    +0.000 C 
ATOM     25  O   UNL     1     -10.904   6.569 132.405  0.00  0.00    +0.000 OA
ATOM     26  C   UNL     1     -11.455   6.245 131.111  0.00  0.00    +0.000 C 
ATOM     27  C   UNL     1     -10.369   6.460 130.045  0.00  0.00    +0.000 C 
ENDBRANCH  19  20
BRANCH  19  32
ATOM     28  C   UNL     1      -6.668   0.181 124.816  0.00  0.00    +0.000 C 
ATOM     29  C   UNL     1      -7.007   1.168 125.895  0.00  0.00    +0.000 A 
ATOM     30  C   UNL     1      -8.149   0.941 126.623  0.00  0.00    +0.000 A 
ATOM     31  C   UNL     1      -8.547   1.846 127.617  0.00  0.00    +0.000 A 
ATOM     32  C   UNL     1      -7.676   2.881 128.012  0.00  0.00    +0.000 A 
ATOM     33  C   UNL     1      -6.623   3.100 127.120  0.00  0.00    +0.000 A 
ATOM     34  N   UNL     1      -6.277   2.282 126.077  0.00  0.00    +0.000 NA
ENDBRANCH  19  32
ENDBRANCH   1  19
BRANCH   8  35
ATOM     35  C   UNL     1      -7.435   2.269 132.183  0.00  0.00    +0.000 C 
BRANCH  35  36
ATOM     36  C   UNL     1      -7.938   0.846 131.995  0.00  0.00    +0.000 C 
ATOM     37  C   UNL     1      -7.090   0.113 133.041  0.00  0.00    +0.000 C 
ATOM     38  C   UNL     1      -9.531   0.889 131.882  0.00  0.00    +0.000 C 
ATOM     39  C   UNL     1      -7.577   0.111 130.705  0.00  0.00    +0.000 C 
ENDBRANCH  35  36
ENDBRANCH   8  35
TORSDOF 6
ENDMDL
MODEL 8
REMARK VINA RESULT:      -9.7      2.467      5.312
REMARK  Name = CHEMBL2037497
REMARK  10 active torsions:
REMARK  status: ('A' for Active; 'I' for Inactive)
REMARK    1  A    between atoms: C_1  and  C_2
REMARK    2  A    between atoms: C_5  and  C_6
REMARK    3  A    between atoms: C_6  and  C_7
REMARK    4  A    between atoms: C_6  and  N_15
REMARK    5  A    between atoms: CA_18  and  C_19
REMARK    6  A    between atoms: CA_31  and  C_32
REMARK    7  A    between atoms: C_32  and  C_33
REMARK    8  A    between atoms: C_33  and  C_34
REMARK    9  A    between atoms: C_33  and  C_35
REMARK   10  A    between atoms: C_33  and  C_36
REMARK                            x       y       z     vdW  Elec       q    Type
REMARK                         _______ _______ _______ _____ _____    ______ ____
ROOT
ATOM      1  N   UNL     1      -6.509   2.388 126.449  0.00  0.00    +0.000 N 
ATOM      2  C   UNL     1      -6.850   2.006 125.141  0.00  0.00    +0.000 C 
ATOM      3  O   UNL     1      -7.568   1.017 124.942  0.00  0.00    +0.000 OA
ATOM      4  CA  UNL     1      -6.069   2.747 123.977  0.00  0.00    +0.000 C 
ATOM      5  N   UNL     1      -6.157   4.130 124.170  0.00  0.00    +0.000 N 
ATOM      6  C   UNL     1      -5.962   4.677 125.360  0.00  0.00    +0.000 C 
ATOM      7  O   UNL     1      -6.096   5.873 125.276  0.00  0.00    +0.000 OA
ATOM      8  CA  UNL     1      -5.682   3.673 126.572  0.00  0.00    +0.000 C 
ATOM      9  H   UNL     1      -6.537   4.806 123.513  0.00  0.00    +0.000 HD
ENDROOT
BRANCH   4  10
ATOM     10  C   UNL     1      -6.594   2.574 122.582  0.00  0.00    +0.000 C 
ATOM     11  C   UNL     1      -8.034   2.992 122.440  0.00  0.00    +0.000 C 
ATOM     12  C   UNL     1      -8.075   3.489 121.062  0.00  0.00    +0.000 A 
ATOM     13  C   UNL     1      -9.209   3.881 120.393  0.00  0.00    +0.000 A 
ATOM     14  C   UNL     1      -9.030   4.407 119.127  0.00  0.00    +0.000 A 
ATOM     15  C   UNL     1      -7.735   4.588 118.602  0.00  0.00    +0.000 A 
ATOM     16  C   UNL     1      -6.596   4.283 119.345  0.00  0.00    +0.000 A 
ATOM     17  C   UNL     1      -6.786   3.725 120.579  0.00  0.00    +0.000 A 
ATOM     18  C   UNL     1      -5.751   3.400 121.589  0.00  0.00    +0.000 C 
ENDBRANCH   4  10
BRANCH   1  19
ATOM     19  C   UNL     1      -6.933   1.406 127.620  0.00  0.00    +0.000 C 
BRANCH  19  20
ATOM     20  C   UNL     1      -5.937   0.200 127.934  0.00  0.00    +0.000 C 
ATOM     21  O   UNL     1      -4.739   0.460 128.128  0.00  0.00    +0.000 OA
ATOM     22  N   UNL     1      -6.341  -1.104 128.137  0.00  0.00    +0.000 N 
ATOM     23  C   UNL     1      -7.400  -1.856 127.474  0.00  0.00    +0.000 C 
ATOM     24  C   UNL     1      -8.123  -2.653 128.546  0.00  0.00    +0.000 C 
ATOM     25  O   UNL     1      -7.289  -3.564 129.254  0.00  0.00    +0.000 OA
ATOM     26  C   UNL     1      -6.311  -2.778 129.968  0.00  0.00    +0.000 C 
ATOM     27  C   UNL     1      -5.483  -1.977 128.951  0.00  0.00    +0.000 C 
ENDBRANCH  19  20
BRANCH  19  32
ATOM     28  C   UNL     1      -9.573   2.354 132.752  0.00  0.00    +0.000 C 
ATOM     29  C   UNL     1      -8.872   2.270 131.427  0.00  0.00    +0.000 A 
ATOM     30  C   UNL     1      -7.565   1.851 131.429  0.00  0.00    +0.000 A 
ATOM     31  C   UNL     1      -6.838   1.790 130.232  0.00  0.00    +0.000 A 
ATOM     32  C   UNL     1      -7.501   1.965 129.000  0.00  0.00    +0.000 A 
ATOM     33  C   UNL     1      -8.777   2.521 129.123  0.00  0.00    +0.000 A 
ATOM     34  N   UNL     1      -9.467   2.684 130.295  0.00  0.00    +0.000 NA
ENDBRANCH  19  32
ENDBRANCH   1  19
BRANCH   8  35
ATOM     35  C   UNL     1      -6.080   4.352 127.860  0.00  0.00    +0.000 C 
BRANCH  35  36
ATOM     36  C   UNL     1      -5.008   4.790 128.846  0.00  0.00    +0.000 C 
ATOM     37  C   UNL     1      -5.883   5.254 130.017  0.00  0.00    +0.000 C 
ATOM     38  C   UNL     1      -3.860   3.679 128.864  0.00  0.00    +0.000 C 
ATOM     39  C   UNL     1      -4.193   6.041 128.527  0.00  0.00    +0.000 C 
ENDBRANCH  35  36
ENDBRANCH   8  35
TORSDOF 6
ENDMDL
MODEL 9
REMARK VINA RESULT:      -9.6      4.397      8.021
REMARK  Name = CHEMBL2037497
REMARK  10 active torsions:
REMARK  status: ('A' for Active; 'I' for Inactive)
REMARK    1  A    between atoms: C_1  and  C_2
REMARK    2  A    between atoms: C_5  and  C_6
REMARK    3  A    between atoms: C_6  and  C_7
REMARK    4  A    between atoms: C_6  and  N_15
REMARK    5  A    between atoms: CA_18  and  C_19
REMARK    6  A    between atoms: CA_31  and  C_32
REMARK    7  A    between atoms: C_32  and  C_33
REMARK    8  A    between atoms: C_33  and  C_34
REMARK    9  A    between atoms: C_33  and  C_35
REMARK   10  A    between atoms: C_33  and  C_36
REMARK                            x       y       z     vdW  Elec       q    Type
REMARK                         _______ _______ _______ _____ _____    ______ ____
ROOT
ATOM      1  N   UNL     1      -7.287   3.823 130.533  0.00  0.00    +0.000 N 
ATOM      2  C   UNL     1      -8.219   4.805 130.157  0.00  0.00    +0.000 C 
ATOM      3  O   UNL     1      -8.422   5.054 128.962  0.00  0.00    +0.000 OA
ATOM      4  CA  UNL     1      -8.777   5.714 131.331  0.00  0.00    +0.000 C 
ATOM      5  N   UNL     1      -9.248   4.897 132.365  0.00  0.00    +0.000 N 
ATOM      6  C   UNL     1      -8.552   3.857 132.796  0.00  0.00    +0.000 C 
ATOM      7  O   UNL     1      -9.162   3.308 133.681  0.00  0.00    +0.000 OA
ATOM      8  CA  UNL     1      -7.180   3.548 132.037  0.00  0.00    +0.000 C 
ATOM      9  H   UNL     1     -10.190   4.893 132.746  0.00  0.00    +0.000 HD
ENDROOT
BRANCH   4  10
ATOM     10  C   UNL     1      -9.965   6.577 131.023  0.00  0.00    +0.000 C 
ATOM     11  C   UNL     1      -9.699   7.571 129.923  0.00  0.00    +0.000 C 
ATOM     12  C   UNL     1     -11.015   7.685 129.287  0.00  0.00    +0.000 A 
ATOM     13  C   UNL     1     -11.341   8.573 128.290  0.00  0.00    +0.000 A 
ATOM     14  C   UNL     1     -12.612   8.464 127.758  0.00  0.00    +0.000 A 
ATOM     15  C   UNL     1     -13.483   7.442 128.181  0.00  0.00    +0.000 A 
ATOM     16  C   UNL     1     -13.088   6.486 129.116  0.00  0.00    +0.000 A 
ATOM     17  C   UNL     1     -11.845   6.628 129.667  0.00  0.00    +0.000 A 
ATOM     18  C   UNL     1     -11.165   5.702 130.604  0.00  0.00    +0.000 C 
ENDBRANCH   4  10
BRANCH   1  19
ATOM     19  C   UNL     1      -6.401   3.192 129.378  0.00  0.00    +0.000 C 
BRANCH  19  20
ATOM     20  C   UNL     1      -4.864   3.613 129.350  0.00  0.00    +0.000 C 
ATOM     21  O   UNL     1      -4.214   3.545 130.406  0.00  0.00    +0.000 OA
ATOM     22  N   UNL     1      -4.167   3.922 128.200  0.00  0.00    +0.000 N 
ATOM     23  C   UNL     1      -4.616   4.641 127.013  0.00  0.00    +0.000 C 
ATOM     24  C   UNL     1      -4.062   3.904 125.805  0.00  0.00    +0.000 C 
ATOM     25  O   UNL     1      -2.641   3.821 125.778  0.00  0.00    +0.000 OA
ATOM     26  C   UNL     1      -2.240   3.027 126.916  0.00  0.00    +0.000 C 
ATOM     27  C   UNL     1      -2.709   3.732 128.198  0.00  0.00    +0.000 C 
ENDBRANCH  19  20
BRANCH  19  32
ATOM     28  C   UNL     1      -6.473  -2.653 129.199  0.00  0.00    +0.000 C 
ATOM     29  C   UNL     1      -6.453  -1.157 129.084  0.00  0.00    +0.000 A 
ATOM     30  C   UNL     1      -7.638  -0.491 129.283  0.00  0.00    +0.000 A 
ATOM     31  C   UNL     1      -7.699   0.902 129.149  0.00  0.00    +0.000 A 
ATOM     32  C   UNL     1      -6.510   1.646 129.007  0.00  0.00    +0.000 A 
ATOM     33  C   UNL     1      -5.397   0.868 128.676  0.00  0.00    +0.000 A 
ATOM     34  N   UNL     1      -5.344  -0.501 128.702  0.00  0.00    +0.000 NA
ENDBRANCH  19  32
ENDBRANCH   1  19
BRANCH   8  35
ATOM     35  C   UNL     1      -6.851   2.085 132.213  0.00  0.00    +0.000 C 
BRANCH  35  36
ATOM     36  C   UNL     1      -5.705   1.672 133.123  0.00  0.00    +0.000 C 
ATOM     37  C   UNL     1      -5.036   0.600 132.255  0.00  0.00    +0.000 C 
ATOM     38  C   UNL     1      -5.042   2.995 133.726  0.00  0.00    +0.000 C 
ATOM     39  C   UNL     1      -6.031   0.904 134.402  0.00  0.00    +0.000 C 
ENDBRANCH  35  36
ENDBRANCH   8  35
TORSDOF 6
ENDMDL
