MODEL 1
REMARK VINA RESULT:     -10.9      0.000      0.000
REMARK  Name = CHEMBL284410
REMARK  6 active torsions:
REMARK  status: ('A' for Active; 'I' for Inactive)
REMARK    1  A    between atoms: C_1  and  S_2
REMARK    2  A    between atoms: S_2  and  N_5
REMARK    3  A    between atoms: C_9  and  C_10
REMARK    4  A    between atoms: C_10  and  N_11
REMARK    5  A    between atoms: C_16  and  C_17
REMARK    6  A    between atoms: C_22  and  N_23
REMARK                            x       y       z     vdW  Elec       q    Type
REMARK                         _______ _______ _______ _____ _____    ______ ____
ROOT
ATOM      1  N   UNL     1      -7.632  -2.514 128.089  0.00  0.00    +0.000 N 
ATOM      2  C   UNL     1      -7.569  -3.514 129.013  0.00  0.00    +0.000 A 
ATOM      3  C   UNL     1      -7.348  -2.945 130.237  0.00  0.00    +0.000 A 
ATOM      4  C   UNL     1      -7.251  -1.541 130.057  0.00  0.00    +0.000 A 
ATOM      5  C   UNL     1      -7.011  -0.463 130.940  0.00  0.00    +0.000 A 
ATOM      6  C   UNL     1      -6.968   0.863 130.459  0.00  0.00    +0.000 A 
ATOM      7  C   UNL     1      -7.143   1.070 129.090  0.00  0.00    +0.000 A 
ATOM      8  C   UNL     1      -7.401   0.024 128.189  0.00  0.00    +0.000 A 
ATOM      9  C   UNL     1      -7.441  -1.283 128.697  0.00  0.00    +0.000 A 
ENDROOT
BRANCH   6  10
ATOM     10  C   UNL     1      -6.621   2.002 131.396  0.00  0.00    +0.000 C 
ATOM     11  O   UNL     1      -5.525   1.980 131.956  0.00  0.00    +0.000 OA
ATOM     12  N   UNL     1      -7.501   3.103 131.512  0.00  0.00    +0.000 N 
ATOM     13  C   UNL     1      -7.042   4.449 131.171  0.00  0.00    +0.000 C 
ATOM     14  C   UNL     1      -7.448   5.491 132.200  0.00  0.00    +0.000 C 
ATOM     15  C   UNL     1      -9.201   5.698 132.141  0.00  0.00    +0.000 C 
ATOM     16  C   UNL     1      -9.390   4.100 132.785  0.00  0.00    +0.000 C 
ATOM     17  C   UNL     1      -8.926   2.996 131.839  0.00  0.00    +0.000 C 
BRANCH  15  18
ATOM     18  N   UNL     1      -9.799   6.844 130.803  0.00  0.00    +0.000 N 
ATOM     19  C   UNL     1     -11.060   6.604 131.443  0.00  0.00    +0.000 C 
ATOM     20  O   UNL     1     -11.377   6.724 132.663  0.00  0.00    +0.000 OA
ATOM     21  O   UNL     1     -11.964   5.983 130.720  0.00  0.00    +0.000 OA
ATOM     22  C   UNL     1     -12.637   7.116 130.328  0.00  0.00    +0.000 C 
ATOM     23  C   UNL     1     -11.953   7.080 129.043  0.00  0.00    +0.000 A 
ATOM     24  C   UNL     1     -12.878   6.910 127.897  0.00  0.00    +0.000 A 
ATOM     25  C   UNL     1     -12.577   7.165 126.588  0.00  0.00    +0.000 A 
ATOM     26  C   UNL     1     -11.446   7.934 126.525  0.00  0.00    +0.000 A 
ATOM     27  C   UNL     1     -10.475   8.069 127.815  0.00  0.00    +0.000 A 
ATOM     28  C   UNL     1     -10.538   7.222 129.134  0.00  0.00    +0.000 A 
ENDBRANCH  15  18
ENDBRANCH   6  10
BRANCH   1  29
ATOM     29  C   UNL     1      -7.837  -2.706 126.669  0.00  0.00    +0.000 C 
BRANCH  29  34
ATOM     30  N   UNL     1      -7.416  -0.921 124.842  0.00  0.00    +0.000 NA
ATOM     31  C   UNL     1      -6.641  -1.043 123.547  0.00  0.00    +0.000 C 
ATOM     32  C   UNL     1      -6.571  -2.541 123.333  0.00  0.00    +0.000 C 
ATOM     33  C   UNL     1      -6.200  -3.039 124.709  0.00  0.00    +0.000 C 
ATOM     34  C   UNL     1      -6.843  -2.048 125.706  0.00  0.00    +0.000 C 
BRANCH  30  36
ATOM     35  C   UNL     1      -9.309   0.111 123.054  0.00  0.00    +0.000 C 
ATOM     36  S   UNL     1      -9.111  -0.907 124.510  0.00  0.00    +0.000 S 
ATOM     37  O   UNL     1      -9.772  -0.251 125.617  0.00  0.00    +0.000 OA
ATOM     38  O   UNL     1      -9.487  -2.255 124.137  0.00  0.00    +0.000 OA
ENDBRANCH  30  36
ENDBRANCH  29  34
ENDBRANCH   1  29
TORSDOF 5
ENDMDL
MODEL 2
REMARK VINA RESULT:     -10.8      1.224      1.356
REMARK  Name = CHEMBL284410
REMARK  6 active torsions:
REMARK  status: ('A' for Active; 'I' for Inactive)
REMARK    1  A    between atoms: C_1  and  S_2
REMARK    2  A    between atoms: S_2  and  N_5
REMARK    3  A    between atoms: C_9  and  C_10
REMARK    4  A    between atoms: C_10  and  N_11
REMARK    5  A    between atoms: C_16  and  C_17
REMARK    6  A    between atoms: C_22  and  N_23
REMARK                            x       y       z     vdW  Elec       q    Type
REMARK                         _______ _______ _______ _____ _____    ______ ____
ROOT
ATOM      1  N   UNL     1      -6.861  -1.976 127.393  0.00  0.00    +0.000 N 
ATOM      2  C   UNL     1      -5.661  -2.620 127.450  0.00  0.00    +0.000 A 
ATOM      3  C   UNL     1      -4.861  -1.947 128.333  0.00  0.00    +0.000 A 
ATOM      4  C   UNL     1      -5.591  -0.834 128.824  0.00  0.00    +0.000 A 
ATOM      5  C   UNL     1      -5.279   0.210 129.726  0.00  0.00    +0.000 A 
ATOM      6  C   UNL     1      -6.232   1.205 130.029  0.00  0.00    +0.000 A 
ATOM      7  C   UNL     1      -7.473   1.139 129.394  0.00  0.00    +0.000 A 
ATOM      8  C   UNL     1      -7.821   0.107 128.509  0.00  0.00    +0.000 A 
ATOM      9  C   UNL     1      -6.854  -0.870 128.228  0.00  0.00    +0.000 A 
ENDROOT
BRANCH   6  10
ATOM     10  C   UNL     1      -5.859   2.369 130.925  0.00  0.00    +0.000 C 
ATOM     11  O   UNL     1      -4.702   2.433 131.342  0.00  0.00    +0.000 OA
ATOM     12  N   UNL     1      -6.800   3.397 131.160  0.00  0.00    +0.000 N 
ATOM     13  C   UNL     1      -6.494   4.776 130.775  0.00  0.00    +0.000 C 
ATOM     14  C   UNL     1      -6.847   5.783 131.856  0.00  0.00    +0.000 C 
ATOM     15  C   UNL     1      -8.604   5.853 132.019  0.00  0.00    +0.000 C 
ATOM     16  C   UNL     1      -8.585   4.246 132.669  0.00  0.00    +0.000 C 
ATOM     17  C   UNL     1      -8.159   3.180 131.663  0.00  0.00    +0.000 C 
BRANCH  15  18
ATOM     18  N   UNL     1      -9.454   6.947 130.778  0.00  0.00    +0.000 N 
ATOM     19  C   UNL     1     -10.606   6.588 131.553  0.00  0.00    +0.000 C 
ATOM     20  O   UNL     1     -10.789   6.671 132.803  0.00  0.00    +0.000 OA
ATOM     21  O   UNL     1     -11.526   5.891 130.928  0.00  0.00    +0.000 OA
ATOM     22  C   UNL     1     -12.340   6.959 130.633  0.00  0.00    +0.000 C 
ATOM     23  C   UNL     1     -11.809   6.993 129.279  0.00  0.00    +0.000 A 
ATOM     24  C   UNL     1     -12.840   6.746 128.243  0.00  0.00    +0.000 A 
ATOM     25  C   UNL     1     -12.716   7.034 126.913  0.00  0.00    +0.000 A 
ATOM     26  C   UNL     1     -11.674   7.904 126.734  0.00  0.00    +0.000 A 
ATOM     27  C   UNL     1     -10.578   8.120 127.906  0.00  0.00    +0.000 A 
ATOM     28  C   UNL     1     -10.411   7.264 129.210  0.00  0.00    +0.000 A 
ENDBRANCH  15  18
ENDBRANCH   6  10
BRANCH   1  29
ATOM     29  C   UNL     1      -7.976  -2.368 126.558  0.00  0.00    +0.000 C 
BRANCH  29  34
ATOM     30  N   UNL     1      -7.802  -1.453 124.143  0.00  0.00    +0.000 NA
ATOM     31  C   UNL     1      -8.317  -2.055 122.853  0.00  0.00    +0.000 C 
ATOM     32  C   UNL     1      -9.352  -3.051 123.333  0.00  0.00    +0.000 C 
ATOM     33  C   UNL     1      -8.630  -3.730 124.472  0.00  0.00    +0.000 C 
ATOM     34  C   UNL     1      -7.695  -2.659 125.080  0.00  0.00    +0.000 C 
BRANCH  30  36
ATOM     35  C   UNL     1      -9.555   0.466 123.098  0.00  0.00    +0.000 C 
ATOM     36  S   UNL     1      -8.801  -0.123 124.608  0.00  0.00    +0.000 S 
ATOM     37  O   UNL     1      -7.938   0.919 125.122  0.00  0.00    +0.000 OA
ATOM     38  O   UNL     1      -9.866  -0.654 125.432  0.00  0.00    +0.000 OA
ENDBRANCH  30  36
ENDBRANCH  29  34
ENDBRANCH   1  29
TORSDOF 5
ENDMDL
MODEL 3
REMARK VINA RESULT:     -10.8      5.941      9.800
REMARK  Name = CHEMBL284410
REMARK  6 active torsions:
REMARK  status: ('A' for Active; 'I' for Inactive)
REMARK    1  A    between atoms: C_1  and  S_2
REMARK    2  A    between atoms: S_2  and  N_5
REMARK    3  A    between atoms: C_9  and  C_10
REMARK    4  A    between atoms: C_10  and  N_11
REMARK    5  A    between atoms: C_16  and  C_17
REMARK    6  A    between atoms: C_22  and  N_23
REMARK                            x       y       z     vdW  Elec       q    Type
REMARK                         _______ _______ _______ _____ _____    ______ ____
ROOT
ATOM      1  N   UNL     1      -9.693   5.684 131.024  0.00  0.00    +0.000 N 
ATOM      2  C   UNL     1     -10.119   4.390 131.048  0.00  0.00    +0.000 A 
ATOM      3  C   UNL     1      -9.019   3.585 131.167  0.00  0.00    +0.000 A 
ATOM      4  C   UNL     1      -7.870   4.416 131.198  0.00  0.00    +0.000 A 
ATOM      5  C   UNL     1      -6.483   4.153 131.284  0.00  0.00    +0.000 A 
ATOM      6  C   UNL     1      -5.550   5.211 131.292  0.00  0.00    +0.000 A 
ATOM      7  C   UNL     1      -6.038   6.515 131.187  0.00  0.00    +0.000 A 
ATOM      8  C   UNL     1      -7.408   6.812 131.118  0.00  0.00    +0.000 A 
ATOM      9  C   UNL     1      -8.312   5.739 131.115  0.00  0.00    +0.000 A 
ENDROOT
BRANCH   6  10
ATOM     10  C   UNL     1      -4.065   4.917 131.292  0.00  0.00    +0.000 C 
ATOM     11  O   UNL     1      -3.661   3.964 130.626  0.00  0.00    +0.000 OA
ATOM     12  N   UNL     1      -3.179   5.799 131.953  0.00  0.00    +0.000 N 
ATOM     13  C   UNL     1      -2.120   6.476 131.203  0.00  0.00    +0.000 C 
ATOM     14  C   UNL     1      -0.777   6.437 131.911  0.00  0.00    +0.000 C 
ATOM     15  C   UNL     1      -0.867   7.439 133.362  0.00  0.00    +0.000 C 
ATOM     16  C   UNL     1      -1.957   6.289 134.063  0.00  0.00    +0.000 C 
ATOM     17  C   UNL     1      -3.307   6.209 133.355  0.00  0.00    +0.000 C 
BRANCH  15  18
ATOM     18  N   UNL     1      -0.611   9.257 133.063  0.00  0.00    +0.000 N 
ATOM     19  C   UNL     1      -0.164   9.211 134.426  0.00  0.00    +0.000 C 
ATOM     20  O   UNL     1       0.703   8.459 134.961  0.00  0.00    +0.000 OA
ATOM     21  O   UNL     1      -0.881   9.892 135.290  0.00  0.00    +0.000 OA
ATOM     22  C   UNL     1      -0.074  11.005 135.302  0.00  0.00    +0.000 C 
ATOM     23  C   UNL     1      -0.989  11.682 134.395  0.00  0.00    +0.000 A 
ATOM     24  C   UNL     1      -1.591  12.903 134.981  0.00  0.00    +0.000 A 
ATOM     25  C   UNL     1      -2.211  13.899 134.280  0.00  0.00    +0.000 A 
ATOM     26  C   UNL     1      -1.879  13.794 132.956  0.00  0.00    +0.000 A 
ATOM     27  C   UNL     1      -1.232  12.425 132.380  0.00  0.00    +0.000 A 
ATOM     28  C   UNL     1      -1.123  11.049 133.125  0.00  0.00    +0.000 A 
ENDBRANCH  15  18
ENDBRANCH   6  10
BRANCH   1  29
ATOM     29  C   UNL     1     -10.555   6.840 130.890  0.00  0.00    +0.000 C 
BRANCH  29  34
ATOM     30  N   UNL     1     -11.821   6.492 128.659  0.00  0.00    +0.000 NA
ATOM     31  C   UNL     1     -13.095   7.148 128.171  0.00  0.00    +0.000 C 
ATOM     32  C   UNL     1     -13.203   8.376 129.050  0.00  0.00    +0.000 C 
ATOM     33  C   UNL     1     -12.891   7.814 130.416  0.00  0.00    +0.000 C 
ATOM     34  C   UNL     1     -11.900   6.652 130.180  0.00  0.00    +0.000 C 
BRANCH  30  36
ATOM     35  C   UNL     1     -11.070   7.612 126.204  0.00  0.00    +0.000 C 
ATOM     36  S   UNL     1     -10.464   7.156 127.822  0.00  0.00    +0.000 S 
ATOM     37  O   UNL     1      -9.486   6.100 127.660  0.00  0.00    +0.000 OA
ATOM     38  O   UNL     1     -10.100   8.383 128.498  0.00  0.00    +0.000 OA
ENDBRANCH  30  36
ENDBRANCH  29  34
ENDBRANCH   1  29
TORSDOF 5
ENDMDL
MODEL 4
REMARK VINA RESULT:     -10.5      2.496      8.772
REMARK  Name = CHEMBL284410
REMARK  6 active torsions:
REMARK  status: ('A' for Active; 'I' for Inactive)
REMARK    1  A    between atoms: C_1  and  S_2
REMARK    2  A    between atoms: S_2  and  N_5
REMARK    3  A    between atoms: C_9  and  C_10
REMARK    4  A    between atoms: C_10  and  N_11
REMARK    5  A    between atoms: C_16  and  C_17
REMARK    6  A    between atoms: C_22  and  N_23
REMARK                            x       y       z     vdW  Elec       q    Type
REMARK                         _______ _______ _______ _____ _____    ______ ____
ROOT
ATOM      1  N   UNL     1      -9.513   5.046 132.187  0.00  0.00    +0.000 N 
ATOM      2  C   UNL     1      -9.376   5.042 133.544  0.00  0.00    +0.000 A 
ATOM      3  C   UNL     1      -8.898   3.815 133.916  0.00  0.00    +0.000 A 
ATOM      4  C   UNL     1      -8.753   3.028 132.745  0.00  0.00    +0.000 A 
ATOM      5  C   UNL     1      -8.330   1.697 132.516  0.00  0.00    +0.000 A 
ATOM      6  C   UNL     1      -8.290   1.172 131.207  0.00  0.00    +0.000 A 
ATOM      7  C   UNL     1      -8.702   1.995 130.158  0.00  0.00    +0.000 A 
ATOM      8  C   UNL     1      -9.110   3.325 130.349  0.00  0.00    +0.000 A 
ATOM      9  C   UNL     1      -9.137   3.820 131.661  0.00  0.00    +0.000 A 
ENDROOT
BRANCH   6  10
ATOM     10  C   UNL     1      -7.924  -0.280 130.980  0.00  0.00    +0.000 C 
ATOM     11  O   UNL     1      -8.208  -1.095 131.858  0.00  0.00    +0.000 OA
ATOM     12  N   UNL     1      -7.380  -0.676 129.737  0.00  0.00    +0.000 N 
ATOM     13  C   UNL     1      -8.073  -1.668 128.914  0.00  0.00    +0.000 C 
ATOM     14  C   UNL     1      -7.140  -2.728 128.355  0.00  0.00    +0.000 C 
ATOM     15  C   UNL     1      -6.071  -1.978 127.165  0.00  0.00    +0.000 C 
ATOM     16  C   UNL     1      -5.298  -1.101 128.444  0.00  0.00    +0.000 C 
ATOM     17  C   UNL     1      -6.200  -0.068 129.115  0.00  0.00    +0.000 C 
BRANCH  15  18
ATOM     18  N   UNL     1      -6.812  -1.793 125.469  0.00  0.00    +0.000 N 
ATOM     19  C   UNL     1      -6.092  -0.553 125.511  0.00  0.00    +0.000 C 
ATOM     20  O   UNL     1      -4.870  -0.344 125.770  0.00  0.00    +0.000 OA
ATOM     21  O   UNL     1      -6.821   0.538 125.480  0.00  0.00    +0.000 OA
ATOM     22  C   UNL     1      -6.681   0.766 124.131  0.00  0.00    +0.000 C 
ATOM     23  C   UNL     1      -7.995   0.187 123.895  0.00  0.00    +0.000 A 
ATOM     24  C   UNL     1      -8.957   1.148 123.305  0.00  0.00    +0.000 A 
ATOM     25  C   UNL     1     -10.129   0.821 122.684  0.00  0.00    +0.000 A 
ATOM     26  C   UNL     1     -10.113  -0.510 122.361  0.00  0.00    +0.000 A 
ATOM     27  C   UNL     1      -9.039  -1.507 123.050  0.00  0.00    +0.000 A 
ATOM     28  C   UNL     1      -8.100  -1.185 124.266  0.00  0.00    +0.000 A 
ENDBRANCH  15  18
ENDBRANCH   6  10
BRANCH   1  29
ATOM     29  C   UNL     1     -10.009   6.159 131.406  0.00  0.00    +0.000 C 
BRANCH  29  34
ATOM     30  N   UNL     1     -11.547   6.130 129.324  0.00  0.00    +0.000 NA
ATOM     31  C   UNL     1     -12.866   6.838 129.100  0.00  0.00    +0.000 C 
ATOM     32  C   UNL     1     -12.853   7.922 130.157  0.00  0.00    +0.000 C 
ATOM     33  C   UNL     1     -12.378   7.168 131.376  0.00  0.00    +0.000 C 
ATOM     34  C   UNL     1     -11.434   6.064 130.850  0.00  0.00    +0.000 C 
BRANCH  30  36
ATOM     35  C   UNL     1     -11.108   7.653 127.013  0.00  0.00    +0.000 C 
ATOM     36  S   UNL     1     -10.299   6.924 128.431  0.00  0.00    +0.000 S 
ATOM     37  O   UNL     1      -9.381   5.909 127.958  0.00  0.00    +0.000 OA
ATOM     38  O   UNL     1      -9.813   8.016 129.248  0.00  0.00    +0.000 OA
ENDBRANCH  30  36
ENDBRANCH  29  34
ENDBRANCH   1  29
TORSDOF 5
ENDMDL
MODEL 5
REMARK VINA RESULT:     -10.2      1.711      2.217
REMARK  Name = CHEMBL284410
REMARK  6 active torsions:
REMARK  status: ('A' for Active; 'I' for Inactive)
REMARK    1  A    between atoms: C_1  and  S_2
REMARK    2  A    between atoms: S_2  and  N_5
REMARK    3  A    between atoms: C_9  and  C_10
REMARK    4  A    between atoms: C_10  and  N_11
REMARK    5  A    between atoms: C_16  and  C_17
REMARK    6  A    between atoms: C_22  and  N_23
REMARK                            x       y       z     vdW  Elec       q    Type
REMARK                         _______ _______ _______ _____ _____    ______ ____
ROOT
ATOM      1  N   UNL     1      -5.918  -1.516 126.828  0.00  0.00    +0.000 N 
ATOM      2  C   UNL     1      -6.038  -2.450 127.813  0.00  0.00    +0.000 A 
ATOM      3  C   UNL     1      -5.861  -1.821 129.015  0.00  0.00    +0.000 A 
ATOM      4  C   UNL     1      -5.604  -0.450 128.759  0.00  0.00    +0.000 A 
ATOM      5  C   UNL     1      -5.327   0.659 129.593  0.00  0.00    +0.000 A 
ATOM      6  C   UNL     1      -5.105   1.937 129.038  0.00  0.00    +0.000 A 
ATOM      7  C   UNL     1      -5.142   2.063 127.648  0.00  0.00    +0.000 A 
ATOM      8  C   UNL     1      -5.432   0.987 126.793  0.00  0.00    +0.000 A 
ATOM      9  C   UNL     1      -5.650  -0.271 127.374  0.00  0.00    +0.000 A 
ENDROOT
BRANCH   6  10
ATOM     10  C   UNL     1      -4.719   3.098 129.931  0.00  0.00    +0.000 C 
ATOM     11  O   UNL     1      -3.522   3.312 130.121  0.00  0.00    +0.000 OA
ATOM     12  N   UNL     1      -5.724   3.964 130.421  0.00  0.00    +0.000 N 
ATOM     13  C   UNL     1      -5.691   5.389 130.091  0.00  0.00    +0.000 C 
ATOM     14  C   UNL     1      -5.952   6.280 131.293  0.00  0.00    +0.000 C 
ATOM     15  C   UNL     1      -7.633   6.081 131.797  0.00  0.00    +0.000 C 
ATOM     16  C   UNL     1      -7.267   4.466 132.306  0.00  0.00    +0.000 C 
ATOM     17  C   UNL     1      -6.912   3.524 131.158  0.00  0.00    +0.000 C 
BRANCH  15  18
ATOM     18  N   UNL     1      -8.855   7.097 130.829  0.00  0.00    +0.000 N 
ATOM     19  C   UNL     1      -9.775   6.501 131.755  0.00  0.00    +0.000 C 
ATOM     20  O   UNL     1      -9.733   6.471 133.021  0.00  0.00    +0.000 OA
ATOM     21  O   UNL     1     -10.679   5.703 131.236  0.00  0.00    +0.000 OA
ATOM     22  C   UNL     1     -11.686   6.637 131.189  0.00  0.00    +0.000 C 
ATOM     23  C   UNL     1     -11.427   6.847 129.772  0.00  0.00    +0.000 A 
ATOM     24  C   UNL     1     -12.583   6.499 128.912  0.00  0.00    +0.000 A 
ATOM     25  C   UNL     1     -12.754   6.890 127.613  0.00  0.00    +0.000 A 
ATOM     26  C   UNL     1     -11.909   7.931 127.339  0.00  0.00    +0.000 A 
ATOM     27  C   UNL     1     -10.659   8.251 128.319  0.00  0.00    +0.000 A 
ATOM     28  C   UNL     1     -10.125   7.351 129.488  0.00  0.00    +0.000 A 
ENDBRANCH  15  18
ENDBRANCH   6  10
BRANCH   1  29
ATOM     29  C   UNL     1      -6.022  -1.786 125.410  0.00  0.00    +0.000 C 
BRANCH  29  34
ATOM     30  N   UNL     1      -8.457  -1.506 124.576  0.00  0.00    +0.000 NA
ATOM     31  C   UNL     1      -8.958  -1.126 123.199  0.00  0.00    +0.000 C 
ATOM     32  C   UNL     1      -7.762  -1.407 122.313  0.00  0.00    +0.000 C 
ATOM     33  C   UNL     1      -6.631  -0.801 123.110  0.00  0.00    +0.000 C 
ATOM     34  C   UNL     1      -7.025  -0.962 124.596  0.00  0.00    +0.000 C 
BRANCH  30  36
ATOM     35  C   UNL     1      -9.128  -3.348 126.577  0.00  0.00    +0.000 C 
ATOM     36  S   UNL     1      -8.710  -3.193 124.846  0.00  0.00    +0.000 S 
ATOM     37  O   UNL     1      -7.451  -3.870 124.620  0.00  0.00    +0.000 OA
ATOM     38  O   UNL     1      -9.885  -3.577 124.092  0.00  0.00    +0.000 OA
ENDBRANCH  30  36
ENDBRANCH  29  34
ENDBRANCH   1  29
TORSDOF 5
ENDMDL
MODEL 6
REMARK VINA RESULT:      -9.7      5.225     10.407
REMARK  Name = CHEMBL284410
REMARK  6 active torsions:
REMARK  status: ('A' for Active; 'I' for Inactive)
REMARK    1  A    between atoms: C_1  and  S_2
REMARK    2  A    between atoms: S_2  and  N_5
REMARK    3  A    between atoms: C_9  and  C_10
REMARK    4  A    between atoms: C_10  and  N_11
REMARK    5  A    between atoms: C_16  and  C_17
REMARK    6  A    between atoms: C_22  and  N_23
REMARK                            x       y       z     vdW  Elec       q    Type
REMARK                         _______ _______ _______ _____ _____    ______ ____
ROOT
ATOM      1  N   UNL     1      -9.039   4.971 132.127  0.00  0.00    +0.000 N 
ATOM      2  C   UNL     1      -9.327   5.175 133.443  0.00  0.00    +0.000 A 
ATOM      3  C   UNL     1      -8.687   4.210 134.170  0.00  0.00    +0.000 A 
ATOM      4  C   UNL     1      -7.992   3.367 133.264  0.00  0.00    +0.000 A 
ATOM      5  C   UNL     1      -7.192   2.213 133.431  0.00  0.00    +0.000 A 
ATOM      6  C   UNL     1      -6.619   1.569 132.314  0.00  0.00    +0.000 A 
ATOM      7  C   UNL     1      -6.888   2.092 131.047  0.00  0.00    +0.000 A 
ATOM      8  C   UNL     1      -7.663   3.246 130.849  0.00  0.00    +0.000 A 
ATOM      9  C   UNL     1      -8.217   3.865 131.978  0.00  0.00    +0.000 A 
ENDROOT
BRANCH   6  10
ATOM     10  C   UNL     1      -5.840   0.283 132.493  0.00  0.00    +0.000 C 
ATOM     11  O   UNL     1      -4.657   0.267 132.151  0.00  0.00    +0.000 OA
ATOM     12  N   UNL     1      -6.447  -0.815 133.145  0.00  0.00    +0.000 N 
ATOM     13  C   UNL     1      -5.862  -1.357 134.372  0.00  0.00    +0.000 C 
ATOM     14  C   UNL     1      -5.790  -2.874 134.373  0.00  0.00    +0.000 C 
ATOM     15  C   UNL     1      -7.431  -3.522 134.458  0.00  0.00    +0.000 C 
ATOM     16  C   UNL     1      -7.725  -2.929 132.857  0.00  0.00    +0.000 C 
ATOM     17  C   UNL     1      -7.731  -1.406 132.756  0.00  0.00    +0.000 C 
BRANCH  15  18
ATOM     18  N   UNL     1      -8.145  -3.595 136.174  0.00  0.00    +0.000 N 
ATOM     19  C   UNL     1      -8.291  -4.981 135.835  0.00  0.00    +0.000 C 
ATOM     20  O   UNL     1      -7.425  -5.796 135.401  0.00  0.00    +0.000 OA
ATOM     21  O   UNL     1      -9.523  -5.430 135.767  0.00  0.00    +0.000 OA
ATOM     22  C   UNL     1      -9.549  -5.972 137.031  0.00  0.00    +0.000 C 
ATOM     23  C   UNL     1     -10.272  -4.806 137.518  0.00  0.00    +0.000 A 
ATOM     24  C   UNL     1     -11.617  -5.135 138.046  0.00  0.00    +0.000 A 
ATOM     25  C   UNL     1     -12.375  -4.330 138.849  0.00  0.00    +0.000 A 
ATOM     26  C   UNL     1     -11.581  -3.355 139.390  0.00  0.00    +0.000 A 
ATOM     27  C   UNL     1     -10.123  -3.042 138.757  0.00  0.00    +0.000 A 
ATOM     28  C   UNL     1      -9.549  -3.584 137.401  0.00  0.00    +0.000 A 
ENDBRANCH  15  18
ENDBRANCH   6  10
BRANCH   1  29
ATOM     29  C   UNL     1      -9.542   5.774 131.032  0.00  0.00    +0.000 C 
BRANCH  29  34
ATOM     30  N   UNL     1     -11.402   5.975 129.244  0.00  0.00    +0.000 NA
ATOM     31  C   UNL     1     -12.766   6.624 129.352  0.00  0.00    +0.000 C 
ATOM     32  C   UNL     1     -12.616   7.529 130.557  0.00  0.00    +0.000 C 
ATOM     33  C   UNL     1     -11.918   6.625 131.544  0.00  0.00    +0.000 C 
ATOM     34  C   UNL     1     -11.034   5.678 130.700  0.00  0.00    +0.000 C 
BRANCH  30  36
ATOM     35  C   UNL     1     -11.397   7.781 127.103  0.00  0.00    +0.000 C 
ATOM     36  S   UNL     1     -10.351   6.975 128.307  0.00  0.00    +0.000 S 
ATOM     37  O   UNL     1      -9.430   6.108 127.602  0.00  0.00    +0.000 OA
ATOM     38  O   UNL     1      -9.844   8.008 129.186  0.00  0.00    +0.000 OA
ENDBRANCH  30  36
ENDBRANCH  29  34
ENDBRANCH   1  29
TORSDOF 5
ENDMDL
MODEL 7
REMARK VINA RESULT:      -9.6      2.705      9.357
REMARK  Name = CHEMBL284410
REMARK  6 active torsions:
REMARK  status: ('A' for Active; 'I' for Inactive)
REMARK    1  A    between atoms: C_1  and  S_2
REMARK    2  A    between atoms: S_2  and  N_5
REMARK    3  A    between atoms: C_9  and  C_10
REMARK    4  A    between atoms: C_10  and  N_11
REMARK    5  A    between atoms: C_16  and  C_17
REMARK    6  A    between atoms: C_22  and  N_23
REMARK                            x       y       z     vdW  Elec       q    Type
REMARK                         _______ _______ _______ _____ _____    ______ ____
ROOT
ATOM      1  N   UNL     1     -10.026   5.297 131.777  0.00  0.00    +0.000 N 
ATOM      2  C   UNL     1      -9.615   5.809 132.971  0.00  0.00    +0.000 A 
ATOM      3  C   UNL     1      -8.845   4.865 133.593  0.00  0.00    +0.000 A 
ATOM      4  C   UNL     1      -8.796   3.720 132.757  0.00  0.00    +0.000 A 
ATOM      5  C   UNL     1      -8.183   2.451 132.883  0.00  0.00    +0.000 A 
ATOM      6  C   UNL     1      -8.313   1.487 131.861  0.00  0.00    +0.000 A 
ATOM      7  C   UNL     1      -9.082   1.816 130.744  0.00  0.00    +0.000 A 
ATOM      8  C   UNL     1      -9.688   3.071 130.579  0.00  0.00    +0.000 A 
ATOM      9  C   UNL     1      -9.539   4.011 131.610  0.00  0.00    +0.000 A 
ENDROOT
BRANCH   6  10
ATOM     10  C   UNL     1      -7.730   0.101 132.045  0.00  0.00    +0.000 C 
ATOM     11  O   UNL     1      -7.795  -0.414 133.161  0.00  0.00    +0.000 OA
ATOM     12  N   UNL     1      -7.239  -0.604 130.921  0.00  0.00    +0.000 N 
ATOM     13  C   UNL     1      -7.826  -1.891 130.547  0.00  0.00    +0.000 C 
ATOM     14  C   UNL     1      -6.782  -2.944 130.219  0.00  0.00    +0.000 C 
ATOM     15  C   UNL     1      -5.964  -2.488 128.721  0.00  0.00    +0.000 C 
ATOM     16  C   UNL     1      -5.239  -1.150 129.549  0.00  0.00    +0.000 C 
ATOM     17  C   UNL     1      -6.237  -0.082 129.987  0.00  0.00    +0.000 C 
BRANCH  15  18
ATOM     18  N   UNL     1      -6.872  -2.963 127.168  0.00  0.00    +0.000 N 
ATOM     19  C   UNL     1      -5.614  -2.622 126.570  0.00  0.00    +0.000 C 
ATOM     20  O   UNL     1      -4.451  -3.034 126.857  0.00  0.00    +0.000 OA
ATOM     21  O   UNL     1      -5.625  -1.596 125.751  0.00  0.00    +0.000 OA
ATOM     22  C   UNL     1      -5.715  -2.337 124.595  0.00  0.00    +0.000 C 
ATOM     23  C   UNL     1      -7.145  -2.075 124.536  0.00  0.00    +0.000 A 
ATOM     24  C   UNL     1      -7.549  -1.323 123.324  0.00  0.00    +0.000 A 
ATOM     25  C   UNL     1      -8.822  -1.221 122.838  0.00  0.00    +0.000 A 
ATOM     26  C   UNL     1      -9.601  -2.194 123.405  0.00  0.00    +0.000 A 
ATOM     27  C   UNL     1      -9.102  -2.971 124.736  0.00  0.00    +0.000 A 
ATOM     28  C   UNL     1      -7.877  -2.595 125.642  0.00  0.00    +0.000 A 
ENDBRANCH  15  18
ENDBRANCH   6  10
BRANCH   1  29
ATOM     29  C   UNL     1     -10.876   5.984 130.828  0.00  0.00    +0.000 C 
BRANCH  29  34
ATOM     30  N   UNL     1     -11.034   8.210 129.515  0.00  0.00    +0.000 NA
ATOM     31  C   UNL     1     -10.663   8.499 128.076  0.00  0.00    +0.000 C 
ATOM     32  C   UNL     1     -10.630   7.121 127.450  0.00  0.00    +0.000 C 
ATOM     33  C   UNL     1      -9.868   6.324 128.482  0.00  0.00    +0.000 C 
ATOM     34  C   UNL     1     -10.215   6.959 129.848  0.00  0.00    +0.000 C 
BRANCH  30  36
ATOM     35  C   UNL     1     -13.382   9.479 128.664  0.00  0.00    +0.000 C 
ATOM     36  S   UNL     1     -12.753   8.145 129.675  0.00  0.00    +0.000 S 
ATOM     37  O   UNL     1     -13.079   8.428 131.056  0.00  0.00    +0.000 OA
ATOM     38  O   UNL     1     -13.195   6.909 129.064  0.00  0.00    +0.000 OA
ENDBRANCH  30  36
ENDBRANCH  29  34
ENDBRANCH   1  29
TORSDOF 5
ENDMDL
MODEL 8
REMARK VINA RESULT:      -9.4      4.885     10.052
REMARK  Name = CHEMBL284410
REMARK  6 active torsions:
REMARK  status: ('A' for Active; 'I' for Inactive)
REMARK    1  A    between atoms: C_1  and  S_2
REMARK    2  A    between atoms: S_2  and  N_5
REMARK    3  A    between atoms: C_9  and  C_10
REMARK    4  A    between atoms: C_10  and  N_11
REMARK    5  A    between atoms: C_16  and  C_17
REMARK    6  A    between atoms: C_22  and  N_23
REMARK                            x       y       z     vdW  Elec       q    Type
REMARK                         _______ _______ _______ _____ _____    ______ ____
ROOT
ATOM      1  N   UNL     1     -10.096   5.405 130.926  0.00  0.00    +0.000 N 
ATOM      2  C   UNL     1     -10.682   4.197 130.691  0.00  0.00    +0.000 A 
ATOM      3  C   UNL     1      -9.741   3.225 130.896  0.00  0.00    +0.000 A 
ATOM      4  C   UNL     1      -8.525   3.861 131.253  0.00  0.00    +0.000 A 
ATOM      5  C   UNL     1      -7.229   3.380 131.554  0.00  0.00    +0.000 A 
ATOM      6  C   UNL     1      -6.188   4.275 131.880  0.00  0.00    +0.000 A 
ATOM      7  C   UNL     1      -6.472   5.642 131.870  0.00  0.00    +0.000 A 
ATOM      8  C   UNL     1      -7.751   6.152 131.594  0.00  0.00    +0.000 A 
ATOM      9  C   UNL     1      -8.766   5.237 131.275  0.00  0.00    +0.000 A 
ENDROOT
BRANCH   6  10
ATOM     10  C   UNL     1      -4.784   3.758 132.112  0.00  0.00    +0.000 C 
ATOM     11  O   UNL     1      -3.865   4.575 132.169  0.00  0.00    +0.000 OA
ATOM     12  N   UNL     1      -4.581   2.382 132.368  0.00  0.00    +0.000 N 
ATOM     13  C   UNL     1      -3.969   1.951 133.626  0.00  0.00    +0.000 C 
ATOM     14  C   UNL     1      -2.898   0.893 133.430  0.00  0.00    +0.000 C 
ATOM     15  C   UNL     1      -3.665  -0.604 132.889  0.00  0.00    +0.000 C 
ATOM     16  C   UNL     1      -4.046   0.163 131.382  0.00  0.00    +0.000 C 
ATOM     17  C   UNL     1      -5.060   1.297 131.506  0.00  0.00    +0.000 C 
BRANCH  15  18
ATOM     18  N   UNL     1      -4.384  -1.641 134.255  0.00  0.00    +0.000 N 
ATOM     19  C   UNL     1      -3.968  -2.706 133.389  0.00  0.00    +0.000 C 
ATOM     20  O   UNL     1      -2.834  -2.920 132.867  0.00  0.00    +0.000 OA
ATOM     21  O   UNL     1      -4.927  -3.457 132.897  0.00  0.00    +0.000 OA
ATOM     22  C   UNL     1      -4.807  -4.468 133.821  0.00  0.00    +0.000 C 
ATOM     23  C   UNL     1      -5.947  -3.936 134.554  0.00  0.00    +0.000 A 
ATOM     24  C   UNL     1      -7.087  -4.880 134.620  0.00  0.00    +0.000 A 
ATOM     25  C   UNL     1      -8.136  -4.799 135.492  0.00  0.00    +0.000 A 
ATOM     26  C   UNL     1      -7.808  -3.955 136.519  0.00  0.00    +0.000 A 
ATOM     27  C   UNL     1      -6.552  -2.942 136.375  0.00  0.00    +0.000 A 
ATOM     28  C   UNL     1      -5.745  -2.622 135.068  0.00  0.00    +0.000 A 
ENDBRANCH  15  18
ENDBRANCH   6  10
BRANCH   1  29
ATOM     29  C   UNL     1     -10.757   6.687 130.799  0.00  0.00    +0.000 C 
BRANCH  29  34
ATOM     30  N   UNL     1     -11.950   6.691 128.501  0.00  0.00    +0.000 NA
ATOM     31  C   UNL     1     -13.103   7.547 128.024  0.00  0.00    +0.000 C 
ATOM     32  C   UNL     1     -13.092   8.705 129.000  0.00  0.00    +0.000 C 
ATOM     33  C   UNL     1     -12.922   7.999 130.324  0.00  0.00    +0.000 C 
ATOM     34  C   UNL     1     -12.080   6.738 130.026  0.00  0.00    +0.000 C 
BRANCH  30  36
ATOM     35  C   UNL     1     -10.914   7.721 126.111  0.00  0.00    +0.000 C 
ATOM     36  S   UNL     1     -10.479   7.232 127.774  0.00  0.00    +0.000 S 
ATOM     37  O   UNL     1      -9.583   6.098 127.695  0.00  0.00    +0.000 OA
ATOM     38  O   UNL     1     -10.070   8.431 128.474  0.00  0.00    +0.000 OA
ENDBRANCH  30  36
ENDBRANCH  29  34
ENDBRANCH   1  29
TORSDOF 5
ENDMDL
MODEL 9
REMARK VINA RESULT:      -9.4      4.570      5.160
REMARK  Name = CHEMBL284410
REMARK  6 active torsions:
REMARK  status: ('A' for Active; 'I' for Inactive)
REMARK    1  A    between atoms: C_1  and  S_2
REMARK    2  A    between atoms: S_2  and  N_5
REMARK    3  A    between atoms: C_9  and  C_10
REMARK    4  A    between atoms: C_10  and  N_11
REMARK    5  A    between atoms: C_16  and  C_17
REMARK    6  A    between atoms: C_22  and  N_23
REMARK                            x       y       z     vdW  Elec       q    Type
REMARK                         _______ _______ _______ _____ _____    ______ ____
ROOT
ATOM      1  N   UNL     1      -8.656  -2.696 127.191  0.00  0.00    +0.000 N 
ATOM      2  C   UNL     1      -9.129  -3.913 127.584  0.00  0.00    +0.000 A 
ATOM      3  C   UNL     1      -8.687  -4.147 128.857  0.00  0.00    +0.000 A 
ATOM      4  C   UNL     1      -7.895  -3.039 129.257  0.00  0.00    +0.000 A 
ATOM      5  C   UNL     1      -7.172  -2.737 130.434  0.00  0.00    +0.000 A 
ATOM      6  C   UNL     1      -6.457  -1.526 130.546  0.00  0.00    +0.000 A 
ATOM      7  C   UNL     1      -6.467  -0.656 129.454  0.00  0.00    +0.000 A 
ATOM      8  C   UNL     1      -7.188  -0.917 128.279  0.00  0.00    +0.000 A 
ATOM      9  C   UNL     1      -7.892  -2.128 128.197  0.00  0.00    +0.000 A 
ENDROOT
BRANCH   6  10
ATOM     10  C   UNL     1      -5.612  -1.251 131.773  0.00  0.00    +0.000 C 
ATOM     11  O   UNL     1      -5.190  -2.213 132.415  0.00  0.00    +0.000 OA
ATOM     12  N   UNL     1      -5.239   0.078 132.080  0.00  0.00    +0.000 N 
ATOM     13  C   UNL     1      -3.825   0.448 132.142  0.00  0.00    +0.000 C 
ATOM     14  C   UNL     1      -3.488   1.294 133.358  0.00  0.00    +0.000 C 
ATOM     15  C   UNL     1      -4.252   2.877 133.180  0.00  0.00    +0.000 C 
ATOM     16  C   UNL     1      -5.802   2.127 133.371  0.00  0.00    +0.000 C 
ATOM     17  C   UNL     1      -6.180   1.192 132.225  0.00  0.00    +0.000 C 
BRANCH  15  18
ATOM     18  N   UNL     1      -3.300   4.081 132.128  0.00  0.00    +0.000 N 
ATOM     19  C   UNL     1      -3.758   5.003 133.128  0.00  0.00    +0.000 C 
ATOM     20  O   UNL     1      -3.653   4.937 134.388  0.00  0.00    +0.000 OA
ATOM     21  O   UNL     1      -4.572   5.945 132.712  0.00  0.00    +0.000 OA
ATOM     22  C   UNL     1      -3.610   6.919 132.581  0.00  0.00    +0.000 C 
ATOM     23  C   UNL     1      -3.563   6.681 131.145  0.00  0.00    +0.000 A 
ATOM     24  C   UNL     1      -3.957   7.866 130.347  0.00  0.00    +0.000 A 
ATOM     25  C   UNL     1      -3.702   8.049 129.017  0.00  0.00    +0.000 A 
ATOM     26  C   UNL     1      -2.729   7.172 128.618  0.00  0.00    +0.000 A 
ATOM     27  C   UNL     1      -2.354   5.892 129.537  0.00  0.00    +0.000 A 
ATOM     28  C   UNL     1      -3.143   5.367 130.788  0.00  0.00    +0.000 A 
ENDBRANCH  15  18
ENDBRANCH   6  10
BRANCH   1  29
ATOM     29  C   UNL     1      -8.891  -2.093 125.897  0.00  0.00    +0.000 C 
BRANCH  29  34
ATOM     30  N   UNL     1      -7.314  -0.708 124.381  0.00  0.00    +0.000 NA
ATOM     31  C   UNL     1      -6.879  -0.975 122.956  0.00  0.00    +0.000 C 
ATOM     32  C   UNL     1      -7.923  -1.954 122.461  0.00  0.00    +0.000 C 
ATOM     33  C   UNL     1      -8.023  -2.920 123.617  0.00  0.00    +0.000 C 
ATOM     34  C   UNL     1      -7.736  -2.090 124.889  0.00  0.00    +0.000 C 
BRANCH  30  36
ATOM     35  C   UNL     1      -7.908   1.755 123.186  0.00  0.00    +0.000 C 
ATOM     36  S   UNL     1      -8.467   0.578 124.410  0.00  0.00    +0.000 S 
ATOM     37  O   UNL     1      -8.396   1.206 125.712  0.00  0.00    +0.000 OA
ATOM     38  O   UNL     1      -9.723   0.038 123.933  0.00  0.00    +0.000 OA
ENDBRANCH  30  36
ENDBRANCH  29  34
ENDBRANCH   1  29
TORSDOF 5
ENDMDL
