MODEL 1
REMARK VINA RESULT:     -10.6      0.000      0.000
REMARK  Name = CHEMBL31476
REMARK  6 active torsions:
REMARK  status: ('A' for Active; 'I' for Inactive)
REMARK    1  A    between atoms: C_2  and  C_3
REMARK    2  A    between atoms: C_3  and  N_4
REMARK    3  A    between atoms: N_11  and  C_12
REMARK    4  A    between atoms: C_12  and  C_13
REMARK    5  A    between atoms: C_17  and  C_18
REMARK    6  A    between atoms: C_23  and  N_24
REMARK                            x       y       z     vdW  Elec       q    Type
REMARK                         _______ _______ _______ _____ _____    ______ ____
ROOT
ATOM      1  C   UNL     1      -9.225   3.858 132.657  0.00  0.00    +0.000 A 
ATOM      2  C   UNL     1      -9.663   2.733 131.994  0.00  0.00    +0.000 A 
ATOM      3  C   UNL     1      -8.751   1.695 132.285  0.00  0.00    +0.000 A 
ATOM      4  C   UNL     1      -8.636   0.342 131.915  0.00  0.00    +0.000 A 
ATOM      5  C   UNL     1      -7.547  -0.410 132.385  0.00  0.00    +0.000 A 
ATOM      6  C   UNL     1      -6.596   0.220 133.196  0.00  0.00    +0.000 A 
ATOM      7  C   UNL     1      -6.709   1.552 133.620  0.00  0.00    +0.000 A 
ATOM      8  C   UNL     1      -7.798   2.257 133.127  0.00  0.00    +0.000 A 
ATOM      9  O   UNL     1      -8.087   3.573 133.364  0.00  0.00    +0.000 OA
ENDROOT
BRANCH   5  10
ATOM     10  C   UNL     1      -7.431  -1.842 131.944  0.00  0.00    +0.000 C 
ATOM     11  O   UNL     1      -7.623  -2.750 132.751  0.00  0.00    +0.000 OA
ATOM     12  N   UNL     1      -7.128  -2.131 130.617  0.00  0.00    +0.000 N 
ATOM     13  C   UNL     1      -8.242  -2.368 129.701  0.00  0.00    +0.000 C 
ATOM     14  C   UNL     1      -7.824  -3.280 128.559  0.00  0.00    +0.000 C 
ATOM     15  C   UNL     1      -6.559  -2.756 127.845  0.00  0.00    +0.000 C 
ATOM     16  C   UNL     1      -5.432  -2.547 128.868  0.00  0.00    +0.000 C 
ATOM     17  C   UNL     1      -5.860  -1.691 130.046  0.00  0.00    +0.000 C 
BRANCH  15  18
ATOM     18  N   UNL     1      -6.853  -1.609 126.927  0.00  0.00    +0.000 N 
ATOM     19  C   UNL     1      -7.363  -0.383 127.351  0.00  0.00    +0.000 C 
ATOM     20  O   UNL     1      -6.973   0.308 128.270  0.00  0.00    +0.000 OA
ATOM     21  O   UNL     1      -8.449   0.016 126.642  0.00  0.00    +0.000 OA
ATOM     22  C   UNL     1      -8.055   0.380 125.337  0.00  0.00    +0.000 C 
ATOM     23  C   UNL     1      -7.240  -0.710 124.710  0.00  0.00    +0.000 A 
ATOM     24  C   UNL     1      -7.032  -0.690 123.330  0.00  0.00    +0.000 A 
ATOM     25  C   UNL     1      -6.255  -1.675 122.739  0.00  0.00    +0.000 A 
ATOM     26  C   UNL     1      -5.678  -2.670 123.524  0.00  0.00    +0.000 A 
ATOM     27  C   UNL     1      -5.879  -2.693 124.907  0.00  0.00    +0.000 A 
ATOM     28  C   UNL     1      -6.668  -1.715 125.515  0.00  0.00    +0.000 A 
ENDBRANCH  15  18
ENDBRANCH   5  10
BRANCH   1  29
ATOM     29  C   UNL     1      -9.800   5.225 132.687  0.00  0.00    +0.000 C 
BRANCH  29  32
ATOM     30  O   UNL     1      -7.950   7.353 130.549  0.00  0.00    +0.000 OA
ATOM     31  C   UNL     1      -8.947   6.709 130.861  0.00  0.00    +0.000 C 
ATOM     32  N   UNL     1      -8.916   6.194 132.119  0.00  0.00    +0.000 N 
ATOM     33  H   UNL     1      -8.078   6.450 132.634  0.00  0.00    +0.000 HD
BRANCH  31  34
ATOM     34  C   UNL     1     -10.158   6.430 129.940  0.00  0.00    +0.000 C 
BRANCH  34  35
ATOM     35  N   UNL     1     -11.136   7.502 129.732  0.00  0.00    +0.000 N 
ATOM     36  C   UNL     1     -12.328   7.696 130.377  0.00  0.00    +0.000 C 
ATOM     37  O   UNL     1     -12.837   7.082 131.304  0.00  0.00    +0.000 OA
ATOM     38  C   UNL     1     -13.046   8.868 129.761  0.00  0.00    +0.000 C 
ATOM     39  N   UNL     1     -12.186   9.158 128.661  0.00  0.00    +0.000 N 
ATOM     40  C   UNL     1     -11.073   8.345 128.655  0.00  0.00    +0.000 C 
ATOM     41  O   UNL     1     -10.211   8.394 127.794  0.00  0.00    +0.000 OA
ATOM     42  H   UNL     1     -12.349   9.864 127.956  0.00  0.00    +0.000 HD
ENDBRANCH  34  35
ENDBRANCH  31  34
ENDBRANCH  29  32
ENDBRANCH   1  29
TORSDOF 6
ENDMDL
MODEL 2
REMARK VINA RESULT:     -10.1      1.690      2.338
REMARK  Name = CHEMBL31476
REMARK  6 active torsions:
REMARK  status: ('A' for Active; 'I' for Inactive)
REMARK    1  A    between atoms: C_2  and  C_3
REMARK    2  A    between atoms: C_3  and  N_4
REMARK    3  A    between atoms: N_11  and  C_12
REMARK    4  A    between atoms: C_12  and  C_13
REMARK    5  A    between atoms: C_17  and  C_18
REMARK    6  A    between atoms: C_23  and  N_24
REMARK                            x       y       z     vdW  Elec       q    Type
REMARK                         _______ _______ _______ _____ _____    ______ ____
ROOT
ATOM      1  C   UNL     1      -8.859   2.208 132.722  0.00  0.00    +0.000 A 
ATOM      2  C   UNL     1      -9.194   1.557 131.555  0.00  0.00    +0.000 A 
ATOM      3  C   UNL     1      -8.360   0.422 131.455  0.00  0.00    +0.000 A 
ATOM      4  C   UNL     1      -8.204  -0.615 130.516  0.00  0.00    +0.000 A 
ATOM      5  C   UNL     1      -7.221  -1.596 130.731  0.00  0.00    +0.000 A 
ATOM      6  C   UNL     1      -6.413  -1.498 131.869  0.00  0.00    +0.000 A 
ATOM      7  C   UNL     1      -6.577  -0.505 132.845  0.00  0.00    +0.000 A 
ATOM      8  C   UNL     1      -7.556   0.445 132.588  0.00  0.00    +0.000 A 
ATOM      9  O   UNL     1      -7.861   1.527 133.369  0.00  0.00    +0.000 OA
ENDROOT
BRANCH   5  10
ATOM     10  C   UNL     1      -7.054  -2.670 129.694  0.00  0.00    +0.000 C 
ATOM     11  O   UNL     1      -7.071  -3.853 130.027  0.00  0.00    +0.000 OA
ATOM     12  N   UNL     1      -6.901  -2.318 128.356  0.00  0.00    +0.000 N 
ATOM     13  C   UNL     1      -8.101  -2.273 127.524  0.00  0.00    +0.000 C 
ATOM     14  C   UNL     1      -7.764  -2.543 126.066  0.00  0.00    +0.000 C 
ATOM     15  C   UNL     1      -6.645  -1.608 125.558  0.00  0.00    +0.000 C 
ATOM     16  C   UNL     1      -5.416  -1.723 126.473  0.00  0.00    +0.000 C 
ATOM     17  C   UNL     1      -5.754  -1.519 127.939  0.00  0.00    +0.000 C 
BRANCH  15  18
ATOM     18  N   UNL     1      -7.140  -0.224 125.270  0.00  0.00    +0.000 N 
ATOM     19  C   UNL     1      -6.620   0.928 125.860  0.00  0.00    +0.000 C 
ATOM     20  O   UNL     1      -5.454   1.247 125.967  0.00  0.00    +0.000 OA
ATOM     21  O   UNL     1      -7.575   1.728 126.396  0.00  0.00    +0.000 OA
ATOM     22  C   UNL     1      -8.326   2.328 125.363  0.00  0.00    +0.000 C 
ATOM     23  C   UNL     1      -8.820   1.292 124.401  0.00  0.00    +0.000 A 
ATOM     24  C   UNL     1      -9.836   1.629 123.506  0.00  0.00    +0.000 A 
ATOM     25  C   UNL     1     -10.283   0.690 122.589  0.00  0.00    +0.000 A 
ATOM     26  C   UNL     1      -9.709  -0.579 122.557  0.00  0.00    +0.000 A 
ATOM     27  C   UNL     1      -8.689  -0.922 123.449  0.00  0.00    +0.000 A 
ATOM     28  C   UNL     1      -8.236   0.009 124.385  0.00  0.00    +0.000 A 
ENDBRANCH  15  18
ENDBRANCH   5  10
BRANCH   1  29
ATOM     29  C   UNL     1      -9.410   3.455 133.304  0.00  0.00    +0.000 C 
BRANCH  29  32
ATOM     30  O   UNL     1      -8.124   6.174 131.439  0.00  0.00    +0.000 OA
ATOM     31  C   UNL     1      -8.995   5.364 131.739  0.00  0.00    +0.000 C 
ATOM     32  N   UNL     1      -8.718   4.617 132.841  0.00  0.00    +0.000 N 
ATOM     33  H   UNL     1      -7.836   4.866 133.280  0.00  0.00    +0.000 HD
BRANCH  31  34
ATOM     34  C   UNL     1     -10.307   5.129 130.955  0.00  0.00    +0.000 C 
BRANCH  34  35
ATOM     35  N   UNL     1     -10.947   6.277 130.308  0.00  0.00    +0.000 N 
ATOM     36  C   UNL     1     -12.056   6.969 130.717  0.00  0.00    +0.000 C 
ATOM     37  O   UNL     1     -12.737   6.851 131.726  0.00  0.00    +0.000 OA
ATOM     38  C   UNL     1     -12.409   8.007 129.684  0.00  0.00    +0.000 C 
ATOM     39  N   UNL     1     -11.476   7.684 128.654  0.00  0.00    +0.000 N 
ATOM     40  C   UNL     1     -10.630   6.666 129.034  0.00  0.00    +0.000 C 
ATOM     41  O   UNL     1      -9.767   6.204 128.306  0.00  0.00    +0.000 OA
ATOM     42  H   UNL     1     -11.421   8.130 127.748  0.00  0.00    +0.000 HD
ENDBRANCH  34  35
ENDBRANCH  31  34
ENDBRANCH  29  32
ENDBRANCH   1  29
TORSDOF 6
ENDMDL
MODEL 3
REMARK VINA RESULT:     -10.0      2.034      2.824
REMARK  Name = CHEMBL31476
REMARK  6 active torsions:
REMARK  status: ('A' for Active; 'I' for Inactive)
REMARK    1  A    between atoms: C_2  and  C_3
REMARK    2  A    between atoms: C_3  and  N_4
REMARK    3  A    between atoms: N_11  and  C_12
REMARK    4  A    between atoms: C_12  and  C_13
REMARK    5  A    between atoms: C_17  and  C_18
REMARK    6  A    between atoms: C_23  and  N_24
REMARK                            x       y       z     vdW  Elec       q    Type
REMARK                         _______ _______ _______ _____ _____    ______ ____
ROOT
ATOM      1  C   UNL     1      -8.883   4.478 132.077  0.00  0.00    +0.000 A 
ATOM      2  C   UNL     1      -7.890   4.053 131.222  0.00  0.00    +0.000 A 
ATOM      3  C   UNL     1      -8.022   2.653 131.090  0.00  0.00    +0.000 A 
ATOM      4  C   UNL     1      -7.327   1.653 130.385  0.00  0.00    +0.000 A 
ATOM      5  C   UNL     1      -7.731   0.314 130.514  0.00  0.00    +0.000 A 
ATOM      6  C   UNL     1      -8.806   0.014 131.357  0.00  0.00    +0.000 A 
ATOM      7  C   UNL     1      -9.548   0.994 132.033  0.00  0.00    +0.000 A 
ATOM      8  C   UNL     1      -9.110   2.302 131.881  0.00  0.00    +0.000 A 
ATOM      9  O   UNL     1      -9.644   3.411 132.479  0.00  0.00    +0.000 OA
ENDROOT
BRANCH   5  10
ATOM     10  C   UNL     1      -6.947  -0.736 129.778  0.00  0.00    +0.000 C 
ATOM     11  O   UNL     1      -6.598  -1.762 130.360  0.00  0.00    +0.000 OA
ATOM     12  N   UNL     1      -6.638  -0.549 128.433  0.00  0.00    +0.000 N 
ATOM     13  C   UNL     1      -7.547  -1.119 127.442  0.00  0.00    +0.000 C 
ATOM     14  C   UNL     1      -6.814  -1.435 126.148  0.00  0.00    +0.000 C 
ATOM     15  C   UNL     1      -6.039  -0.209 125.619  0.00  0.00    +0.000 C 
ATOM     16  C   UNL     1      -5.096   0.321 126.710  0.00  0.00    +0.000 C 
ATOM     17  C   UNL     1      -5.807   0.578 128.026  0.00  0.00    +0.000 C 
BRANCH  15  18
ATOM     18  N   UNL     1      -6.934   0.795 124.960  0.00  0.00    +0.000 N 
ATOM     19  C   UNL     1      -6.808   2.175 125.120  0.00  0.00    +0.000 C 
ATOM     20  O   UNL     1      -5.801   2.846 125.027  0.00  0.00    +0.000 OA
ATOM     21  O   UNL     1      -7.975   2.779 125.460  0.00  0.00    +0.000 OA
ATOM     22  C   UNL     1      -8.855   2.764 124.358  0.00  0.00    +0.000 C 
ATOM     23  C   UNL     1      -8.985   1.377 123.807  0.00  0.00    +0.000 A 
ATOM     24  C   UNL     1     -10.039   1.090 122.939  0.00  0.00    +0.000 A 
ATOM     25  C   UNL     1     -10.155  -0.181 122.397  0.00  0.00    +0.000 A 
ATOM     26  C   UNL     1      -9.215  -1.160 122.711  0.00  0.00    +0.000 A 
ATOM     27  C   UNL     1      -8.155  -0.878 123.578  0.00  0.00    +0.000 A 
ATOM     28  C   UNL     1      -8.032   0.394 124.140  0.00  0.00    +0.000 A 
ENDBRANCH  15  18
ENDBRANCH   5  10
BRANCH   1  29
ATOM     29  C   UNL     1      -9.193   5.842 132.568  0.00  0.00    +0.000 C 
BRANCH  29  32
ATOM     30  O   UNL     1     -12.609   6.599 132.044  0.00  0.00    +0.000 OA
ATOM     31  C   UNL     1     -11.508   6.193 131.686  0.00  0.00    +0.000 C 
ATOM     32  N   UNL     1     -10.599   6.065 132.689  0.00  0.00    +0.000 N 
ATOM     33  H   UNL     1     -10.979   6.294 133.603  0.00  0.00    +0.000 HD
BRANCH  31  34
ATOM     34  C   UNL     1     -11.102   5.871 130.228  0.00  0.00    +0.000 C 
BRANCH  34  35
ATOM     35  N   UNL     1     -11.161   6.947 129.235  0.00  0.00    +0.000 N 
ATOM     36  C   UNL     1     -12.057   7.105 128.211  0.00  0.00    +0.000 C 
ATOM     37  O   UNL     1     -13.042   6.446 127.911  0.00  0.00    +0.000 OA
ATOM     38  C   UNL     1     -11.666   8.301 127.384  0.00  0.00    +0.000 C 
ATOM     39  N   UNL     1     -10.420   8.646 127.987  0.00  0.00    +0.000 N 
ATOM     40  C   UNL     1     -10.136   7.840 129.067  0.00  0.00    +0.000 C 
ATOM     41  O   UNL     1      -9.112   7.932 129.723  0.00  0.00    +0.000 OA
ATOM     42  H   UNL     1      -9.801   9.384 127.679  0.00  0.00    +0.000 HD
ENDBRANCH  34  35
ENDBRANCH  31  34
ENDBRANCH  29  32
ENDBRANCH   1  29
TORSDOF 6
ENDMDL
MODEL 4
REMARK VINA RESULT:      -9.9      3.840      8.295
REMARK  Name = CHEMBL31476
REMARK  6 active torsions:
REMARK  status: ('A' for Active; 'I' for Inactive)
REMARK    1  A    between atoms: C_2  and  C_3
REMARK    2  A    between atoms: C_3  and  N_4
REMARK    3  A    between atoms: N_11  and  C_12
REMARK    4  A    between atoms: C_12  and  C_13
REMARK    5  A    between atoms: C_17  and  C_18
REMARK    6  A    between atoms: C_23  and  N_24
REMARK                            x       y       z     vdW  Elec       q    Type
REMARK                         _______ _______ _______ _____ _____    ______ ____
ROOT
ATOM      1  C   UNL     1      -6.664  -2.646 125.839  0.00  0.00    +0.000 A 
ATOM      2  C   UNL     1      -5.677  -1.988 126.540  0.00  0.00    +0.000 A 
ATOM      3  C   UNL     1      -6.108  -1.895 127.882  0.00  0.00    +0.000 A 
ATOM      4  C   UNL     1      -5.573  -1.342 129.060  0.00  0.00    +0.000 A 
ATOM      5  C   UNL     1      -6.316  -1.409 130.251  0.00  0.00    +0.000 A 
ATOM      6  C   UNL     1      -7.579  -2.011 130.222  0.00  0.00    +0.000 A 
ATOM      7  C   UNL     1      -8.117  -2.613 129.074  0.00  0.00    +0.000 A 
ATOM      8  C   UNL     1      -7.350  -2.518 127.921  0.00  0.00    +0.000 A 
ATOM      9  O   UNL     1      -7.691  -2.985 126.681  0.00  0.00    +0.000 OA
ENDROOT
BRANCH   5  10
ATOM     10  C   UNL     1      -5.734  -0.778 131.485  0.00  0.00    +0.000 C 
ATOM     11  O   UNL     1      -5.386  -1.484 132.429  0.00  0.00    +0.000 OA
ATOM     12  N   UNL     1      -5.574   0.603 131.541  0.00  0.00    +0.000 N 
ATOM     13  C   UNL     1      -4.280   1.154 131.147  0.00  0.00    +0.000 C 
ATOM     14  C   UNL     1      -4.012   2.474 131.852  0.00  0.00    +0.000 C 
ATOM     15  C   UNL     1      -5.175   3.471 131.656  0.00  0.00    +0.000 C 
ATOM     16  C   UNL     1      -6.495   2.826 132.105  0.00  0.00    +0.000 C 
ATOM     17  C   UNL     1      -6.740   1.476 131.456  0.00  0.00    +0.000 C 
BRANCH  15  18
ATOM     18  N   UNL     1      -5.165   4.103 130.297  0.00  0.00    +0.000 N 
ATOM     19  C   UNL     1      -6.185   3.949 129.359  0.00  0.00    +0.000 C 
ATOM     20  O   UNL     1      -7.380   4.074 129.531  0.00  0.00    +0.000 OA
ATOM     21  O   UNL     1      -5.731   3.573 128.137  0.00  0.00    +0.000 OA
ATOM     22  C   UNL     1      -5.039   4.646 127.537  0.00  0.00    +0.000 C 
ATOM     23  C   UNL     1      -4.002   5.191 128.471  0.00  0.00    +0.000 A 
ATOM     24  C   UNL     1      -3.005   6.026 127.962  0.00  0.00    +0.000 A 
ATOM     25  C   UNL     1      -2.056   6.562 128.819  0.00  0.00    +0.000 A 
ATOM     26  C   UNL     1      -2.107   6.276 130.181  0.00  0.00    +0.000 A 
ATOM     27  C   UNL     1      -3.105   5.444 130.697  0.00  0.00    +0.000 A 
ATOM     28  C   UNL     1      -4.061   4.887 129.846  0.00  0.00    +0.000 A 
ENDBRANCH  15  18
ENDBRANCH   5  10
BRANCH   1  29
ATOM     29  C   UNL     1      -6.731  -2.998 124.400  0.00  0.00    +0.000 C 
BRANCH  29  32
ATOM     30  O   UNL     1     -10.071  -2.823 123.245  0.00  0.00    +0.000 OA
ATOM     31  C   UNL     1      -8.907  -2.440 123.296  0.00  0.00    +0.000 C 
ATOM     32  N   UNL     1      -8.069  -3.268 123.974  0.00  0.00    +0.000 N 
ATOM     33  H   UNL     1      -8.527  -4.110 124.313  0.00  0.00    +0.000 HD
BRANCH  31  34
ATOM     34  C   UNL     1      -8.372  -1.118 122.698  0.00  0.00    +0.000 C 
BRANCH  34  35
ATOM     35  N   UNL     1      -8.759   0.143 123.336  0.00  0.00    +0.000 N 
ATOM     36  C   UNL     1      -8.096   0.832 124.316  0.00  0.00    +0.000 C 
ATOM     37  O   UNL     1      -7.016   0.614 124.848  0.00  0.00    +0.000 OA
ATOM     38  C   UNL     1      -8.920   2.021 124.737  0.00  0.00    +0.000 C 
ATOM     39  N   UNL     1     -10.115   1.793 123.993  0.00  0.00    +0.000 N 
ATOM     40  C   UNL     1     -10.006   0.686 123.181  0.00  0.00    +0.000 C 
ATOM     41  O   UNL     1     -10.913   0.282 122.472  0.00  0.00    +0.000 OA
ATOM     42  H   UNL     1     -10.954   2.356 124.038  0.00  0.00    +0.000 HD
ENDBRANCH  34  35
ENDBRANCH  31  34
ENDBRANCH  29  32
ENDBRANCH   1  29
TORSDOF 6
ENDMDL
MODEL 5
REMARK VINA RESULT:      -9.9      4.261      7.964
REMARK  Name = CHEMBL31476
REMARK  6 active torsions:
REMARK  status: ('A' for Active; 'I' for Inactive)
REMARK    1  A    between atoms: C_2  and  C_3
REMARK    2  A    between atoms: C_3  and  N_4
REMARK    3  A    between atoms: N_11  and  C_12
REMARK    4  A    between atoms: C_12  and  C_13
REMARK    5  A    between atoms: C_17  and  C_18
REMARK    6  A    between atoms: C_23  and  N_24
REMARK                            x       y       z     vdW  Elec       q    Type
REMARK                         _______ _______ _______ _____ _____    ______ ____
ROOT
ATOM      1  C   UNL     1      -7.178  -2.028 124.599  0.00  0.00    +0.000 A 
ATOM      2  C   UNL     1      -6.188  -1.820 125.534  0.00  0.00    +0.000 A 
ATOM      3  C   UNL     1      -6.666  -2.317 126.766  0.00  0.00    +0.000 A 
ATOM      4  C   UNL     1      -6.150  -2.391 128.074  0.00  0.00    +0.000 A 
ATOM      5  C   UNL     1      -6.941  -2.942 129.096  0.00  0.00    +0.000 A 
ATOM      6  C   UNL     1      -8.230  -3.385 128.782  0.00  0.00    +0.000 A 
ATOM      7  C   UNL     1      -8.753  -3.369 127.481  0.00  0.00    +0.000 A 
ATOM      8  C   UNL     1      -7.938  -2.811 126.505  0.00  0.00    +0.000 A 
ATOM      9  O   UNL     1      -8.253  -2.645 125.184  0.00  0.00    +0.000 OA
ENDROOT
BRANCH   5  10
ATOM     10  C   UNL     1      -6.376  -2.974 130.488  0.00  0.00    +0.000 C 
ATOM     11  O   UNL     1      -6.143  -4.052 131.031  0.00  0.00    +0.000 OA
ATOM     12  N   UNL     1      -6.102  -1.780 131.148  0.00  0.00    +0.000 N 
ATOM     13  C   UNL     1      -4.746  -1.246 131.052  0.00  0.00    +0.000 C 
ATOM     14  C   UNL     1      -4.405  -0.400 132.268  0.00  0.00    +0.000 C 
ATOM     15  C   UNL     1      -5.465   0.694 132.515  0.00  0.00    +0.000 C 
ATOM     16  C   UNL     1      -6.859   0.056 132.619  0.00  0.00    +0.000 C 
ATOM     17  C   UNL     1      -7.182  -0.844 131.440  0.00  0.00    +0.000 C 
BRANCH  15  18
ATOM     18  N   UNL     1      -5.326   1.851 131.572  0.00  0.00    +0.000 N 
ATOM     19  C   UNL     1      -6.207   2.110 130.523  0.00  0.00    +0.000 C 
ATOM     20  O   UNL     1      -7.420   2.143 130.560  0.00  0.00    +0.000 OA
ATOM     21  O   UNL     1      -5.578   2.301 129.336  0.00  0.00    +0.000 OA
ATOM     22  C   UNL     1      -4.890   3.533 129.357  0.00  0.00    +0.000 C 
ATOM     23  C   UNL     1      -4.017   3.627 130.571  0.00  0.00    +0.000 A 
ATOM     24  C   UNL     1      -3.022   4.605 130.614  0.00  0.00    +0.000 A 
ATOM     25  C   UNL     1      -2.226   4.725 131.744  0.00  0.00    +0.000 A 
ATOM     26  C   UNL     1      -2.430   3.879 132.831  0.00  0.00    +0.000 A 
ATOM     27  C   UNL     1      -3.427   2.900 132.795  0.00  0.00    +0.000 A 
ATOM     28  C   UNL     1      -4.229   2.760 131.661  0.00  0.00    +0.000 A 
ENDBRANCH  15  18
ENDBRANCH   5  10
BRANCH   1  29
ATOM     29  C   UNL     1      -7.208  -1.686 123.156  0.00  0.00    +0.000 C 
BRANCH  29  32
ATOM     30  O   UNL     1     -10.431  -0.347 122.572  0.00  0.00    +0.000 OA
ATOM     31  C   UNL     1      -9.243  -0.259 122.866  0.00  0.00    +0.000 C 
ATOM     32  N   UNL     1      -8.532  -1.405 122.696  0.00  0.00    +0.000 N 
ATOM     33  H   UNL     1      -9.086  -2.166 122.315  0.00  0.00    +0.000 HD
BRANCH  31  34
ATOM     34  C   UNL     1      -8.550   1.006 123.424  0.00  0.00    +0.000 C 
BRANCH  34  35
ATOM     35  N   UNL     1      -8.315   1.092 124.868  0.00  0.00    +0.000 N 
ATOM     36  C   UNL     1      -9.174   0.770 125.885  0.00  0.00    +0.000 C 
ATOM     37  O   UNL     1     -10.296   0.285 125.852  0.00  0.00    +0.000 OA
ATOM     38  C   UNL     1      -8.538   1.117 127.206  0.00  0.00    +0.000 C 
ATOM     39  N   UNL     1      -7.351   1.773 126.765  0.00  0.00    +0.000 N 
ATOM     40  C   UNL     1      -7.238   1.754 125.392  0.00  0.00    +0.000 C 
ATOM     41  O   UNL     1      -6.317   2.278 124.787  0.00  0.00    +0.000 OA
ATOM     42  H   UNL     1      -6.662   2.209 127.363  0.00  0.00    +0.000 HD
ENDBRANCH  34  35
ENDBRANCH  31  34
ENDBRANCH  29  32
ENDBRANCH   1  29
TORSDOF 6
ENDMDL
MODEL 6
REMARK VINA RESULT:      -9.9      2.239      8.946
REMARK  Name = CHEMBL31476
REMARK  6 active torsions:
REMARK  status: ('A' for Active; 'I' for Inactive)
REMARK    1  A    between atoms: C_2  and  C_3
REMARK    2  A    between atoms: C_3  and  N_4
REMARK    3  A    between atoms: N_11  and  C_12
REMARK    4  A    between atoms: C_12  and  C_13
REMARK    5  A    between atoms: C_17  and  C_18
REMARK    6  A    between atoms: C_23  and  N_24
REMARK                            x       y       z     vdW  Elec       q    Type
REMARK                         _______ _______ _______ _____ _____    ______ ____
ROOT
ATOM      1  C   UNL     1      -6.871  -0.764 127.731  0.00  0.00    +0.000 A 
ATOM      2  C   UNL     1      -6.488   0.539 127.959  0.00  0.00    +0.000 A 
ATOM      3  C   UNL     1      -6.831   0.848 129.294  0.00  0.00    +0.000 A 
ATOM      4  C   UNL     1      -6.716   1.990 130.110  0.00  0.00    +0.000 A 
ATOM      5  C   UNL     1      -7.208   1.948 131.425  0.00  0.00    +0.000 A 
ATOM      6  C   UNL     1      -7.818   0.772 131.877  0.00  0.00    +0.000 A 
ATOM      7  C   UNL     1      -7.904  -0.395 131.104  0.00  0.00    +0.000 A 
ATOM      8  C   UNL     1      -7.409  -0.306 129.810  0.00  0.00    +0.000 A 
ATOM      9  O   UNL     1      -7.428  -1.295 128.865  0.00  0.00    +0.000 OA
ENDROOT
BRANCH   5  10
ATOM     10  C   UNL     1      -7.104   3.193 132.260  0.00  0.00    +0.000 C 
ATOM     11  O   UNL     1      -6.282   3.253 133.172  0.00  0.00    +0.000 OA
ATOM     12  N   UNL     1      -7.926   4.281 131.980  0.00  0.00    +0.000 N 
ATOM     13  C   UNL     1      -7.401   5.321 131.099  0.00  0.00    +0.000 C 
ATOM     14  C   UNL     1      -8.043   6.665 131.400  0.00  0.00    +0.000 C 
ATOM     15  C   UNL     1      -9.584   6.579 131.376  0.00  0.00    +0.000 C 
ATOM     16  C   UNL     1     -10.059   5.477 132.336  0.00  0.00    +0.000 C 
ATOM     17  C   UNL     1      -9.375   4.145 132.085  0.00  0.00    +0.000 C 
BRANCH  15  18
ATOM     18  N   UNL     1     -10.135   6.538 129.983  0.00  0.00    +0.000 N 
ATOM     19  C   UNL     1      -9.691   5.660 128.995  0.00  0.00    +0.000 C 
ATOM     20  O   UNL     1      -9.528   4.460 129.085  0.00  0.00    +0.000 OA
ATOM     21  O   UNL     1      -9.381   6.282 127.830  0.00  0.00    +0.000 OA
ATOM     22  C   UNL     1     -10.562   6.737 127.207  0.00  0.00    +0.000 C 
ATOM     23  C   UNL     1     -11.388   7.538 128.166  0.00  0.00    +0.000 A 
ATOM     24  C   UNL     1     -12.416   8.339 127.667  0.00  0.00    +0.000 A 
ATOM     25  C   UNL     1     -13.209   9.064 128.544  0.00  0.00    +0.000 A 
ATOM     26  C   UNL     1     -12.983   8.981 129.916  0.00  0.00    +0.000 A 
ATOM     27  C   UNL     1     -11.957   8.178 130.422  0.00  0.00    +0.000 A 
ATOM     28  C   UNL     1     -11.144   7.451 129.551  0.00  0.00    +0.000 A 
ENDBRANCH  15  18
ENDBRANCH   5  10
BRANCH   1  29
ATOM     29  C   UNL     1      -6.758  -1.584 126.501  0.00  0.00    +0.000 C 
BRANCH  29  32
ATOM     30  O   UNL     1      -9.824  -2.545 125.020  0.00  0.00    +0.000 OA
ATOM     31  C   UNL     1      -8.685  -2.090 124.987  0.00  0.00    +0.000 C 
ATOM     32  N   UNL     1      -7.996  -2.207 126.153  0.00  0.00    +0.000 N 
ATOM     33  H   UNL     1      -8.518  -2.690 126.879  0.00  0.00    +0.000 HD
BRANCH  31  34
ATOM     34  C   UNL     1      -8.034  -1.393 123.770  0.00  0.00    +0.000 C 
BRANCH  34  35
ATOM     35  N   UNL     1      -8.367   0.010 123.509  0.00  0.00    +0.000 N 
ATOM     36  C   UNL     1      -7.703   1.130 123.933  0.00  0.00    +0.000 C 
ATOM     37  O   UNL     1      -6.661   1.243 124.563  0.00  0.00    +0.000 OA
ATOM     38  C   UNL     1      -8.468   2.356 123.510  0.00  0.00    +0.000 C 
ATOM     39  N   UNL     1      -9.645   1.761 122.966  0.00  0.00    +0.000 N 
ATOM     40  C   UNL     1      -9.572   0.386 122.977  0.00  0.00    +0.000 C 
ATOM     41  O   UNL     1     -10.473  -0.338 122.586  0.00  0.00    +0.000 OA
ATOM     42  H   UNL     1     -10.449   2.262 122.611  0.00  0.00    +0.000 HD
ENDBRANCH  34  35
ENDBRANCH  31  34
ENDBRANCH  29  32
ENDBRANCH   1  29
TORSDOF 6
ENDMDL
MODEL 7
REMARK VINA RESULT:      -9.9      2.529      3.700
REMARK  Name = CHEMBL31476
REMARK  6 active torsions:
REMARK  status: ('A' for Active; 'I' for Inactive)
REMARK    1  A    between atoms: C_2  and  C_3
REMARK    2  A    between atoms: C_3  and  N_4
REMARK    3  A    between atoms: N_11  and  C_12
REMARK    4  A    between atoms: C_12  and  C_13
REMARK    5  A    between atoms: C_17  and  C_18
REMARK    6  A    between atoms: C_23  and  N_24
REMARK                            x       y       z     vdW  Elec       q    Type
REMARK                         _______ _______ _______ _____ _____    ______ ____
ROOT
ATOM      1  C   UNL     1      -8.618   1.998 132.669  0.00  0.00    +0.000 A 
ATOM      2  C   UNL     1      -8.950   1.397 131.475  0.00  0.00    +0.000 A 
ATOM      3  C   UNL     1      -8.172   0.224 131.367  0.00  0.00    +0.000 A 
ATOM      4  C   UNL     1      -8.040  -0.795 130.405  0.00  0.00    +0.000 A 
ATOM      5  C   UNL     1      -7.115  -1.830 130.620  0.00  0.00    +0.000 A 
ATOM      6  C   UNL     1      -6.337  -1.804 131.783  0.00  0.00    +0.000 A 
ATOM      7  C   UNL     1      -6.480  -0.830 132.782  0.00  0.00    +0.000 A 
ATOM      8  C   UNL     1      -7.402   0.176 132.523  0.00  0.00    +0.000 A 
ATOM      9  O   UNL     1      -7.675   1.250 133.325  0.00  0.00    +0.000 OA
ENDROOT
BRANCH   5  10
ATOM     10  C   UNL     1      -6.971  -2.884 129.558  0.00  0.00    +0.000 C 
ATOM     11  O   UNL     1      -6.976  -4.073 129.869  0.00  0.00    +0.000 OA
ATOM     12  N   UNL     1      -6.854  -2.505 128.224  0.00  0.00    +0.000 N 
ATOM     13  C   UNL     1      -8.075  -2.448 127.424  0.00  0.00    +0.000 C 
ATOM     14  C   UNL     1      -7.775  -2.689 125.953  0.00  0.00    +0.000 C 
ATOM     15  C   UNL     1      -6.672  -1.741 125.435  0.00  0.00    +0.000 C 
ATOM     16  C   UNL     1      -5.420  -1.868 126.315  0.00  0.00    +0.000 C 
ATOM     17  C   UNL     1      -5.720  -1.694 127.793  0.00  0.00    +0.000 C 
BRANCH  15  18
ATOM     18  N   UNL     1      -7.179  -0.352 125.186  0.00  0.00    +0.000 N 
ATOM     19  C   UNL     1      -6.666   0.786 125.806  0.00  0.00    +0.000 C 
ATOM     20  O   UNL     1      -5.502   1.112 125.918  0.00  0.00    +0.000 OA
ATOM     21  O   UNL     1      -7.626   1.565 126.367  0.00  0.00    +0.000 OA
ATOM     22  C   UNL     1      -8.384   2.187 125.353  0.00  0.00    +0.000 C 
ATOM     23  C   UNL     1      -8.873   1.173 124.365  0.00  0.00    +0.000 A 
ATOM     24  C   UNL     1      -9.895   1.527 123.482  0.00  0.00    +0.000 A 
ATOM     25  C   UNL     1     -10.338   0.609 122.542  0.00  0.00    +0.000 A 
ATOM     26  C   UNL     1      -9.755  -0.654 122.473  0.00  0.00    +0.000 A 
ATOM     27  C   UNL     1      -8.729  -1.013 123.352  0.00  0.00    +0.000 A 
ATOM     28  C   UNL     1      -8.280  -0.104 124.312  0.00  0.00    +0.000 A 
ENDBRANCH  15  18
ENDBRANCH   5  10
BRANCH   1  29
ATOM     29  C   UNL     1      -9.122   3.257 133.271  0.00  0.00    +0.000 C 
BRANCH  29  32
ATOM     30  O   UNL     1     -10.831   5.476 131.108  0.00  0.00    +0.000 OA
ATOM     31  C   UNL     1      -9.823   4.934 131.551  0.00  0.00    +0.000 C 
ATOM     32  N   UNL     1     -10.063   3.920 132.423  0.00  0.00    +0.000 N 
ATOM     33  H   UNL     1     -11.053   3.733 132.555  0.00  0.00    +0.000 HD
BRANCH  31  34
ATOM     34  C   UNL     1      -8.368   5.343 131.221  0.00  0.00    +0.000 C 
BRANCH  34  35
ATOM     35  N   UNL     1      -7.609   4.516 130.278  0.00  0.00    +0.000 N 
ATOM     36  C   UNL     1      -6.443   3.832 130.502  0.00  0.00    +0.000 C 
ATOM     37  O   UNL     1      -5.792   3.689 131.527  0.00  0.00    +0.000 OA
ATOM     38  C   UNL     1      -5.976   3.205 129.215  0.00  0.00    +0.000 C 
ATOM     39  N   UNL     1      -6.921   3.748 128.296  0.00  0.00    +0.000 N 
ATOM     40  C   UNL     1      -7.869   4.518 128.934  0.00  0.00    +0.000 C 
ATOM     41  O   UNL     1      -8.763   5.105 128.348  0.00  0.00    +0.000 OA
ATOM     42  H   UNL     1      -6.919   3.605 127.295  0.00  0.00    +0.000 HD
ENDBRANCH  34  35
ENDBRANCH  31  34
ENDBRANCH  29  32
ENDBRANCH   1  29
TORSDOF 6
ENDMDL
MODEL 8
REMARK VINA RESULT:      -9.7      1.703      2.355
REMARK  Name = CHEMBL31476
REMARK  6 active torsions:
REMARK  status: ('A' for Active; 'I' for Inactive)
REMARK    1  A    between atoms: C_2  and  C_3
REMARK    2  A    between atoms: C_3  and  N_4
REMARK    3  A    between atoms: N_11  and  C_12
REMARK    4  A    between atoms: C_12  and  C_13
REMARK    5  A    between atoms: C_17  and  C_18
REMARK    6  A    between atoms: C_23  and  N_24
REMARK                            x       y       z     vdW  Elec       q    Type
REMARK                         _______ _______ _______ _____ _____    ______ ____
ROOT
ATOM      1  C   UNL     1      -8.960   4.469 132.708  0.00  0.00    +0.000 A 
ATOM      2  C   UNL     1      -7.641   4.157 132.458  0.00  0.00    +0.000 A 
ATOM      3  C   UNL     1      -7.577   2.766 132.227  0.00  0.00    +0.000 A 
ATOM      4  C   UNL     1      -6.544   1.855 131.936  0.00  0.00    +0.000 A 
ATOM      5  C   UNL     1      -6.849   0.491 131.794  0.00  0.00    +0.000 A 
ATOM      6  C   UNL     1      -8.175   0.078 131.967  0.00  0.00    +0.000 A 
ATOM      7  C   UNL     1      -9.232   0.967 132.210  0.00  0.00    +0.000 A 
ATOM      8  C   UNL     1      -8.882   2.304 132.347  0.00  0.00    +0.000 A 
ATOM      9  O   UNL     1      -9.731   3.339 132.632  0.00  0.00    +0.000 OA
ENDROOT
BRANCH   5  10
ATOM     10  C   UNL     1      -5.721  -0.463 131.519  0.00  0.00    +0.000 C 
ATOM     11  O   UNL     1      -4.883  -0.689 132.389  0.00  0.00    +0.000 OA
ATOM     12  N   UNL     1      -5.643  -1.100 130.284  0.00  0.00    +0.000 N 
ATOM     13  C   UNL     1      -6.247  -2.424 130.164  0.00  0.00    +0.000 C 
ATOM     14  C   UNL     1      -5.555  -3.243 129.086  0.00  0.00    +0.000 C 
ATOM     15  C   UNL     1      -5.498  -2.485 127.743  0.00  0.00    +0.000 C 
ATOM     16  C   UNL     1      -4.839  -1.112 127.947  0.00  0.00    +0.000 C 
ATOM     17  C   UNL     1      -5.482  -0.313 129.066  0.00  0.00    +0.000 C 
BRANCH  15  18
ATOM     18  N   UNL     1      -6.812  -2.497 127.021  0.00  0.00    +0.000 N 
ATOM     19  C   UNL     1      -8.050  -2.567 127.658  0.00  0.00    +0.000 C 
ATOM     20  O   UNL     1      -8.444  -1.902 128.594  0.00  0.00    +0.000 OA
ATOM     21  O   UNL     1      -8.852  -3.540 127.156  0.00  0.00    +0.000 OA
ATOM     22  C   UNL     1      -9.288  -3.175 125.865  0.00  0.00    +0.000 C 
ATOM     23  C   UNL     1      -8.123  -2.793 125.004  0.00  0.00    +0.000 A 
ATOM     24  C   UNL     1      -8.299  -2.716 123.622  0.00  0.00    +0.000 A 
ATOM     25  C   UNL     1      -7.237  -2.335 122.815  0.00  0.00    +0.000 A 
ATOM     26  C   UNL     1      -6.007  -2.019 123.386  0.00  0.00    +0.000 A 
ATOM     27  C   UNL     1      -5.825  -2.091 124.770  0.00  0.00    +0.000 A 
ATOM     28  C   UNL     1      -6.881  -2.484 125.595  0.00  0.00    +0.000 A 
ENDBRANCH  15  18
ENDBRANCH   5  10
BRANCH   1  29
ATOM     29  C   UNL     1      -9.582   5.777 133.024  0.00  0.00    +0.000 C 
BRANCH  29  32
ATOM     30  O   UNL     1     -12.686   6.626 131.552  0.00  0.00    +0.000 OA
ATOM     31  C   UNL     1     -11.460   6.569 131.572  0.00  0.00    +0.000 C 
ATOM     32  N   UNL     1     -10.945   5.842 132.599  0.00  0.00    +0.000 N 
ATOM     33  H   UNL     1     -11.659   5.418 133.185  0.00  0.00    +0.000 HD
BRANCH  31  34
ATOM     34  C   UNL     1     -10.514   7.272 130.571  0.00  0.00    +0.000 C 
BRANCH  34  35
ATOM     35  N   UNL     1     -11.005   7.534 129.215  0.00  0.00    +0.000 N 
ATOM     36  C   UNL     1     -10.525   7.037 128.032  0.00  0.00    +0.000 C 
ATOM     37  O   UNL     1      -9.636   6.227 127.814  0.00  0.00    +0.000 OA
ATOM     38  C   UNL     1     -11.277   7.661 126.885  0.00  0.00    +0.000 C 
ATOM     39  N   UNL     1     -12.074   8.619 127.580  0.00  0.00    +0.000 N 
ATOM     40  C   UNL     1     -11.899   8.535 128.944  0.00  0.00    +0.000 C 
ATOM     41  O   UNL     1     -12.458   9.272 129.739  0.00  0.00    +0.000 OA
ATOM     42  H   UNL     1     -12.697   9.290 127.150  0.00  0.00    +0.000 HD
ENDBRANCH  34  35
ENDBRANCH  31  34
ENDBRANCH  29  32
ENDBRANCH   1  29
TORSDOF 6
ENDMDL
MODEL 9
REMARK VINA RESULT:      -9.5      2.026      3.080
REMARK  Name = CHEMBL31476
REMARK  6 active torsions:
REMARK  status: ('A' for Active; 'I' for Inactive)
REMARK    1  A    between atoms: C_2  and  C_3
REMARK    2  A    between atoms: C_3  and  N_4
REMARK    3  A    between atoms: N_11  and  C_12
REMARK    4  A    between atoms: C_12  and  C_13
REMARK    5  A    between atoms: C_17  and  C_18
REMARK    6  A    between atoms: C_23  and  N_24
REMARK                            x       y       z     vdW  Elec       q    Type
REMARK                         _______ _______ _______ _____ _____    ______ ____
ROOT
ATOM      1  C   UNL     1      -8.758   3.452 131.828  0.00  0.00    +0.000 A 
ATOM      2  C   UNL     1      -7.750   3.203 130.923  0.00  0.00    +0.000 A 
ATOM      3  C   UNL     1      -7.711   1.807 130.713  0.00  0.00    +0.000 A 
ATOM      4  C   UNL     1      -6.921   0.942 129.933  0.00  0.00    +0.000 A 
ATOM      5  C   UNL     1      -7.150  -0.442 129.996  0.00  0.00    +0.000 A 
ATOM      6  C   UNL     1      -8.149  -0.920 130.851  0.00  0.00    +0.000 A 
ATOM      7  C   UNL     1      -8.984  -0.080 131.603  0.00  0.00    +0.000 A 
ATOM      8  C   UNL     1      -8.717   1.280 131.514  0.00  0.00    +0.000 A 
ATOM      9  O   UNL     1      -9.365   2.278 132.189  0.00  0.00    +0.000 OA
ENDROOT
BRANCH   5  10
ATOM     10  C   UNL     1      -6.267  -1.344 129.179  0.00  0.00    +0.000 C 
ATOM     11  O   UNL     1      -5.527  -2.150 129.740  0.00  0.00    +0.000 OA
ATOM     12  N   UNL     1      -6.308  -1.273 127.790  0.00  0.00    +0.000 N 
ATOM     13  C   UNL     1      -7.200  -2.194 127.089  0.00  0.00    +0.000 C 
ATOM     14  C   UNL     1      -6.690  -2.486 125.687  0.00  0.00    +0.000 C 
ATOM     15  C   UNL     1      -6.424  -1.187 124.896  0.00  0.00    +0.000 C 
ATOM     16  C   UNL     1      -5.469  -0.281 125.688  0.00  0.00    +0.000 C 
ATOM     17  C   UNL     1      -5.937  -0.036 127.111  0.00  0.00    +0.000 C 
BRANCH  15  18
ATOM     18  N   UNL     1      -7.685  -0.554 124.391  0.00  0.00    +0.000 N 
ATOM     19  C   UNL     1      -8.928  -1.188 124.388  0.00  0.00    +0.000 C 
ATOM     20  O   UNL     1      -9.460  -1.785 125.301  0.00  0.00    +0.000 OA
ATOM     21  O   UNL     1      -9.550  -1.133 123.184  0.00  0.00    +0.000 OA
ATOM     22  C   UNL     1      -9.975   0.188 122.929  0.00  0.00    +0.000 C 
ATOM     23  C   UNL     1      -8.841   1.150 123.114  0.00  0.00    +0.000 A 
ATOM     24  C   UNL     1      -8.962   2.444 122.603  0.00  0.00    +0.000 A 
ATOM     25  C   UNL     1      -7.933   3.354 122.792  0.00  0.00    +0.000 A 
ATOM     26  C   UNL     1      -6.793   2.980 123.497  0.00  0.00    +0.000 A 
ATOM     27  C   UNL     1      -6.667   1.687 124.014  0.00  0.00    +0.000 A 
ATOM     28  C   UNL     1      -7.689   0.755 123.823  0.00  0.00    +0.000 A 
ENDBRANCH  15  18
ENDBRANCH   5  10
BRANCH   1  29
ATOM     29  C   UNL     1      -9.218   4.738 132.405  0.00  0.00    +0.000 C 
BRANCH  29  32
ATOM     30  O   UNL     1      -8.194   7.483 130.420  0.00  0.00    +0.000 OA
ATOM     31  C   UNL     1      -9.037   6.747 130.923  0.00  0.00    +0.000 C 
ATOM     32  N   UNL     1      -8.545   5.860 131.828  0.00  0.00    +0.000 N 
ATOM     33  H   UNL     1      -7.546   5.960 131.983  0.00  0.00    +0.000 HD
BRANCH  31  34
ATOM     34  C   UNL     1     -10.544   6.745 130.578  0.00  0.00    +0.000 C 
BRANCH  34  35
ATOM     35  N   UNL     1     -10.963   7.281 129.280  0.00  0.00    +0.000 N 
ATOM     36  C   UNL     1     -10.442   7.005 128.043  0.00  0.00    +0.000 C 
ATOM     37  O   UNL     1      -9.566   6.219 127.709  0.00  0.00    +0.000 OA
ATOM     38  C   UNL     1     -11.121   7.866 127.011  0.00  0.00    +0.000 C 
ATOM     39  N   UNL     1     -11.922   8.700 127.845  0.00  0.00    +0.000 N 
ATOM     40  C   UNL     1     -11.814   8.348 129.172  0.00  0.00    +0.000 C 
ATOM     41  O   UNL     1     -12.389   8.938 130.072  0.00  0.00    +0.000 OA
ATOM     42  H   UNL     1     -12.504   9.464 127.529  0.00  0.00    +0.000 HD
ENDBRANCH  34  35
ENDBRANCH  31  34
ENDBRANCH  29  32
ENDBRANCH   1  29
TORSDOF 6
ENDMDL
