MODEL 1
REMARK VINA RESULT:      -9.4      0.000      0.000
REMARK  Name = CHEMBL363910
REMARK  3 active torsions:
REMARK  status: ('A' for Active; 'I' for Inactive)
REMARK    1  A    between atoms: C_1  and  C_2
REMARK    2  A    between atoms: N_5  and  C_6
REMARK    3  A    between atoms: C_9  and  C_10
REMARK                            x       y       z     vdW  Elec       q    Type
REMARK                         _______ _______ _______ _____ _____    ______ ____
ROOT
ATOM      1  C   UNL     1      -6.743   0.367 124.970  0.00  0.00    +0.000 C 
ATOM      2  O   UNL     1      -6.337   0.039 123.881  0.00  0.00    +0.000 OA
ATOM      3  N   UNL     1      -7.626  -0.560 125.757  0.00  0.00    +0.000 N 
ATOM      4  C   UNL     1      -6.787  -1.663 126.249  0.00  0.00    +0.000 C 
ATOM      5  C   UNL     1      -7.282  -2.295 127.497  0.00  0.00    +0.000 A 
ATOM      6  C   UNL     1      -6.623  -2.374 128.701  0.00  0.00    +0.000 A 
ATOM      7  C   UNL     1      -7.388  -3.182 129.562  0.00  0.00    +0.000 A 
ATOM      8  C   UNL     1      -8.492  -3.611 128.855  0.00  0.00    +0.000 A 
ATOM      9  N   UNL     1      -8.429  -3.062 127.593  0.00  0.00    +0.000 N 
ATOM     10  C   UNL     1      -9.411  -3.313 126.537  0.00  0.00    +0.000 C 
ATOM     11  C   UNL     1      -9.052  -2.637 125.227  0.00  0.00    +0.000 A 
ATOM     12  C   UNL     1      -8.301  -3.387 124.293  0.00  0.00    +0.000 A 
ATOM     13  C   UNL     1      -7.755  -2.703 123.207  0.00  0.00    +0.000 A 
ATOM     14  C   UNL     1      -8.345  -1.502 122.829  0.00  0.00    +0.000 A 
ATOM     15  C   UNL     1      -9.146  -0.841 123.756  0.00  0.00    +0.000 A 
ATOM     16  C   UNL     1      -8.919  -1.225 125.067  0.00  0.00    +0.000 A 
ENDROOT
BRANCH   1  20
ATOM     17  C   UNL     1      -4.649   3.915 126.872  0.00  0.00    +0.000 A 
ATOM     18  C   UNL     1      -4.830   2.689 127.502  0.00  0.00    +0.000 A 
ATOM     19  C   UNL     1      -5.550   1.636 126.846  0.00  0.00    +0.000 A 
ATOM     20  C   UNL     1      -6.044   1.693 125.498  0.00  0.00    +0.000 A 
ATOM     21  C   UNL     1      -5.902   2.965 124.924  0.00  0.00    +0.000 A 
ATOM     22 CL   UNL     1      -6.574   3.346 123.384  0.00  0.00    +0.000 Cl
ATOM     23  C   UNL     1      -5.238   4.066 125.606  0.00  0.00    +0.000 A 
BRANCH  17  28
ATOM     24  C   UNL     1      -3.762   8.152 129.192  0.00  0.00    +0.000 C 
ATOM     25  C   UNL     1      -3.516   6.836 128.524  0.00  0.00    +0.000 A 
ATOM     26  C   UNL     1      -2.281   6.159 128.461  0.00  0.00    +0.000 A 
ATOM     27  C   UNL     1      -2.561   4.965 127.836  0.00  0.00    +0.000 A 
ATOM     28  N   UNL     1      -3.903   4.970 127.511  0.00  0.00    +0.000 N 
ATOM     29  N   UNL     1      -4.482   6.158 127.876  0.00  0.00    +0.000 NA
ENDBRANCH  17  28
ENDBRANCH   1  20
TORSDOF 2
ENDMDL
MODEL 2
REMARK VINA RESULT:      -8.8      5.158      9.056
REMARK  Name = CHEMBL363910
REMARK  3 active torsions:
REMARK  status: ('A' for Active; 'I' for Inactive)
REMARK    1  A    between atoms: C_1  and  C_2
REMARK    2  A    between atoms: N_5  and  C_6
REMARK    3  A    between atoms: C_9  and  C_10
REMARK                            x       y       z     vdW  Elec       q    Type
REMARK                         _______ _______ _______ _____ _____    ______ ____
ROOT
ATOM      1  C   UNL     1      -8.185   3.301 129.599  0.00  0.00    +0.000 C 
ATOM      2  O   UNL     1      -7.126   3.341 130.178  0.00  0.00    +0.000 OA
ATOM      3  N   UNL     1      -9.323   4.176 130.045  0.00  0.00    +0.000 N 
ATOM      4  C   UNL     1      -9.002   5.558 129.652  0.00  0.00    +0.000 C 
ATOM      5  C   UNL     1     -10.190   6.418 129.429  0.00  0.00    +0.000 A 
ATOM      6  C   UNL     1     -10.538   7.060 128.265  0.00  0.00    +0.000 A 
ATOM      7  C   UNL     1     -11.646   7.883 128.539  0.00  0.00    +0.000 A 
ATOM      8  C   UNL     1     -11.938   7.753 129.880  0.00  0.00    +0.000 A 
ATOM      9  N   UNL     1     -11.049   6.850 130.423  0.00  0.00    +0.000 N 
ATOM     10  C   UNL     1     -11.021   6.474 131.837  0.00  0.00    +0.000 C 
ATOM     11  C   UNL     1      -9.891   5.517 132.168  0.00  0.00    +0.000 A 
ATOM     12  C   UNL     1      -8.670   6.080 132.602  0.00  0.00    +0.000 A 
ATOM     13  C   UNL     1      -7.559   5.239 132.667  0.00  0.00    +0.000 A 
ATOM     14  C   UNL     1      -7.782   3.871 132.786  0.00  0.00    +0.000 A 
ATOM     15  C   UNL     1      -9.031   3.374 132.425  0.00  0.00    +0.000 A 
ATOM     16  C   UNL     1      -9.751   4.217 131.596  0.00  0.00    +0.000 A 
ENDROOT
BRANCH   1  20
ATOM     17  C   UNL     1      -7.986   0.500 126.034  0.00  0.00    +0.000 A 
ATOM     18  C   UNL     1      -8.048   0.074 127.356  0.00  0.00    +0.000 A 
ATOM     19  C   UNL     1      -8.056   1.029 128.427  0.00  0.00    +0.000 A 
ATOM     20  C   UNL     1      -8.106   2.455 128.257  0.00  0.00    +0.000 A 
ATOM     21  C   UNL     1      -7.974   2.844 126.915  0.00  0.00    +0.000 A 
ATOM     22 CL   UNL     1      -7.825   4.498 126.460  0.00  0.00    +0.000 Cl
ATOM     23  C   UNL     1      -7.891   1.885 125.822  0.00  0.00    +0.000 A 
BRANCH  17  28
ATOM     24  C   UNL     1      -9.481  -3.272 123.267  0.00  0.00    +0.000 C 
ATOM     25  C   UNL     1      -8.662  -2.113 123.741  0.00  0.00    +0.000 A 
ATOM     26  C   UNL     1      -7.595  -1.512 123.040  0.00  0.00    +0.000 A 
ATOM     27  C   UNL     1      -7.216  -0.443 123.819  0.00  0.00    +0.000 A 
ATOM     28  N   UNL     1      -8.006  -0.450 124.951  0.00  0.00    +0.000 N 
ATOM     29  N   UNL     1      -8.857  -1.525 124.937  0.00  0.00    +0.000 NA
ENDBRANCH  17  28
ENDBRANCH   1  20
TORSDOF 2
ENDMDL
MODEL 3
REMARK VINA RESULT:      -8.6      4.156      6.908
REMARK  Name = CHEMBL363910
REMARK  3 active torsions:
REMARK  status: ('A' for Active; 'I' for Inactive)
REMARK    1  A    between atoms: C_1  and  C_2
REMARK    2  A    between atoms: N_5  and  C_6
REMARK    3  A    between atoms: C_9  and  C_10
REMARK                            x       y       z     vdW  Elec       q    Type
REMARK                         _______ _______ _______ _____ _____    ______ ____
ROOT
ATOM      1  C   UNL     1      -8.063  -2.244 127.213  0.00  0.00    +0.000 C 
ATOM      2  O   UNL     1      -8.821  -3.165 127.024  0.00  0.00    +0.000 OA
ATOM      3  N   UNL     1      -7.655  -1.356 126.071  0.00  0.00    +0.000 N 
ATOM      4  C   UNL     1      -8.812  -0.515 125.725  0.00  0.00    +0.000 C 
ATOM      5  C   UNL     1      -8.456   0.787 125.109  0.00  0.00    +0.000 A 
ATOM      6  C   UNL     1      -8.755   2.039 125.591  0.00  0.00    +0.000 A 
ATOM      7  C   UNL     1      -8.363   2.982 124.623  0.00  0.00    +0.000 A 
ATOM      8  C   UNL     1      -7.857   2.284 123.547  0.00  0.00    +0.000 A 
ATOM      9  N   UNL     1      -7.908   0.941 123.849  0.00  0.00    +0.000 N 
ATOM     10  C   UNL     1      -7.488  -0.123 122.936  0.00  0.00    +0.000 C 
ATOM     11  C   UNL     1      -7.724  -1.511 123.502  0.00  0.00    +0.000 A 
ATOM     12  C   UNL     1      -8.951  -2.140 123.191  0.00  0.00    +0.000 A 
ATOM     13  C   UNL     1      -9.283  -3.293 123.901  0.00  0.00    +0.000 A 
ATOM     14  C   UNL     1      -8.251  -4.021 124.483  0.00  0.00    +0.000 A 
ATOM     15  C   UNL     1      -7.032  -3.382 124.693  0.00  0.00    +0.000 A 
ATOM     16  C   UNL     1      -7.117  -2.000 124.698  0.00  0.00    +0.000 A 
ENDROOT
BRANCH   1  20
ATOM     17  C   UNL     1      -7.298  -1.970 131.677  0.00  0.00    +0.000 A 
ATOM     18  C   UNL     1      -7.420  -3.167 130.980  0.00  0.00    +0.000 A 
ATOM     19  C   UNL     1      -7.714  -3.163 129.576  0.00  0.00    +0.000 A 
ATOM     20  C   UNL     1      -7.803  -1.985 128.759  0.00  0.00    +0.000 A 
ATOM     21  C   UNL     1      -7.741  -0.800 129.509  0.00  0.00    +0.000 A 
ATOM     22 CL   UNL     1      -8.002   0.744 128.791  0.00  0.00    +0.000 Cl
ATOM     23  C   UNL     1      -7.517  -0.790 130.947  0.00  0.00    +0.000 A 
BRANCH  17  28
ATOM     24  C   UNL     1      -7.619  -3.020 136.464  0.00  0.00    +0.000 C 
ATOM     25  C   UNL     1      -7.123  -2.421 135.186  0.00  0.00    +0.000 A 
ATOM     26  C   UNL     1      -5.942  -1.667 135.029  0.00  0.00    +0.000 A 
ATOM     27  C   UNL     1      -5.858  -1.413 133.679  0.00  0.00    +0.000 A 
ATOM     28  N   UNL     1      -6.975  -1.963 133.081  0.00  0.00    +0.000 N 
ATOM     29  N   UNL     1      -7.794  -2.529 134.023  0.00  0.00    +0.000 NA
ENDBRANCH  17  28
ENDBRANCH   1  20
TORSDOF 2
ENDMDL
MODEL 4
REMARK VINA RESULT:      -8.6      5.266      8.780
REMARK  Name = CHEMBL363910
REMARK  3 active torsions:
REMARK  status: ('A' for Active; 'I' for Inactive)
REMARK    1  A    between atoms: C_1  and  C_2
REMARK    2  A    between atoms: N_5  and  C_6
REMARK    3  A    between atoms: C_9  and  C_10
REMARK                            x       y       z     vdW  Elec       q    Type
REMARK                         _______ _______ _______ _____ _____    ______ ____
ROOT
ATOM      1  C   UNL     1      -3.870   5.033 129.360  0.00  0.00    +0.000 C 
ATOM      2  O   UNL     1      -2.851   5.674 129.456  0.00  0.00    +0.000 OA
ATOM      3  N   UNL     1      -4.786   4.890 130.544  0.00  0.00    +0.000 N 
ATOM      4  C   UNL     1      -5.456   6.184 130.748  0.00  0.00    +0.000 C 
ATOM      5  C   UNL     1      -6.783   6.087 131.403  0.00  0.00    +0.000 A 
ATOM      6  C   UNL     1      -7.990   6.495 130.889  0.00  0.00    +0.000 A 
ATOM      7  C   UNL     1      -8.961   6.355 131.898  0.00  0.00    +0.000 A 
ATOM      8  C   UNL     1      -8.321   5.891 133.027  0.00  0.00    +0.000 A 
ATOM      9  N   UNL     1      -6.988   5.720 132.721  0.00  0.00    +0.000 N 
ATOM     10  C   UNL     1      -5.976   5.269 133.677  0.00  0.00    +0.000 C 
ATOM     11  C   UNL     1      -4.579   5.243 133.086  0.00  0.00    +0.000 A 
ATOM     12  C   UNL     1      -3.783   6.400 133.246  0.00  0.00    +0.000 A 
ATOM     13  C   UNL     1      -2.608   6.484 132.501  0.00  0.00    +0.000 A 
ATOM     14  C   UNL     1      -2.038   5.299 132.047  0.00  0.00    +0.000 A 
ATOM     15  C   UNL     1      -2.840   4.164 131.985  0.00  0.00    +0.000 A 
ATOM     16  C   UNL     1      -4.197   4.437 131.971  0.00  0.00    +0.000 A 
ENDROOT
BRANCH   1  20
ATOM     17  C   UNL     1      -5.203   4.073 125.130  0.00  0.00    +0.000 A 
ATOM     18  C   UNL     1      -6.009   4.691 126.079  0.00  0.00    +0.000 A 
ATOM     19  C   UNL     1      -5.525   4.911 127.411  0.00  0.00    +0.000 A 
ATOM     20  C   UNL     1      -4.189   4.629 127.857  0.00  0.00    +0.000 A 
ATOM     21  C   UNL     1      -3.430   3.946 126.894  0.00  0.00    +0.000 A 
ATOM     22 CL   UNL     1      -1.858   3.334 127.243  0.00  0.00    +0.000 Cl
ATOM     23  C   UNL     1      -3.934   3.650 125.561  0.00  0.00    +0.000 A 
BRANCH  17  28
ATOM     24  C   UNL     1      -5.481   4.561 120.252  0.00  0.00    +0.000 C 
ATOM     25  C   UNL     1      -5.794   4.095 121.638  0.00  0.00    +0.000 A 
ATOM     26  C   UNL     1      -6.713   3.082 121.983  0.00  0.00    +0.000 A 
ATOM     27  C   UNL     1      -6.594   2.943 123.347  0.00  0.00    +0.000 A 
ATOM     28  N   UNL     1      -5.670   3.873 123.782  0.00  0.00    +0.000 N 
ATOM     29  N   UNL     1      -5.224   4.634 122.733  0.00  0.00    +0.000 NA
ENDBRANCH  17  28
ENDBRANCH   1  20
TORSDOF 2
ENDMDL
MODEL 5
REMARK VINA RESULT:      -8.5      2.482      3.083
REMARK  Name = CHEMBL363910
REMARK  3 active torsions:
REMARK  status: ('A' for Active; 'I' for Inactive)
REMARK    1  A    between atoms: C_1  and  C_2
REMARK    2  A    between atoms: N_5  and  C_6
REMARK    3  A    between atoms: C_9  and  C_10
REMARK                            x       y       z     vdW  Elec       q    Type
REMARK                         _______ _______ _______ _____ _____    ______ ____
ROOT
ATOM      1  C   UNL     1      -7.256   1.824 125.412  0.00  0.00    +0.000 C 
ATOM      2  O   UNL     1      -7.737   2.592 124.614  0.00  0.00    +0.000 OA
ATOM      3  N   UNL     1      -7.533   0.351 125.303  0.00  0.00    +0.000 N 
ATOM      4  C   UNL     1      -6.779  -0.160 124.147  0.00  0.00    +0.000 C 
ATOM      5  C   UNL     1      -6.417  -1.595 124.242  0.00  0.00    +0.000 A 
ATOM      6  C   UNL     1      -5.152  -2.131 124.238  0.00  0.00    +0.000 A 
ATOM      7  C   UNL     1      -5.274  -3.532 124.195  0.00  0.00    +0.000 A 
ATOM      8  C   UNL     1      -6.619  -3.829 124.141  0.00  0.00    +0.000 A 
ATOM      9  N   UNL     1      -7.318  -2.643 124.177  0.00  0.00    +0.000 N 
ATOM     10  C   UNL     1      -8.777  -2.546 124.106  0.00  0.00    +0.000 C 
ATOM     11  C   UNL     1      -9.272  -1.112 124.092  0.00  0.00    +0.000 A 
ATOM     12  C   UNL     1      -9.469  -0.504 122.831  0.00  0.00    +0.000 A 
ATOM     13  C   UNL     1      -9.678   0.874 122.805  0.00  0.00    +0.000 A 
ATOM     14  C   UNL     1     -10.158   1.484 123.959  0.00  0.00    +0.000 A 
ATOM     15  C   UNL     1     -10.016   0.808 125.168  0.00  0.00    +0.000 A 
ATOM     16  C   UNL     1      -9.045  -0.178 125.148  0.00  0.00    +0.000 A 
ENDROOT
BRANCH   1  20
ATOM     17  C   UNL     1      -4.259   4.217 127.838  0.00  0.00    +0.000 A 
ATOM     18  C   UNL     1      -5.016   4.743 126.797  0.00  0.00    +0.000 A 
ATOM     19  C   UNL     1      -5.903   3.903 126.047  0.00  0.00    +0.000 A 
ATOM     20  C   UNL     1      -6.174   2.523 126.342  0.00  0.00    +0.000 A 
ATOM     21  C   UNL     1      -5.344   2.013 127.353  0.00  0.00    +0.000 A 
ATOM     22 CL   UNL     1      -5.344   0.342 127.770  0.00  0.00    +0.000 Cl
ATOM     23  C   UNL     1      -4.385   2.838 128.074  0.00  0.00    +0.000 A 
BRANCH  17  28
ATOM     24  C   UNL     1      -1.761   5.893 131.720  0.00  0.00    +0.000 C 
ATOM     25  C   UNL     1      -2.295   5.797 130.326  0.00  0.00    +0.000 A 
ATOM     26  C   UNL     1      -1.898   6.594 129.232  0.00  0.00    +0.000 A 
ATOM     27  C   UNL     1      -2.587   6.086 128.154  0.00  0.00    +0.000 A 
ATOM     28  N   UNL     1      -3.386   5.059 128.616  0.00  0.00    +0.000 N 
ATOM     29  N   UNL     1      -3.258   4.924 129.973  0.00  0.00    +0.000 NA
ENDBRANCH  17  28
ENDBRANCH   1  20
TORSDOF 2
ENDMDL
MODEL 6
REMARK VINA RESULT:      -8.4      3.914      7.868
REMARK  Name = CHEMBL363910
REMARK  3 active torsions:
REMARK  status: ('A' for Active; 'I' for Inactive)
REMARK    1  A    between atoms: C_1  and  C_2
REMARK    2  A    between atoms: N_5  and  C_6
REMARK    3  A    between atoms: C_9  and  C_10
REMARK                            x       y       z     vdW  Elec       q    Type
REMARK                         _______ _______ _______ _____ _____    ______ ____
ROOT
ATOM      1  C   UNL     1      -5.403   2.680 127.474  0.00  0.00    +0.000 C 
ATOM      2  O   UNL     1      -4.841   1.632 127.689  0.00  0.00    +0.000 OA
ATOM      3  N   UNL     1      -5.526   3.708 128.563  0.00  0.00    +0.000 N 
ATOM      4  C   UNL     1      -4.196   4.304 128.765  0.00  0.00    +0.000 C 
ATOM      5  C   UNL     1      -4.223   5.689 129.294  0.00  0.00    +0.000 A 
ATOM      6  C   UNL     1      -3.708   6.813 128.694  0.00  0.00    +0.000 A 
ATOM      7  C   UNL     1      -3.818   7.880 129.605  0.00  0.00    +0.000 A 
ATOM      8  C   UNL     1      -4.372   7.380 130.764  0.00  0.00    +0.000 A 
ATOM      9  N   UNL     1      -4.626   6.040 130.570  0.00  0.00    +0.000 N 
ATOM     10  C   UNL     1      -5.186   5.153 131.591  0.00  0.00    +0.000 C 
ATOM     11  C   UNL     1      -5.290   3.712 131.127  0.00  0.00    +0.000 A 
ATOM     12  C   UNL     1      -4.200   2.858 131.411  0.00  0.00    +0.000 A 
ATOM     13  C   UNL     1      -4.173   1.616 130.778  0.00  0.00    +0.000 A 
ATOM     14  C   UNL     1      -5.376   1.089 130.322  0.00  0.00    +0.000 A 
ATOM     15  C   UNL     1      -6.447   1.958 130.137  0.00  0.00    +0.000 A 
ATOM     16  C   UNL     1      -6.077   3.286 130.015  0.00  0.00    +0.000 A 
ENDROOT
BRANCH   1  20
ATOM     17  C   UNL     1      -6.062   3.659 123.092  0.00  0.00    +0.000 A 
ATOM     18  C   UNL     1      -5.345   4.464 123.970  0.00  0.00    +0.000 A 
ATOM     19  C   UNL     1      -5.229   4.105 125.354  0.00  0.00    +0.000 A 
ATOM     20  C   UNL     1      -5.723   2.885 125.931  0.00  0.00    +0.000 A 
ATOM     21  C   UNL     1      -6.496   2.135 125.031  0.00  0.00    +0.000 A 
ATOM     22 CL   UNL     1      -7.349   0.723 125.524  0.00  0.00    +0.000 Cl
ATOM     23  C   UNL     1      -6.684   2.525 123.641  0.00  0.00    +0.000 A 
BRANCH  17  28
ATOM     24  C   UNL     1      -8.083   4.343 118.669  0.00  0.00    +0.000 C 
ATOM     25  C   UNL     1      -7.050   4.289 119.750  0.00  0.00    +0.000 A 
ATOM     26  C   UNL     1      -5.722   4.751 119.648  0.00  0.00    +0.000 A 
ATOM     27  C   UNL     1      -5.188   4.578 120.905  0.00  0.00    +0.000 A 
ATOM     28  N   UNL     1      -6.160   3.996 121.695  0.00  0.00    +0.000 N 
ATOM     29  N   UNL     1      -7.293   3.754 120.962  0.00  0.00    +0.000 NA
ENDBRANCH  17  28
ENDBRANCH   1  20
TORSDOF 2
ENDMDL
MODEL 7
REMARK VINA RESULT:      -8.2      5.529      7.126
REMARK  Name = CHEMBL363910
REMARK  3 active torsions:
REMARK  status: ('A' for Active; 'I' for Inactive)
REMARK    1  A    between atoms: C_1  and  C_2
REMARK    2  A    between atoms: N_5  and  C_6
REMARK    3  A    between atoms: C_9  and  C_10
REMARK                            x       y       z     vdW  Elec       q    Type
REMARK                         _______ _______ _______ _____ _____    ______ ____
ROOT
ATOM      1  C   UNL     1      -7.478   0.245 131.464  0.00  0.00    +0.000 C 
ATOM      2  O   UNL     1      -7.739  -0.437 132.426  0.00  0.00    +0.000 OA
ATOM      3  N   UNL     1      -6.655  -0.318 130.340  0.00  0.00    +0.000 N 
ATOM      4  C   UNL     1      -7.498  -1.275 129.606  0.00  0.00    +0.000 C 
ATOM      5  C   UNL     1      -7.128  -1.445 128.180  0.00  0.00    +0.000 A 
ATOM      6  C   UNL     1      -7.919  -1.195 127.085  0.00  0.00    +0.000 A 
ATOM      7  C   UNL     1      -7.227  -1.633 125.941  0.00  0.00    +0.000 A 
ATOM      8  C   UNL     1      -6.031  -2.174 126.362  0.00  0.00    +0.000 A 
ATOM      9  N   UNL     1      -5.968  -2.052 127.733  0.00  0.00    +0.000 N 
ATOM     10  C   UNL     1      -4.859  -2.544 128.552  0.00  0.00    +0.000 C 
ATOM     11  C   UNL     1      -5.090  -2.340 130.038  0.00  0.00    +0.000 A 
ATOM     12  C   UNL     1      -5.693  -3.400 130.753  0.00  0.00    +0.000 A 
ATOM     13  C   UNL     1      -6.135  -3.134 132.048  0.00  0.00    +0.000 A 
ATOM     14  C   UNL     1      -5.557  -2.069 132.730  0.00  0.00    +0.000 A 
ATOM     15  C   UNL     1      -4.900  -1.092 131.988  0.00  0.00    +0.000 A 
ATOM     16  C   UNL     1      -5.263  -1.063 130.652  0.00  0.00    +0.000 A 
ENDROOT
BRANCH   1  20
ATOM     17  C   UNL     1      -9.947   4.026 131.015  0.00  0.00    +0.000 A 
ATOM     18  C   UNL     1      -9.828   3.052 130.030  0.00  0.00    +0.000 A 
ATOM     19  C   UNL     1      -8.983   1.911 130.235  0.00  0.00    +0.000 A 
ATOM     20  C   UNL     1      -8.290   1.611 131.457  0.00  0.00    +0.000 A 
ATOM     21  C   UNL     1      -8.380   2.647 132.399  0.00  0.00    +0.000 A 
ATOM     22 CL   UNL     1      -7.492   2.614 133.874  0.00  0.00    +0.000 Cl
ATOM     23  C   UNL     1      -9.175   3.846 132.175  0.00  0.00    +0.000 A 
BRANCH  17  28
ATOM     24  C   UNL     1     -13.253   6.977 128.898  0.00  0.00    +0.000 C 
ATOM     25  C   UNL     1     -12.262   6.460 129.893  0.00  0.00    +0.000 A 
ATOM     26  C   UNL     1     -11.992   7.020 131.159  0.00  0.00    +0.000 A 
ATOM     27  C   UNL     1     -11.090   6.160 131.743  0.00  0.00    +0.000 A 
ATOM     28  N   UNL     1     -10.814   5.161 130.829  0.00  0.00    +0.000 N 
ATOM     29  N   UNL     1     -11.488   5.384 129.657  0.00  0.00    +0.000 NA
ENDBRANCH  17  28
ENDBRANCH   1  20
TORSDOF 2
ENDMDL
MODEL 8
REMARK VINA RESULT:      -8.2      4.176      9.103
REMARK  Name = CHEMBL363910
REMARK  3 active torsions:
REMARK  status: ('A' for Active; 'I' for Inactive)
REMARK    1  A    between atoms: C_1  and  C_2
REMARK    2  A    between atoms: N_5  and  C_6
REMARK    3  A    between atoms: C_9  and  C_10
REMARK                            x       y       z     vdW  Elec       q    Type
REMARK                         _______ _______ _______ _____ _____    ______ ____
ROOT
ATOM      1  C   UNL     1      -8.233   2.823 130.111  0.00  0.00    +0.000 C 
ATOM      2  O   UNL     1      -8.986   2.652 131.039  0.00  0.00    +0.000 OA
ATOM      3  N   UNL     1      -7.340   4.032 130.076  0.00  0.00    +0.000 N 
ATOM      4  C   UNL     1      -6.282   3.834 131.079  0.00  0.00    +0.000 C 
ATOM      5  C   UNL     1      -5.018   4.551 130.781  0.00  0.00    +0.000 A 
ATOM      6  C   UNL     1      -3.777   3.993 130.590  0.00  0.00    +0.000 A 
ATOM      7  C   UNL     1      -2.843   5.039 130.483  0.00  0.00    +0.000 A 
ATOM      8  C   UNL     1      -3.528   6.225 130.643  0.00  0.00    +0.000 A 
ATOM      9  N   UNL     1      -4.862   5.925 130.818  0.00  0.00    +0.000 N 
ATOM     10  C   UNL     1      -5.905   6.924 131.053  0.00  0.00    +0.000 C 
ATOM     11  C   UNL     1      -7.271   6.305 131.285  0.00  0.00    +0.000 A 
ATOM     12  C   UNL     1      -7.645   6.037 132.621  0.00  0.00    +0.000 A 
ATOM     13  C   UNL     1      -8.776   5.248 132.829  0.00  0.00    +0.000 A 
ATOM     14  C   UNL     1      -9.720   5.179 131.810  0.00  0.00    +0.000 A 
ATOM     15  C   UNL     1      -9.326   5.533 130.523  0.00  0.00    +0.000 A 
ATOM     16  C   UNL     1      -7.956   5.498 130.326  0.00  0.00    +0.000 A 
ENDROOT
BRANCH   1  20
ATOM     17  C   UNL     1      -8.168  -0.529 127.053  0.00  0.00    +0.000 A 
ATOM     18  C   UNL     1      -8.631   0.755 126.790  0.00  0.00    +0.000 A 
ATOM     19  C   UNL     1      -8.664   1.742 127.831  0.00  0.00    +0.000 A 
ATOM     20  C   UNL     1      -8.151   1.553 129.160  0.00  0.00    +0.000 A 
ATOM     21  C   UNL     1      -7.756   0.229 129.404  0.00  0.00    +0.000 A 
ATOM     22 CL   UNL     1      -7.272  -0.301 130.970  0.00  0.00    +0.000 Cl
ATOM     23  C   UNL     1      -7.785  -0.803 128.377  0.00  0.00    +0.000 A 
BRANCH  17  28
ATOM     24  C   UNL     1      -9.659  -3.417 123.371  0.00  0.00    +0.000 C 
ATOM     25  C   UNL     1      -8.764  -2.792 124.394  0.00  0.00    +0.000 A 
ATOM     26  C   UNL     1      -7.372  -2.989 124.507  0.00  0.00    +0.000 A 
ATOM     27  C   UNL     1      -6.975  -2.149 125.522  0.00  0.00    +0.000 A 
ATOM     28  N   UNL     1      -8.103  -1.518 126.008  0.00  0.00    +0.000 N 
ATOM     29  N   UNL     1      -9.222  -1.967 125.356  0.00  0.00    +0.000 NA
ENDBRANCH  17  28
ENDBRANCH   1  20
TORSDOF 2
ENDMDL
MODEL 9
REMARK VINA RESULT:      -8.1      2.845      8.488
REMARK  Name = CHEMBL363910
REMARK  3 active torsions:
REMARK  status: ('A' for Active; 'I' for Inactive)
REMARK    1  A    between atoms: C_1  and  C_2
REMARK    2  A    between atoms: N_5  and  C_6
REMARK    3  A    between atoms: C_9  and  C_10
REMARK                            x       y       z     vdW  Elec       q    Type
REMARK                         _______ _______ _______ _____ _____    ______ ____
ROOT
ATOM      1  C   UNL     1      -4.939   4.346 127.490  0.00  0.00    +0.000 C 
ATOM      2  O   UNL     1      -4.892   5.405 126.912  0.00  0.00    +0.000 OA
ATOM      3  N   UNL     1      -4.577   4.264 128.946  0.00  0.00    +0.000 N 
ATOM      4  C   UNL     1      -5.667   4.888 129.712  0.00  0.00    +0.000 C 
ATOM      5  C   UNL     1      -5.813   4.372 131.095  0.00  0.00    +0.000 A 
ATOM      6  C   UNL     1      -6.915   3.756 131.636  0.00  0.00    +0.000 A 
ATOM      7  C   UNL     1      -6.677   3.567 133.010  0.00  0.00    +0.000 A 
ATOM      8  C   UNL     1      -5.438   4.103 133.293  0.00  0.00    +0.000 A 
ATOM      9  N   UNL     1      -4.907   4.590 132.118  0.00  0.00    +0.000 N 
ATOM     10  C   UNL     1      -3.613   5.265 132.019  0.00  0.00    +0.000 C 
ATOM     11  C   UNL     1      -3.314   5.761 130.617  0.00  0.00    +0.000 A 
ATOM     12  C   UNL     1      -3.692   7.086 130.302  0.00  0.00    +0.000 A 
ATOM     13  C   UNL     1      -3.653   7.467 128.961  0.00  0.00    +0.000 A 
ATOM     14  C   UNL     1      -2.823   6.753 128.103  0.00  0.00    +0.000 A 
ATOM     15  C   UNL     1      -2.409   5.483 128.495  0.00  0.00    +0.000 A 
ATOM     16  C   UNL     1      -3.202   4.912 129.475  0.00  0.00    +0.000 A 
ENDROOT
BRANCH   1  20
ATOM     17  C   UNL     1      -6.561   0.838 125.112  0.00  0.00    +0.000 A 
ATOM     18  C   UNL     1      -5.352   0.820 125.798  0.00  0.00    +0.000 A 
ATOM     19  C   UNL     1      -4.889   1.993 126.483  0.00  0.00    +0.000 A 
ATOM     20  C   UNL     1      -5.634   3.214 126.617  0.00  0.00    +0.000 A 
ATOM     21  C   UNL     1      -6.813   3.215 125.857  0.00  0.00    +0.000 A 
ATOM     22 CL   UNL     1      -7.794   4.622 125.703  0.00  0.00    +0.000 Cl
ATOM     23  C   UNL     1      -7.260   2.056 125.097  0.00  0.00    +0.000 A 
BRANCH  17  28
ATOM     24  C   UNL     1      -9.257  -3.184 124.287  0.00  0.00    +0.000 C 
ATOM     25  C   UNL     1      -8.230  -2.114 124.088  0.00  0.00    +0.000 A 
ATOM     26  C   UNL     1      -7.442  -1.928 122.934  0.00  0.00    +0.000 A 
ATOM     27  C   UNL     1      -6.721  -0.781 123.176  0.00  0.00    +0.000 A 
ATOM     28  N   UNL     1      -7.048  -0.343 124.445  0.00  0.00    +0.000 N 
ATOM     29  N   UNL     1      -7.932  -1.206 125.038  0.00  0.00    +0.000 NA
ENDBRANCH  17  28
ENDBRANCH   1  20
TORSDOF 2
ENDMDL
