MODEL 1
REMARK VINA RESULT:      -8.5      0.000      0.000
REMARK  Name = CHEMBL3814744
REMARK  24 active torsions:
REMARK  status: ('A' for Active; 'I' for Inactive)
REMARK    1  A    between atoms: C_1  and  C_2
REMARK    2  A    between atoms: C_2  and  C_3
REMARK    3  A    between atoms: C_3  and  C_4
REMARK    4  A    between atoms: C_3  and  C_5
REMARK    5  A    between atoms: C_9  and  C_10
REMARK    6  A    between atoms: C_10  and  C_11
REMARK    7  A    between atoms: C_14  and  O_15
REMARK    8  A    between atoms: C_21  and  N_22
REMARK    9  A    between atoms: C_27  and  C_28
REMARK   10  A    between atoms: C_34  and  C_35
REMARK   11  A    between atoms: N_37  and  C_38
REMARK   12  A    between atoms: N_37  and  C_39
REMARK   13  A    between atoms: C_39  and  C_40
REMARK   14  A    between atoms: C_39  and  C_44
REMARK   15  A    between atoms: C_40  and  C_41
REMARK   16  A    between atoms: C_41  and  C_42
REMARK   17  A    between atoms: C_41  and  C_43
REMARK   18  A    between atoms: N_46  and  C_47
REMARK   19  A    between atoms: C_47  and  C_48
REMARK   20  A    between atoms: C_54  and  C_55
REMARK   21  A    between atoms: C_55  and  C_56
REMARK   22  A    between atoms: C_62  and  C_63
REMARK   23  A    between atoms: C_63  and  C_64
REMARK   24  A    between atoms: C_64  and  C_65
REMARK                            x       y       z     vdW  Elec       q    Type
REMARK                         _______ _______ _______ _____ _____    ______ ____
ROOT
ATOM      1  C   UNL     1      -6.106   0.257 131.659  0.00  0.00    +0.000 C 
ATOM      2  N   UNL     1      -7.037   0.699 129.618  0.00  0.00    +0.000 N 
ATOM      3  C   UNL     1      -7.731   0.994 127.793  0.00  0.00    +0.000 C 
ATOM      4  O   UNL     1      -9.005   1.554 127.173  0.00  0.00    +0.000 OA
ATOM      5  C   UNL     1      -7.142   1.824 125.932  0.00  0.00    +0.000 C 
ATOM      6  N   UNL     1      -6.558   3.330 125.572  0.00  0.00    +0.000 N 
ATOM      7  C   UNL     1      -6.534   4.309 126.528  0.00  0.00    +0.000 C 
ATOM      8  O   UNL     1      -5.965   5.385 126.382  0.00  0.00    +0.000 OA
ATOM      9  C   UNL     1      -7.159   4.138 127.881  0.00  0.00    +0.000 C 
ATOM     10  C   UNL     1      -6.260   3.739 128.990  0.00  0.00    +0.000 C 
ATOM     11  S   UNL     1      -5.764   5.466 129.189  0.00  0.00    +0.000 S 
ATOM     12  S   UNL     1      -4.027   5.434 130.100  0.00  0.00    +0.000 S 
ATOM     13  C   UNL     1      -3.718   6.778 131.277  0.00  0.00    +0.000 C 
ATOM     14  C   UNL     1      -2.738   6.643 132.448  0.00  0.00    +0.000 C 
ATOM     15  N   UNL     1      -3.394   6.095 133.653  0.00  0.00    +0.000 N 
ATOM     16  C   UNL     1      -3.927   4.876 133.751  0.00  0.00    +0.000 C 
ATOM     17  O   UNL     1      -4.557   4.668 134.780  0.00  0.00    +0.000 OA
ATOM     18  C   UNL     1      -3.851   4.040 132.415  0.00  0.00    +0.000 C 
ATOM     19  N   UNL     1      -2.898   2.967 132.536  0.00  0.00    +0.000 N 
ATOM     20  C   UNL     1      -3.004   2.240 133.646  0.00  0.00    +0.000 C 
ATOM     21  O   UNL     1      -2.179   1.086 133.420  0.00  0.00    +0.000 OA
ATOM     22  C   UNL     1      -4.867   2.191 134.814  0.00  0.00    +0.000 C 
ATOM     23  N   UNL     1      -6.462   1.101 134.445  0.00  0.00    +0.000 N 
ATOM     24  C   UNL     1      -6.730  -0.077 133.414  0.00  0.00    +0.000 C 
ATOM     25  O   UNL     1      -6.920  -1.192 133.943  0.00  0.00    +0.000 OA
ATOM     26  H   UNL     1      -8.121   0.633 128.940  0.00  0.00    +0.000 HD
ATOM     27  H   UNL     1      -6.081   3.673 124.665  0.00  0.00    +0.000 HD
ATOM     28  H   UNL     1      -3.518   6.645 134.509  0.00  0.00    +0.000 HD
ATOM     29  H   UNL     1      -2.303   2.499 131.849  0.00  0.00    +0.000 HD
ATOM     30  H   UNL     1      -7.154   1.533 133.855  0.00  0.00    +0.000 HD
ENDROOT
BRANCH  14  31
ATOM     31  C   UNL     1      -2.175   8.017 132.794  0.00  0.00    +0.000 C 
ATOM     32  O   UNL     1      -2.809   8.936 132.272  0.00  0.00    +0.000 OA
ATOM     33  N   UNL     1      -1.133   8.093 133.740  0.00  0.00    +0.000 N 
ATOM     34  C   UNL     1       0.085   7.307 133.783  0.00  0.00    +0.000 C 
ATOM     35  C   UNL     1       0.347   7.147 135.254  0.00  0.00    +0.000 C 
ATOM     36  C   UNL     1       0.097   8.529 135.770  0.00  0.00    +0.000 C 
ATOM     37  C   UNL     1      -0.963   9.103 134.835  0.00  0.00    +0.000 C 
BRANCH  37  38
ATOM     38  C   UNL     1      -0.141  10.367 134.419  0.00  0.00    +0.000 C 
ATOM     39  O   UNL     1       0.552  10.288 133.392  0.00  0.00    +0.000 OA
ATOM     40  N   UNL     1      -0.569  11.617 135.012  0.00  0.00    +0.000 N 
ATOM     41  C   UNL     1      -1.192  11.642 136.322  0.00  0.00    +0.000 C 
BRANCH  40  42
ATOM     42  C   UNL     1      -0.287  12.952 134.345  0.00  0.00    +0.000 C 
BRANCH  42  43
ATOM     43  C   UNL     1       1.006  13.646 134.914  0.00  0.00    +0.000 C 
ATOM     44  O   UNL     1       2.078  13.665 134.313  0.00  0.00    +0.000 OA
ATOM     45  N   UNL     1       0.966  14.269 136.129  0.00  0.00    +0.000 N 
ATOM     46  H   UNL     1       0.129  14.289 136.670  0.00  0.00    +0.000 HD
BRANCH  45  47
ATOM     47  C   UNL     1       2.159  14.927 136.667  0.00  0.00    +0.000 C 
BRANCH  47  48
ATOM     48  C   UNL     1       1.852  16.224 137.430  0.00  0.00    +0.000 C 
ATOM     49  N   UNL     1       0.531  16.598 137.549  0.00  0.00    +0.000 N 
ATOM     50  O   UNL     1       2.748  16.909 137.918  0.00  0.00    +0.000 OA
ATOM     51  H   UNL     1      -0.259  16.099 137.183  0.00  0.00    +0.000 HD
ATOM     52  H   UNL     1       0.289  17.448 138.046  0.00  0.00    +0.000 HD
ENDBRANCH  47  48
ENDBRANCH  45  47
ENDBRANCH  42  43
BRANCH  42  53
ATOM     53  C   UNL     1      -1.460  13.965 134.452  0.00  0.00    +0.000 C 
BRANCH  53  54
ATOM     54  C   UNL     1      -2.434  13.907 133.287  0.00  0.00    +0.000 C 
ATOM     55  C   UNL     1      -3.019  15.235 133.006  0.00  0.00    +0.000 C 
ATOM     56  C   UNL     1      -1.804  13.759 131.958  0.00  0.00    +0.000 C 
ENDBRANCH  53  54
ENDBRANCH  42  53
ENDBRANCH  40  42
ENDBRANCH  37  38
ENDBRANCH  14  31
BRANCH   9  57
ATOM     57  N   UNL     1      -7.800   2.978 127.961  0.00  0.00    +0.000 NA
ATOM     58  H   UNL     1      -7.537   2.708 127.029  0.00  0.00    +0.000 HD
ATOM     59  H   UNL     1      -8.802   3.190 127.813  0.00  0.00    +0.000 HD
ENDBRANCH   9  57
BRANCH   1  60
ATOM     60  C   UNL     1      -4.836  -0.268 133.402  0.00  0.00    +0.000 C 
ATOM     61  C   UNL     1      -3.481  -1.229 134.825  0.00  0.00    +0.000 C 
BRANCH  60  63
ATOM     62  C   UNL     1      -3.653  -1.037 131.508  0.00  0.00    +0.000 C 
ATOM     63  C   UNL     1      -4.210  -1.362 132.986  0.00  0.00    +0.000 C 
ENDBRANCH  60  63
ENDBRANCH   1  60
BRANCH  18  64
ATOM     64  C   UNL     1      -5.441   3.894 131.769  0.00  0.00    +0.000 C 
BRANCH  64  65
ATOM     65  C   UNL     1      -6.556   4.368 132.626  0.00  0.00    +0.000 C 
ATOM     66  N   UNL     1      -6.777   5.689 132.655  0.00  0.00    +0.000 N 
ATOM     67  O   UNL     1      -7.286   3.574 133.201  0.00  0.00    +0.000 OA
ATOM     68  H   UNL     1      -6.265   6.330 132.087  0.00  0.00    +0.000 HD
ATOM     69  H   UNL     1      -7.654   6.096 132.907  0.00  0.00    +0.000 HD
ENDBRANCH  64  65
ENDBRANCH  18  64
BRANCH   5  70
ATOM     70  C   UNL     1      -6.147   0.922 126.293  0.00  0.00    +0.000 C 
BRANCH  70  71
ATOM     71  C   UNL     1      -6.170   0.045 125.070  0.00  0.00    +0.000 A 
ATOM     72  C   UNL     1      -7.056   0.146 123.953  0.00  0.00    +0.000 A 
ATOM     73  C   UNL     1      -6.994  -0.793 122.944  0.00  0.00    +0.000 A 
ATOM     74  C   UNL     1      -6.115  -1.848 123.095  0.00  0.00    +0.000 A 
ATOM     75  C   UNL     1      -5.407  -2.029 124.274  0.00  0.00    +0.000 A 
ATOM     76  C   UNL     1      -5.470  -1.114 125.282  0.00  0.00    +0.000 A 
BRANCH  74  77
ATOM     77  O   UNL     1      -5.876  -2.772 122.129  0.00  0.00    +0.000 OA
ATOM     78  H   UNL     1      -6.127  -3.666 122.404  0.00  0.00    +0.000 HD
ENDBRANCH  74  77
ENDBRANCH  70  71
ENDBRANCH   5  70
BRANCH  22  79
ATOM     79  C   UNL     1      -4.914   2.282 136.202  0.00  0.00    +0.000 C 
BRANCH  79  80
ATOM     80  C   UNL     1      -3.970   1.590 137.078  0.00  0.00    +0.000 C 
BRANCH  80  81
ATOM     81  C   UNL     1      -3.489   2.755 137.884  0.00  0.00    +0.000 C 
ATOM     82  N   UNL     1      -2.170   2.761 138.319  0.00  0.00    +0.000 N 
ATOM     83  O   UNL     1      -4.257   3.666 138.153  0.00  0.00    +0.000 OA
ATOM     84  H   UNL     1      -1.472   2.044 138.127  0.00  0.00    +0.000 HD
ATOM     85  H   UNL     1      -1.812   3.532 138.852  0.00  0.00    +0.000 HD
ENDBRANCH  80  81
ENDBRANCH  79  80
ENDBRANCH  22  79
TORSDOF 19
ENDMDL
MODEL 2
REMARK VINA RESULT:      -8.4      6.072     10.585
REMARK  Name = CHEMBL3814744
REMARK  24 active torsions:
REMARK  status: ('A' for Active; 'I' for Inactive)
REMARK    1  A    between atoms: C_1  and  C_2
REMARK    2  A    between atoms: C_2  and  C_3
REMARK    3  A    between atoms: C_3  and  C_4
REMARK    4  A    between atoms: C_3  and  C_5
REMARK    5  A    between atoms: C_9  and  C_10
REMARK    6  A    between atoms: C_10  and  C_11
REMARK    7  A    between atoms: C_14  and  O_15
REMARK    8  A    between atoms: C_21  and  N_22
REMARK    9  A    between atoms: C_27  and  C_28
REMARK   10  A    between atoms: C_34  and  C_35
REMARK   11  A    between atoms: N_37  and  C_38
REMARK   12  A    between atoms: N_37  and  C_39
REMARK   13  A    between atoms: C_39  and  C_40
REMARK   14  A    between atoms: C_39  and  C_44
REMARK   15  A    between atoms: C_40  and  C_41
REMARK   16  A    between atoms: C_41  and  C_42
REMARK   17  A    between atoms: C_41  and  C_43
REMARK   18  A    between atoms: N_46  and  C_47
REMARK   19  A    between atoms: C_47  and  C_48
REMARK   20  A    between atoms: C_54  and  C_55
REMARK   21  A    between atoms: C_55  and  C_56
REMARK   22  A    between atoms: C_62  and  C_63
REMARK   23  A    between atoms: C_63  and  C_64
REMARK   24  A    between atoms: C_64  and  C_65
REMARK                            x       y       z     vdW  Elec       q    Type
REMARK                         _______ _______ _______ _____ _____    ______ ____
ROOT
ATOM      1  C   UNL     1      -8.028   4.595 129.494  0.00  0.00    +0.000 C 
ATOM      2  N   UNL     1      -7.259   3.567 127.603  0.00  0.00    +0.000 N 
ATOM      3  C   UNL     1      -6.738   2.635 125.941  0.00  0.00    +0.000 C 
ATOM      4  O   UNL     1      -5.509   2.581 125.043  0.00  0.00    +0.000 OA
ATOM      5  C   UNL     1      -6.745   0.696 125.081  0.00  0.00    +0.000 C 
ATOM      6  N   UNL     1      -6.126  -0.728 125.654  0.00  0.00    +0.000 N 
ATOM      7  C   UNL     1      -5.361  -0.743 126.788  0.00  0.00    +0.000 C 
ATOM      8  O   UNL     1      -5.015  -1.770 127.359  0.00  0.00    +0.000 OA
ATOM      9  C   UNL     1      -4.913   0.511 127.482  0.00  0.00    +0.000 C 
ATOM     10  C   UNL     1      -5.719   0.960 128.641  0.00  0.00    +0.000 C 
ATOM     11  S   UNL     1      -4.829  -0.209 129.695  0.00  0.00    +0.000 S 
ATOM     12  S   UNL     1      -5.983  -0.533 131.247  0.00  0.00    +0.000 S 
ATOM     13  C   UNL     1      -5.139  -0.778 132.832  0.00  0.00    +0.000 C 
ATOM     14  C   UNL     1      -5.809  -0.490 134.180  0.00  0.00    +0.000 C 
ATOM     15  N   UNL     1      -5.620   0.913 134.599  0.00  0.00    +0.000 N 
ATOM     16  C   UNL     1      -6.097   1.979 133.953  0.00  0.00    +0.000 C 
ATOM     17  O   UNL     1      -5.702   3.059 134.375  0.00  0.00    +0.000 OA
ATOM     18  C   UNL     1      -6.869   1.624 132.624  0.00  0.00    +0.000 C 
ATOM     19  N   UNL     1      -8.283   1.846 132.777  0.00  0.00    +0.000 N 
ATOM     20  C   UNL     1      -8.615   3.014 133.323  0.00  0.00    +0.000 C 
ATOM     21  O   UNL     1     -10.030   3.140 133.111  0.00  0.00    +0.000 OA
ATOM     22  C   UNL     1      -7.230   4.723 133.312  0.00  0.00    +0.000 C 
ATOM     23  N   UNL     1      -6.915   5.977 131.830  0.00  0.00    +0.000 N 
ATOM     24  C   UNL     1      -7.657   6.190 130.441  0.00  0.00    +0.000 C 
ATOM     25  O   UNL     1      -8.260   7.280 130.342  0.00  0.00    +0.000 OA
ATOM     26  H   UNL     1      -6.609   3.754 126.515  0.00  0.00    +0.000 HD
ATOM     27  H   UNL     1      -6.307  -1.735 125.304  0.00  0.00    +0.000 HD
ATOM     28  H   UNL     1      -5.063   1.172 135.419  0.00  0.00    +0.000 HD
ATOM     29  H   UNL     1      -9.098   1.399 132.351  0.00  0.00    +0.000 HD
ATOM     30  H   UNL     1      -6.181   5.716 131.191  0.00  0.00    +0.000 HD
ENDROOT
BRANCH  14  31
ATOM     31  C   UNL     1      -5.202  -1.393 135.248  0.00  0.00    +0.000 C 
ATOM     32  O   UNL     1      -4.354  -0.817 135.932  0.00  0.00    +0.000 OA
ATOM     33  N   UNL     1      -5.748  -2.680 135.425  0.00  0.00    +0.000 N 
ATOM     34  C   UNL     1      -6.043  -3.666 134.404  0.00  0.00    +0.000 C 
ATOM     35  C   UNL     1      -7.271  -4.357 134.928  0.00  0.00    +0.000 C 
ATOM     36  C   UNL     1      -6.924  -4.565 136.368  0.00  0.00    +0.000 C 
ATOM     37  C   UNL     1      -6.014  -3.391 136.718  0.00  0.00    +0.000 C 
BRANCH  37  38
ATOM     38  C   UNL     1      -4.818  -4.264 137.226  0.00  0.00    +0.000 C 
ATOM     39  O   UNL     1      -4.539  -5.286 136.579  0.00  0.00    +0.000 OA
ATOM     40  N   UNL     1      -3.903  -3.606 138.135  0.00  0.00    +0.000 N 
ATOM     41  C   UNL     1      -4.363  -2.548 139.015  0.00  0.00    +0.000 C 
BRANCH  40  42
ATOM     42  C   UNL     1      -2.462  -4.064 138.285  0.00  0.00    +0.000 C 
BRANCH  42  43
ATOM     43  C   UNL     1      -1.593  -3.734 137.015  0.00  0.00    +0.000 C 
ATOM     44  O   UNL     1      -0.908  -4.572 136.432  0.00  0.00    +0.000 OA
ATOM     45  N   UNL     1      -1.580  -2.465 136.510  0.00  0.00    +0.000 N 
ATOM     46  H   UNL     1      -2.110  -1.736 136.936  0.00  0.00    +0.000 HD
BRANCH  45  47
ATOM     47  C   UNL     1      -0.783  -2.145 135.324  0.00  0.00    +0.000 C 
BRANCH  47  48
ATOM     48  C   UNL     1      -1.622  -1.643 134.139  0.00  0.00    +0.000 C 
ATOM     49  N   UNL     1      -1.840  -0.286 134.040  0.00  0.00    +0.000 N 
ATOM     50  O   UNL     1      -2.086  -2.419 133.306  0.00  0.00    +0.000 OA
ATOM     51  H   UNL     1      -1.500   0.414 134.673  0.00  0.00    +0.000 HD
ATOM     52  H   UNL     1      -2.389   0.083 133.271  0.00  0.00    +0.000 HD
ENDBRANCH  47  48
ENDBRANCH  45  47
ENDBRANCH  42  43
BRANCH  42  53
ATOM     53  C   UNL     1      -2.316  -5.581 138.584  0.00  0.00    +0.000 C 
BRANCH  53  54
ATOM     54  C   UNL     1      -1.618  -5.886 139.899  0.00  0.00    +0.000 C 
ATOM     55  C   UNL     1      -0.148  -5.820 139.758  0.00  0.00    +0.000 C 
ATOM     56  C   UNL     1      -1.700  -4.810 140.909  0.00  0.00    +0.000 C 
ENDBRANCH  53  54
ENDBRANCH  42  53
ENDBRANCH  40  42
ENDBRANCH  37  38
ENDBRANCH  14  31
BRANCH   9  57
ATOM     57  N   UNL     1      -5.274   1.586 126.791  0.00  0.00    +0.000 NA
ATOM     58  H   UNL     1      -6.228   1.280 126.710  0.00  0.00    +0.000 HD
ATOM     59  H   UNL     1      -4.950   1.430 125.821  0.00  0.00    +0.000 HD
ENDBRANCH   9  57
BRANCH   1  60
ATOM     60  C   UNL     1      -9.123   5.316 131.285  0.00  0.00    +0.000 C 
ATOM     61  C   UNL     1     -10.604   6.096 132.694  0.00  0.00    +0.000 C 
BRANCH  60  63
ATOM     62  C   UNL     1     -10.880   4.025 130.377  0.00  0.00    +0.000 C 
ATOM     63  C   UNL     1     -10.356   5.484 130.824  0.00  0.00    +0.000 C 
ENDBRANCH  60  63
ENDBRANCH   1  60
BRANCH  18  64
ATOM     64  C   UNL     1      -5.917   2.141 131.284  0.00  0.00    +0.000 C 
BRANCH  64  65
ATOM     65  C   UNL     1      -4.739   2.990 131.589  0.00  0.00    +0.000 C 
ATOM     66  N   UNL     1      -3.646   2.364 132.046  0.00  0.00    +0.000 N 
ATOM     67  O   UNL     1      -4.749   4.187 131.346  0.00  0.00    +0.000 OA
ATOM     68  H   UNL     1      -3.591   1.372 132.125  0.00  0.00    +0.000 HD
ATOM     69  H   UNL     1      -2.724   2.743 131.977  0.00  0.00    +0.000 HD
ENDBRANCH  64  65
ENDBRANCH  18  64
BRANCH   5  70
ATOM     70  C   UNL     1      -8.046   0.941 125.509  0.00  0.00    +0.000 C 
BRANCH  70  71
ATOM     71  C   UNL     1      -8.681  -0.356 125.084  0.00  0.00    +0.000 A 
ATOM     72  C   UNL     1      -8.999  -1.474 125.916  0.00  0.00    +0.000 A 
ATOM     73  C   UNL     1      -9.509  -2.624 125.351  0.00  0.00    +0.000 A 
ATOM     74  C   UNL     1      -9.622  -2.673 123.975  0.00  0.00    +0.000 A 
ATOM     75  C   UNL     1      -9.127  -1.652 123.177  0.00  0.00    +0.000 A 
ATOM     76  C   UNL     1      -8.610  -0.517 123.725  0.00  0.00    +0.000 A 
BRANCH  74  77
ATOM     77  O   UNL     1     -10.212  -3.696 123.305  0.00  0.00    +0.000 OA
ATOM     78  H   UNL     1      -9.614  -4.112 122.666  0.00  0.00    +0.000 HD
ENDBRANCH  74  77
ENDBRANCH  70  71
ENDBRANCH   5  70
BRANCH  22  79
ATOM     79  C   UNL     1      -7.000   5.541 134.414  0.00  0.00    +0.000 C 
BRANCH  79  80
ATOM     80  C   UNL     1      -7.921   5.632 135.545  0.00  0.00    +0.000 C 
BRANCH  80  81
ATOM     81  C   UNL     1      -6.938   5.916 136.636  0.00  0.00    +0.000 C 
ATOM     82  N   UNL     1      -5.890   5.025 136.834  0.00  0.00    +0.000 N 
ATOM     83  O   UNL     1      -7.076   6.908 137.335  0.00  0.00    +0.000 OA
ATOM     84  H   UNL     1      -5.707   4.186 136.287  0.00  0.00    +0.000 HD
ATOM     85  H   UNL     1      -5.208   5.191 137.550  0.00  0.00    +0.000 HD
ENDBRANCH  80  81
ENDBRANCH  79  80
ENDBRANCH  22  79
TORSDOF 19
ENDMDL
MODEL 3
REMARK VINA RESULT:      -8.3      4.337      5.645
REMARK  Name = CHEMBL3814744
REMARK  24 active torsions:
REMARK  status: ('A' for Active; 'I' for Inactive)
REMARK    1  A    between atoms: C_1  and  C_2
REMARK    2  A    between atoms: C_2  and  C_3
REMARK    3  A    between atoms: C_3  and  C_4
REMARK    4  A    between atoms: C_3  and  C_5
REMARK    5  A    between atoms: C_9  and  C_10
REMARK    6  A    between atoms: C_10  and  C_11
REMARK    7  A    between atoms: C_14  and  O_15
REMARK    8  A    between atoms: C_21  and  N_22
REMARK    9  A    between atoms: C_27  and  C_28
REMARK   10  A    between atoms: C_34  and  C_35
REMARK   11  A    between atoms: N_37  and  C_38
REMARK   12  A    between atoms: N_37  and  C_39
REMARK   13  A    between atoms: C_39  and  C_40
REMARK   14  A    between atoms: C_39  and  C_44
REMARK   15  A    between atoms: C_40  and  C_41
REMARK   16  A    between atoms: C_41  and  C_42
REMARK   17  A    between atoms: C_41  and  C_43
REMARK   18  A    between atoms: N_46  and  C_47
REMARK   19  A    between atoms: C_47  and  C_48
REMARK   20  A    between atoms: C_54  and  C_55
REMARK   21  A    between atoms: C_55  and  C_56
REMARK   22  A    between atoms: C_62  and  C_63
REMARK   23  A    between atoms: C_63  and  C_64
REMARK   24  A    between atoms: C_64  and  C_65
REMARK                            x       y       z     vdW  Elec       q    Type
REMARK                         _______ _______ _______ _____ _____    ______ ____
ROOT
ATOM      1  C   UNL     1      -6.521  -1.612 129.014  0.00  0.00    +0.000 C 
ATOM      2  N   UNL     1      -7.558  -0.429 127.356  0.00  0.00    +0.000 N 
ATOM      3  C   UNL     1      -8.319   0.599 125.851  0.00  0.00    +0.000 C 
ATOM      4  O   UNL     1      -9.713   0.953 125.348  0.00  0.00    +0.000 OA
ATOM      5  C   UNL     1      -8.115   2.474 124.882  0.00  0.00    +0.000 C 
ATOM      6  N   UNL     1      -8.179   4.008 125.500  0.00  0.00    +0.000 N 
ATOM      7  C   UNL     1      -8.543   4.214 126.803  0.00  0.00    +0.000 C 
ATOM      8  O   UNL     1      -8.449   5.296 127.369  0.00  0.00    +0.000 OA
ATOM      9  C   UNL     1      -9.043   3.112 127.690  0.00  0.00    +0.000 C 
ATOM     10  C   UNL     1      -8.056   2.479 128.595  0.00  0.00    +0.000 C 
ATOM     11  S   UNL     1      -8.287   3.834 129.770  0.00  0.00    +0.000 S 
ATOM     12  S   UNL     1      -6.677   3.866 130.891  0.00  0.00    +0.000 S 
ATOM     13  C   UNL     1      -6.924   4.316 132.629  0.00  0.00    +0.000 C 
ATOM     14  C   UNL     1      -5.967   3.873 133.742  0.00  0.00    +0.000 C 
ATOM     15  N   UNL     1      -6.347   2.561 134.303  0.00  0.00    +0.000 N 
ATOM     16  C   UNL     1      -6.350   1.409 133.630  0.00  0.00    +0.000 C 
ATOM     17  O   UNL     1      -6.843   0.461 134.229  0.00  0.00    +0.000 OA
ATOM     18  C   UNL     1      -5.953   1.559 132.111  0.00  0.00    +0.000 C 
ATOM     19  N   UNL     1      -4.652   0.994 131.863  0.00  0.00    +0.000 N 
ATOM     20  C   UNL     1      -4.456  -0.218 132.376  0.00  0.00    +0.000 C 
ATOM     21  O   UNL     1      -3.242  -0.691 131.772  0.00  0.00    +0.000 OA
ATOM     22  C   UNL     1      -6.142  -1.532 132.898  0.00  0.00    +0.000 C 
ATOM     23  N   UNL     1      -7.173  -2.671 131.671  0.00  0.00    +0.000 N 
ATOM     24  C   UNL     1      -6.955  -3.064 130.148  0.00  0.00    +0.000 C 
ATOM     25  O   UNL     1      -6.684  -4.269 129.961  0.00  0.00    +0.000 OA
ATOM     26  H   UNL     1      -8.529  -0.452 126.522  0.00  0.00    +0.000 HD
ATOM     27  H   UNL     1      -7.881   4.939 125.037  0.00  0.00    +0.000 HD
ATOM     28  H   UNL     1      -6.676   2.450 135.267  0.00  0.00    +0.000 HD
ATOM     29  H   UNL     1      -3.922   1.225 131.186  0.00  0.00    +0.000 HD
ATOM     30  H   UNL     1      -7.982  -2.238 131.256  0.00  0.00    +0.000 HD
ENDROOT
BRANCH  14  31
ATOM     31  C   UNL     1      -5.995   4.901 134.869  0.00  0.00    +0.000 C 
ATOM     32  O   UNL     1      -7.051   4.880 135.504  0.00  0.00    +0.000 OA
ATOM     33  N   UNL     1      -4.819   5.626 135.141  0.00  0.00    +0.000 N 
ATOM     34  C   UNL     1      -3.964   6.317 134.195  0.00  0.00    +0.000 C 
ATOM     35  C   UNL     1      -2.588   6.145 134.774  0.00  0.00    +0.000 C 
ATOM     36  C   UNL     1      -2.819   6.435 136.223  0.00  0.00    +0.000 C 
ATOM     37  C   UNL     1      -4.253   5.982 136.482  0.00  0.00    +0.000 C 
BRANCH  37  38
ATOM     38  C   UNL     1      -4.753   7.354 137.045  0.00  0.00    +0.000 C 
ATOM     39  O   UNL     1      -4.266   8.386 136.556  0.00  0.00    +0.000 OA
ATOM     40  N   UNL     1      -6.006   7.316 137.770  0.00  0.00    +0.000 N 
ATOM     41  C   UNL     1      -6.408   6.124 138.494  0.00  0.00    +0.000 C 
BRANCH  40  42
ATOM     42  C   UNL     1      -6.891   8.543 137.896  0.00  0.00    +0.000 C 
BRANCH  42  43
ATOM     43  C   UNL     1      -6.313   9.599 138.909  0.00  0.00    +0.000 C 
ATOM     44  O   UNL     1      -6.439   9.500 140.128  0.00  0.00    +0.000 OA
ATOM     45  N   UNL     1      -5.629  10.686 138.444  0.00  0.00    +0.000 N 
ATOM     46  H   UNL     1      -5.493  10.829 137.467  0.00  0.00    +0.000 HD
BRANCH  45  47
ATOM     47  C   UNL     1      -5.077  11.672 139.375  0.00  0.00    +0.000 C 
BRANCH  47  48
ATOM     48  C   UNL     1      -5.994  12.884 139.600  0.00  0.00    +0.000 C 
ATOM     49  N   UNL     1      -7.196  12.666 140.238  0.00  0.00    +0.000 N 
ATOM     50  O   UNL     1      -5.673  14.010 139.226  0.00  0.00    +0.000 OA
ATOM     51  H   UNL     1      -7.534  11.783 140.574  0.00  0.00    +0.000 HD
ATOM     52  H   UNL     1      -7.828  13.441 140.404  0.00  0.00    +0.000 HD
ENDBRANCH  47  48
ENDBRANCH  45  47
ENDBRANCH  42  43
BRANCH  42  53
ATOM     53  C   UNL     1      -8.350   8.222 138.319  0.00  0.00    +0.000 C 
BRANCH  53  54
ATOM     54  C   UNL     1      -9.331   9.355 138.063  0.00  0.00    +0.000 C 
ATOM     55  C   UNL     1     -10.660   8.840 137.672  0.00  0.00    +0.000 C 
ATOM     56  C   UNL     1      -9.812  10.045 139.278  0.00  0.00    +0.000 C 
ENDBRANCH  53  54
ENDBRANCH  42  53
ENDBRANCH  40  42
ENDBRANCH  37  38
ENDBRANCH  14  31
BRANCH   9  57
ATOM     57  N   UNL     1      -9.170   1.979 127.008  0.00  0.00    +0.000 NA
ATOM     58  H   UNL     1      -8.184   1.786 127.042  0.00  0.00    +0.000 HD
ATOM     59  H   UNL     1      -9.269   2.248 126.014  0.00  0.00    +0.000 HD
ENDBRANCH   9  57
BRANCH   1  60
ATOM     60  C   UNL     1      -5.140  -2.578 130.460  0.00  0.00    +0.000 C 
ATOM     61  C   UNL     1      -3.421  -3.462 131.484  0.00  0.00    +0.000 C 
BRANCH  60  63
ATOM     62  C   UNL     1      -4.109  -3.236 128.439  0.00  0.00    +0.000 C 
ATOM     63  C   UNL     1      -3.965  -2.473 129.853  0.00  0.00    +0.000 C 
ENDBRANCH  60  63
ENDBRANCH   1  60
BRANCH  18  64
ATOM     64  C   UNL     1      -7.357   1.291 131.149  0.00  0.00    +0.000 C 
BRANCH  64  65
ATOM     65  C   UNL     1      -8.566   0.800 131.854  0.00  0.00    +0.000 C 
ATOM     66  N   UNL     1      -9.304   1.715 132.498  0.00  0.00    +0.000 N 
ATOM     67  O   UNL     1      -8.910  -0.369 131.769  0.00  0.00    +0.000 OA
ATOM     68  H   UNL     1      -9.096   2.690 132.463  0.00  0.00    +0.000 HD
ATOM     69  H   UNL     1     -10.269   1.588 132.719  0.00  0.00    +0.000 HD
ENDBRANCH  64  65
ENDBRANCH  18  64
BRANCH   5  70
ATOM     70  C   UNL     1      -6.842   1.916 124.930  0.00  0.00    +0.000 C 
BRANCH  70  71
ATOM     71  C   UNL     1      -6.190   2.722 123.839  0.00  0.00    +0.000 A 
ATOM     72  C   UNL     1      -5.372   3.884 123.996  0.00  0.00    +0.000 A 
ATOM     73  C   UNL     1      -4.915   4.554 122.880  0.00  0.00    +0.000 A 
ATOM     74  C   UNL     1      -5.335   4.110 121.642  0.00  0.00    +0.000 A 
ATOM     75  C   UNL     1      -6.282   3.103 121.523  0.00  0.00    +0.000 A 
ATOM     76  C   UNL     1      -6.749   2.442 122.620  0.00  0.00    +0.000 A 
BRANCH  74  77
ATOM     77  O   UNL     1      -4.870   4.608 120.467  0.00  0.00    +0.000 OA
ATOM     78  H   UNL     1      -5.202   5.500 120.287  0.00  0.00    +0.000 HD
ENDBRANCH  74  77
ENDBRANCH  70  71
ENDBRANCH   5  70
BRANCH  22  79
ATOM     79  C   UNL     1      -6.216  -2.265 134.079  0.00  0.00    +0.000 C 
BRANCH  79  80
ATOM     80  C   UNL     1      -5.047  -2.864 134.718  0.00  0.00    +0.000 C 
BRANCH  80  81
ATOM     81  C   UNL     1      -4.723  -1.780 135.697  0.00  0.00    +0.000 C 
ATOM     82  N   UNL     1      -5.740  -1.294 136.509  0.00  0.00    +0.000 N 
ATOM     83  O   UNL     1      -3.587  -1.336 135.759  0.00  0.00    +0.000 OA
ATOM     84  H   UNL     1      -6.706  -1.620 136.520  0.00  0.00    +0.000 HD
ATOM     85  H   UNL     1      -5.555  -0.574 137.183  0.00  0.00    +0.000 HD
ENDBRANCH  80  81
ENDBRANCH  79  80
ENDBRANCH  22  79
TORSDOF 19
ENDMDL
MODEL 4
REMARK VINA RESULT:      -8.2      6.096     10.565
REMARK  Name = CHEMBL3814744
REMARK  24 active torsions:
REMARK  status: ('A' for Active; 'I' for Inactive)
REMARK    1  A    between atoms: C_1  and  C_2
REMARK    2  A    between atoms: C_2  and  C_3
REMARK    3  A    between atoms: C_3  and  C_4
REMARK    4  A    between atoms: C_3  and  C_5
REMARK    5  A    between atoms: C_9  and  C_10
REMARK    6  A    between atoms: C_10  and  C_11
REMARK    7  A    between atoms: C_14  and  O_15
REMARK    8  A    between atoms: C_21  and  N_22
REMARK    9  A    between atoms: C_27  and  C_28
REMARK   10  A    between atoms: C_34  and  C_35
REMARK   11  A    between atoms: N_37  and  C_38
REMARK   12  A    between atoms: N_37  and  C_39
REMARK   13  A    between atoms: C_39  and  C_40
REMARK   14  A    between atoms: C_39  and  C_44
REMARK   15  A    between atoms: C_40  and  C_41
REMARK   16  A    between atoms: C_41  and  C_42
REMARK   17  A    between atoms: C_41  and  C_43
REMARK   18  A    between atoms: N_46  and  C_47
REMARK   19  A    between atoms: C_47  and  C_48
REMARK   20  A    between atoms: C_54  and  C_55
REMARK   21  A    between atoms: C_55  and  C_56
REMARK   22  A    between atoms: C_62  and  C_63
REMARK   23  A    between atoms: C_63  and  C_64
REMARK   24  A    between atoms: C_64  and  C_65
REMARK                            x       y       z     vdW  Elec       q    Type
REMARK                         _______ _______ _______ _____ _____    ______ ____
ROOT
ATOM      1  C   UNL     1      -7.979   4.590 129.551  0.00  0.00    +0.000 C 
ATOM      2  N   UNL     1      -7.217   3.574 127.650  0.00  0.00    +0.000 N 
ATOM      3  C   UNL     1      -6.703   2.654 125.980  0.00  0.00    +0.000 C 
ATOM      4  O   UNL     1      -5.474   2.601 125.081  0.00  0.00    +0.000 OA
ATOM      5  C   UNL     1      -6.720   0.722 125.104  0.00  0.00    +0.000 C 
ATOM      6  N   UNL     1      -6.109  -0.710 125.664  0.00  0.00    +0.000 N 
ATOM      7  C   UNL     1      -5.342  -0.738 126.798  0.00  0.00    +0.000 C 
ATOM      8  O   UNL     1      -5.002  -1.773 127.360  0.00  0.00    +0.000 OA
ATOM      9  C   UNL     1      -4.888   0.507 127.501  0.00  0.00    +0.000 C 
ATOM     10  C   UNL     1      -5.690   0.951 128.665  0.00  0.00    +0.000 C 
ATOM     11  S   UNL     1      -4.806  -0.232 129.708  0.00  0.00    +0.000 S 
ATOM     12  S   UNL     1      -5.960  -0.563 131.259  0.00  0.00    +0.000 S 
ATOM     13  C   UNL     1      -5.116  -0.827 132.841  0.00  0.00    +0.000 C 
ATOM     14  C   UNL     1      -5.783  -0.546 134.191  0.00  0.00    +0.000 C 
ATOM     15  N   UNL     1      -5.586   0.853 134.622  0.00  0.00    +0.000 N 
ATOM     16  C   UNL     1      -6.058   1.926 133.986  0.00  0.00    +0.000 C 
ATOM     17  O   UNL     1      -5.657   3.001 134.417  0.00  0.00    +0.000 OA
ATOM     18  C   UNL     1      -6.833   1.587 132.654  0.00  0.00    +0.000 C 
ATOM     19  N   UNL     1      -8.246   1.815 132.811  0.00  0.00    +0.000 N 
ATOM     20  C   UNL     1      -8.572   2.980 133.367  0.00  0.00    +0.000 C 
ATOM     21  O   UNL     1      -9.986   3.115 133.157  0.00  0.00    +0.000 OA
ATOM     22  C   UNL     1      -7.177   4.682 133.369  0.00  0.00    +0.000 C 
ATOM     23  N   UNL     1      -6.857   5.946 131.897  0.00  0.00    +0.000 N 
ATOM     24  C   UNL     1      -7.599   6.175 130.512  0.00  0.00    +0.000 C 
ATOM     25  O   UNL     1      -8.196   7.269 130.422  0.00  0.00    +0.000 OA
ATOM     26  H   UNL     1      -6.567   3.767 126.564  0.00  0.00    +0.000 HD
ATOM     27  H   UNL     1      -6.295  -1.713 125.306  0.00  0.00    +0.000 HD
ATOM     28  H   UNL     1      -5.027   1.101 135.444  0.00  0.00    +0.000 HD
ATOM     29  H   UNL     1      -9.063   1.376 132.382  0.00  0.00    +0.000 HD
ATOM     30  H   UNL     1      -6.125   5.687 131.256  0.00  0.00    +0.000 HD
ENDROOT
BRANCH  14  31
ATOM     31  C   UNL     1      -5.180  -1.462 135.252  0.00  0.00    +0.000 C 
ATOM     32  O   UNL     1      -3.998  -1.203 135.485  0.00  0.00    +0.000 OA
ATOM     33  N   UNL     1      -6.032  -2.363 135.920  0.00  0.00    +0.000 N 
ATOM     34  C   UNL     1      -7.002  -3.267 135.333  0.00  0.00    +0.000 C 
ATOM     35  C   UNL     1      -8.109  -3.301 136.348  0.00  0.00    +0.000 C 
ATOM     36  C   UNL     1      -7.355  -3.431 137.633  0.00  0.00    +0.000 C 
ATOM     37  C   UNL     1      -6.034  -2.710 137.378  0.00  0.00    +0.000 C 
BRANCH  37  38
ATOM     38  C   UNL     1      -5.117  -3.922 137.750  0.00  0.00    +0.000 C 
ATOM     39  O   UNL     1      -5.533  -5.060 137.478  0.00  0.00    +0.000 OA
ATOM     40  N   UNL     1      -3.725  -3.605 137.990  0.00  0.00    +0.000 N 
ATOM     41  C   UNL     1      -3.339  -2.306 138.510  0.00  0.00    +0.000 C 
BRANCH  40  42
ATOM     42  C   UNL     1      -2.630  -4.643 137.816  0.00  0.00    +0.000 C 
BRANCH  42  43
ATOM     43  C   UNL     1      -1.257  -4.001 137.392  0.00  0.00    +0.000 C 
ATOM     44  O   UNL     1      -0.168  -4.452 137.742  0.00  0.00    +0.000 OA
ATOM     45  N   UNL     1      -1.241  -2.892 136.595  0.00  0.00    +0.000 N 
ATOM     46  H   UNL     1      -2.088  -2.474 136.278  0.00  0.00    +0.000 HD
BRANCH  45  47
ATOM     47  C   UNL     1       0.029  -2.290 136.185  0.00  0.00    +0.000 C 
BRANCH  47  48
ATOM     48  C   UNL     1       0.541  -2.800 134.829  0.00  0.00    +0.000 C 
ATOM     49  N   UNL     1       1.156  -4.033 134.802  0.00  0.00    +0.000 N 
ATOM     50  O   UNL     1       0.409  -2.136 133.803  0.00  0.00    +0.000 OA
ATOM     51  H   UNL     1       1.304  -4.636 135.589  0.00  0.00    +0.000 HD
ATOM     52  H   UNL     1       1.506  -4.403 133.925  0.00  0.00    +0.000 HD
ENDBRANCH  47  48
ENDBRANCH  45  47
ENDBRANCH  42  43
BRANCH  42  53
ATOM     53  C   UNL     1      -2.978  -5.753 136.787  0.00  0.00    +0.000 C 
BRANCH  53  54
ATOM     54  C   UNL     1      -2.619  -5.400 135.353  0.00  0.00    +0.000 C 
ATOM     55  C   UNL     1      -2.237  -6.601 134.581  0.00  0.00    +0.000 C 
ATOM     56  C   UNL     1      -3.770  -5.054 134.493  0.00  0.00    +0.000 C 
ENDBRANCH  53  54
ENDBRANCH  42  53
ENDBRANCH  40  42
ENDBRANCH  37  38
ENDBRANCH  14  31
BRANCH   9  57
ATOM     57  N   UNL     1      -5.243   1.590 126.821  0.00  0.00    +0.000 NA
ATOM     58  H   UNL     1      -5.729   1.988 127.605  0.00  0.00    +0.000 HD
ATOM     59  H   UNL     1      -6.047   1.311 126.231  0.00  0.00    +0.000 HD
ENDBRANCH   9  57
BRANCH   1  60
ATOM     60  C   UNL     1      -9.069   5.302 131.349  0.00  0.00    +0.000 C 
ATOM     61  C   UNL     1     -10.544   6.077 132.766  0.00  0.00    +0.000 C 
BRANCH  60  63
ATOM     62  C   UNL     1     -10.800   4.042 130.353  0.00  0.00    +0.000 C 
ATOM     63  C   UNL     1     -10.302   5.478 130.891  0.00  0.00    +0.000 C 
ENDBRANCH  60  63
ENDBRANCH   1  60
BRANCH  18  64
ATOM     64  C   UNL     1      -5.880   2.110 131.318  0.00  0.00    +0.000 C 
BRANCH  64  65
ATOM     65  C   UNL     1      -4.690   2.940 131.631  0.00  0.00    +0.000 C 
ATOM     66  N   UNL     1      -3.602   2.294 132.072  0.00  0.00    +0.000 N 
ATOM     67  O   UNL     1      -4.687   4.141 131.406  0.00  0.00    +0.000 OA
ATOM     68  H   UNL     1      -3.559   1.300 132.135  0.00  0.00    +0.000 HD
ATOM     69  H   UNL     1      -2.677   2.663 132.004  0.00  0.00    +0.000 HD
ENDBRANCH  64  65
ENDBRANCH  18  64
BRANCH   5  70
ATOM     70  C   UNL     1      -8.020   0.970 125.535  0.00  0.00    +0.000 C 
BRANCH  70  71
ATOM     71  C   UNL     1      -8.658  -0.326 125.114  0.00  0.00    +0.000 A 
ATOM     72  C   UNL     1      -8.970  -1.445 125.947  0.00  0.00    +0.000 A 
ATOM     73  C   UNL     1      -9.485  -2.594 125.384  0.00  0.00    +0.000 A 
ATOM     74  C   UNL     1      -9.610  -2.641 124.009  0.00  0.00    +0.000 A 
ATOM     75  C   UNL     1      -9.120  -1.619 123.208  0.00  0.00    +0.000 A 
ATOM     76  C   UNL     1      -8.599  -0.485 123.754  0.00  0.00    +0.000 A 
BRANCH  74  77
ATOM     77  O   UNL     1     -10.205  -3.663 123.342  0.00  0.00    +0.000 OA
ATOM     78  H   UNL     1     -10.849  -3.351 122.689  0.00  0.00    +0.000 HD
ENDBRANCH  74  77
ENDBRANCH  70  71
ENDBRANCH   5  70
BRANCH  22  79
ATOM     79  C   UNL     1      -6.942   5.489 134.478  0.00  0.00    +0.000 C 
BRANCH  79  80
ATOM     80  C   UNL     1      -7.901   5.642 135.570  0.00  0.00    +0.000 C 
BRANCH  80  81
ATOM     81  C   UNL     1      -6.947   5.759 136.716  0.00  0.00    +0.000 C 
ATOM     82  N   UNL     1      -5.738   5.079 136.645  0.00  0.00    +0.000 N 
ATOM     83  O   UNL     1      -7.247   6.434 137.690  0.00  0.00    +0.000 OA
ATOM     84  H   UNL     1      -5.417   4.508 135.865  0.00  0.00    +0.000 HD
ATOM     85  H   UNL     1      -5.071   5.145 137.392  0.00  0.00    +0.000 HD
ENDBRANCH  80  81
ENDBRANCH  79  80
ENDBRANCH  22  79
TORSDOF 19
ENDMDL
MODEL 5
REMARK VINA RESULT:      -8.2      1.293      2.210
REMARK  Name = CHEMBL3814744
REMARK  24 active torsions:
REMARK  status: ('A' for Active; 'I' for Inactive)
REMARK    1  A    between atoms: C_1  and  C_2
REMARK    2  A    between atoms: C_2  and  C_3
REMARK    3  A    between atoms: C_3  and  C_4
REMARK    4  A    between atoms: C_3  and  C_5
REMARK    5  A    between atoms: C_9  and  C_10
REMARK    6  A    between atoms: C_10  and  C_11
REMARK    7  A    between atoms: C_14  and  O_15
REMARK    8  A    between atoms: C_21  and  N_22
REMARK    9  A    between atoms: C_27  and  C_28
REMARK   10  A    between atoms: C_34  and  C_35
REMARK   11  A    between atoms: N_37  and  C_38
REMARK   12  A    between atoms: N_37  and  C_39
REMARK   13  A    between atoms: C_39  and  C_40
REMARK   14  A    between atoms: C_39  and  C_44
REMARK   15  A    between atoms: C_40  and  C_41
REMARK   16  A    between atoms: C_41  and  C_42
REMARK   17  A    between atoms: C_41  and  C_43
REMARK   18  A    between atoms: N_46  and  C_47
REMARK   19  A    between atoms: C_47  and  C_48
REMARK   20  A    between atoms: C_54  and  C_55
REMARK   21  A    between atoms: C_55  and  C_56
REMARK   22  A    between atoms: C_62  and  C_63
REMARK   23  A    between atoms: C_63  and  C_64
REMARK   24  A    between atoms: C_64  and  C_65
REMARK                            x       y       z     vdW  Elec       q    Type
REMARK                         _______ _______ _______ _____ _____    ______ ____
ROOT
ATOM      1  C   UNL     1      -6.131   0.208 131.583  0.00  0.00    +0.000 C 
ATOM      2  N   UNL     1      -7.075   0.647 129.548  0.00  0.00    +0.000 N 
ATOM      3  C   UNL     1      -7.780   0.941 127.727  0.00  0.00    +0.000 C 
ATOM      4  O   UNL     1      -9.063   1.487 127.114  0.00  0.00    +0.000 OA
ATOM      5  C   UNL     1      -7.208   1.786 125.868  0.00  0.00    +0.000 C 
ATOM      6  N   UNL     1      -6.645   3.301 125.512  0.00  0.00    +0.000 N 
ATOM      7  C   UNL     1      -6.629   4.276 126.472  0.00  0.00    +0.000 C 
ATOM      8  O   UNL     1      -6.074   5.359 126.329  0.00  0.00    +0.000 OA
ATOM      9  C   UNL     1      -7.247   4.091 127.827  0.00  0.00    +0.000 C 
ATOM     10  C   UNL     1      -6.339   3.699 128.930  0.00  0.00    +0.000 C 
ATOM     11  S   UNL     1      -5.864   5.432 129.135  0.00  0.00    +0.000 S 
ATOM     12  S   UNL     1      -4.123   5.418 130.040  0.00  0.00    +0.000 S 
ATOM     13  C   UNL     1      -3.827   6.760 131.222  0.00  0.00    +0.000 C 
ATOM     14  C   UNL     1      -2.841   6.632 132.388  0.00  0.00    +0.000 C 
ATOM     15  N   UNL     1      -3.486   6.072 133.593  0.00  0.00    +0.000 N 
ATOM     16  C   UNL     1      -4.002   4.845 133.688  0.00  0.00    +0.000 C 
ATOM     17  O   UNL     1      -4.627   4.625 134.718  0.00  0.00    +0.000 OA
ATOM     18  C   UNL     1      -3.921   4.016 132.348  0.00  0.00    +0.000 C 
ATOM     19  N   UNL     1      -2.955   2.955 132.461  0.00  0.00    +0.000 N 
ATOM     20  C   UNL     1      -3.046   2.222 133.568  0.00  0.00    +0.000 C 
ATOM     21  O   UNL     1      -2.209   1.079 133.334  0.00  0.00    +0.000 OA
ATOM     22  C   UNL     1      -4.905   2.144 134.743  0.00  0.00    +0.000 C 
ATOM     23  N   UNL     1      -6.487   1.036 134.375  0.00  0.00    +0.000 N 
ATOM     24  C   UNL     1      -6.744  -0.141 133.339  0.00  0.00    +0.000 C 
ATOM     25  O   UNL     1      -6.918  -1.261 133.865  0.00  0.00    +0.000 OA
ATOM     26  H   UNL     1      -8.161   0.570 128.874  0.00  0.00    +0.000 HD
ATOM     27  H   UNL     1      -6.175   3.654 124.604  0.00  0.00    +0.000 HD
ATOM     28  H   UNL     1      -3.613   6.616 134.452  0.00  0.00    +0.000 HD
ATOM     29  H   UNL     1      -2.356   2.497 131.770  0.00  0.00    +0.000 HD
ATOM     30  H   UNL     1      -7.187   1.461 133.789  0.00  0.00    +0.000 HD
ENDROOT
BRANCH  14  31
ATOM     31  C   UNL     1      -2.294   8.012 132.738  0.00  0.00    +0.000 C 
ATOM     32  O   UNL     1      -2.981   8.927 132.279  0.00  0.00    +0.000 OA
ATOM     33  N   UNL     1      -1.201   8.093 133.623  0.00  0.00    +0.000 N 
ATOM     34  C   UNL     1       0.037   7.338 133.574  0.00  0.00    +0.000 C 
ATOM     35  C   UNL     1       0.390   7.148 135.023  0.00  0.00    +0.000 C 
ATOM     36  C   UNL     1       0.136   8.509 135.590  0.00  0.00    +0.000 C 
ATOM     37  C   UNL     1      -0.993   9.078 134.734  0.00  0.00    +0.000 C 
BRANCH  37  38
ATOM     38  C   UNL     1      -0.229  10.374 134.305  0.00  0.00    +0.000 C 
ATOM     39  O   UNL     1       0.062  10.498 133.105  0.00  0.00    +0.000 OA
ATOM     40  N   UNL     1      -0.294  11.479 135.240  0.00  0.00    +0.000 N 
ATOM     41  C   UNL     1      -0.429  11.238 136.664  0.00  0.00    +0.000 C 
BRANCH  40  42
ATOM     42  C   UNL     1      -0.113  12.917 134.786  0.00  0.00    +0.000 C 
BRANCH  42  43
ATOM     43  C   UNL     1      -1.483  13.621 134.464  0.00  0.00    +0.000 C 
ATOM     44  O   UNL     1      -2.124  14.259 135.296  0.00  0.00    +0.000 OA
ATOM     45  N   UNL     1      -2.010  13.541 133.206  0.00  0.00    +0.000 N 
ATOM     46  H   UNL     1      -1.543  13.037 132.483  0.00  0.00    +0.000 HD
BRANCH  45  47
ATOM     47  C   UNL     1      -3.279  14.199 132.888  0.00  0.00    +0.000 C 
BRANCH  47  48
ATOM     48  C   UNL     1      -3.121  15.672 132.482  0.00  0.00    +0.000 C 
ATOM     49  N   UNL     1      -3.303  16.627 133.459  0.00  0.00    +0.000 N 
ATOM     50  O   UNL     1      -2.843  15.993 131.328  0.00  0.00    +0.000 OA
ATOM     51  H   UNL     1      -3.530  16.451 134.420  0.00  0.00    +0.000 HD
ATOM     52  H   UNL     1      -3.207  17.610 133.229  0.00  0.00    +0.000 HD
ENDBRANCH  47  48
ENDBRANCH  45  47
ENDBRANCH  42  43
BRANCH  42  53
ATOM     53  C   UNL     1       0.809  13.072 133.546  0.00  0.00    +0.000 C 
BRANCH  53  54
ATOM     54  C   UNL     1       2.215  13.545 133.877  0.00  0.00    +0.000 C 
ATOM     55  C   UNL     1       2.253  14.261 135.169  0.00  0.00    +0.000 C 
ATOM     56  C   UNL     1       3.147  12.476 134.293  0.00  0.00    +0.000 C 
ENDBRANCH  53  54
ENDBRANCH  42  53
ENDBRANCH  40  42
ENDBRANCH  37  38
ENDBRANCH  14  31
BRANCH   9  57
ATOM     57  N   UNL     1      -7.873   2.923 127.904  0.00  0.00    +0.000 NA
ATOM     58  H   UNL     1      -7.786   2.750 126.918  0.00  0.00    +0.000 HD
ATOM     59  H   UNL     1      -8.884   3.139 127.962  0.00  0.00    +0.000 HD
ENDBRANCH   9  57
BRANCH   1  60
ATOM     60  C   UNL     1      -4.848  -0.309 133.320  0.00  0.00    +0.000 C 
ATOM     61  C   UNL     1      -3.477  -1.259 134.735  0.00  0.00    +0.000 C 
BRANCH  60  63
ATOM     62  C   UNL     1      -3.728  -1.088 131.391  0.00  0.00    +0.000 C 
ATOM     63  C   UNL     1      -4.213  -1.395 132.899  0.00  0.00    +0.000 C 
ENDBRANCH  60  63
ENDBRANCH   1  60
BRANCH  18  64
ATOM     64  C   UNL     1      -5.512   3.853 131.707  0.00  0.00    +0.000 C 
BRANCH  64  65
ATOM     65  C   UNL     1      -6.631   4.284 132.581  0.00  0.00    +0.000 C 
ATOM     66  N   UNL     1      -6.875   5.601 132.645  0.00  0.00    +0.000 N 
ATOM     67  O   UNL     1      -7.344   3.464 133.137  0.00  0.00    +0.000 OA
ATOM     68  H   UNL     1      -6.376   6.264 132.092  0.00  0.00    +0.000 HD
ATOM     69  H   UNL     1      -7.757   5.986 132.911  0.00  0.00    +0.000 HD
ENDBRANCH  64  65
ENDBRANCH  18  64
BRANCH   5  70
ATOM     70  C   UNL     1      -6.200   0.895 126.221  0.00  0.00    +0.000 C 
BRANCH  70  71
ATOM     71  C   UNL     1      -6.218   0.022 124.995  0.00  0.00    +0.000 A 
ATOM     72  C   UNL     1      -7.091   0.135 123.869  0.00  0.00    +0.000 A 
ATOM     73  C   UNL     1      -7.027  -0.802 122.857  0.00  0.00    +0.000 A 
ATOM     74  C   UNL     1      -6.161  -1.866 123.016  0.00  0.00    +0.000 A 
ATOM     75  C   UNL     1      -5.468  -2.058 124.202  0.00  0.00    +0.000 A 
ATOM     76  C   UNL     1      -5.533  -1.145 125.212  0.00  0.00    +0.000 A 
BRANCH  74  77
ATOM     77  O   UNL     1      -5.920  -2.790 122.050  0.00  0.00    +0.000 OA
ATOM     78  H   UNL     1      -6.081  -3.694 122.357  0.00  0.00    +0.000 HD
ENDBRANCH  74  77
ENDBRANCH  70  71
ENDBRANCH   5  70
BRANCH  22  79
ATOM     79  C   UNL     1      -4.947   2.228 136.132  0.00  0.00    +0.000 C 
BRANCH  79  80
ATOM     80  C   UNL     1      -3.828   1.841 136.988  0.00  0.00    +0.000 C 
BRANCH  80  81
ATOM     81  C   UNL     1      -3.761   3.053 137.861  0.00  0.00    +0.000 C 
ATOM     82  N   UNL     1      -2.522   3.636 138.094  0.00  0.00    +0.000 N 
ATOM     83  O   UNL     1      -4.783   3.501 138.359  0.00  0.00    +0.000 OA
ATOM     84  H   UNL     1      -1.632   3.325 137.707  0.00  0.00    +0.000 HD
ATOM     85  H   UNL     1      -2.442   4.456 138.666  0.00  0.00    +0.000 HD
ENDBRANCH  80  81
ENDBRANCH  79  80
ENDBRANCH  22  79
TORSDOF 19
ENDMDL
MODEL 6
REMARK VINA RESULT:      -8.2      2.019      2.930
REMARK  Name = CHEMBL3814744
REMARK  24 active torsions:
REMARK  status: ('A' for Active; 'I' for Inactive)
REMARK    1  A    between atoms: C_1  and  C_2
REMARK    2  A    between atoms: C_2  and  C_3
REMARK    3  A    between atoms: C_3  and  C_4
REMARK    4  A    between atoms: C_3  and  C_5
REMARK    5  A    between atoms: C_9  and  C_10
REMARK    6  A    between atoms: C_10  and  C_11
REMARK    7  A    between atoms: C_14  and  O_15
REMARK    8  A    between atoms: C_21  and  N_22
REMARK    9  A    between atoms: C_27  and  C_28
REMARK   10  A    between atoms: C_34  and  C_35
REMARK   11  A    between atoms: N_37  and  C_38
REMARK   12  A    between atoms: N_37  and  C_39
REMARK   13  A    between atoms: C_39  and  C_40
REMARK   14  A    between atoms: C_39  and  C_44
REMARK   15  A    between atoms: C_40  and  C_41
REMARK   16  A    between atoms: C_41  and  C_42
REMARK   17  A    between atoms: C_41  and  C_43
REMARK   18  A    between atoms: N_46  and  C_47
REMARK   19  A    between atoms: C_47  and  C_48
REMARK   20  A    between atoms: C_54  and  C_55
REMARK   21  A    between atoms: C_55  and  C_56
REMARK   22  A    between atoms: C_62  and  C_63
REMARK   23  A    between atoms: C_63  and  C_64
REMARK   24  A    between atoms: C_64  and  C_65
REMARK                            x       y       z     vdW  Elec       q    Type
REMARK                         _______ _______ _______ _____ _____    ______ ____
ROOT
ATOM      1  C   UNL     1      -6.038  -1.230 131.284  0.00  0.00    +0.000 C 
ATOM      2  N   UNL     1      -6.945  -0.475 129.326  0.00  0.00    +0.000 N 
ATOM      3  C   UNL     1      -7.604   0.123 127.563  0.00  0.00    +0.000 C 
ATOM      4  O   UNL     1      -8.924   0.620 126.987  0.00  0.00    +0.000 OA
ATOM      5  C   UNL     1      -7.078   1.428 125.976  0.00  0.00    +0.000 C 
ATOM      6  N   UNL     1      -6.723   3.044 125.997  0.00  0.00    +0.000 N 
ATOM      7  C   UNL     1      -6.889   3.775 127.142  0.00  0.00    +0.000 C 
ATOM      8  O   UNL     1      -6.490   4.925 127.276  0.00  0.00    +0.000 OA
ATOM      9  C   UNL     1      -7.533   3.213 128.376  0.00  0.00    +0.000 C 
ATOM     10  C   UNL     1      -6.628   2.707 129.434  0.00  0.00    +0.000 C 
ATOM     11  S   UNL     1      -6.415   4.397 130.041  0.00  0.00    +0.000 S 
ATOM     12  S   UNL     1      -4.732   4.409 131.048  0.00  0.00    +0.000 S 
ATOM     13  C   UNL     1      -4.684   5.481 132.509  0.00  0.00    +0.000 C 
ATOM     14  C   UNL     1      -3.743   5.226 133.691  0.00  0.00    +0.000 C 
ATOM     15  N   UNL     1      -4.352   4.332 134.696  0.00  0.00    +0.000 N 
ATOM     16  C   UNL     1      -4.691   3.059 134.487  0.00  0.00    +0.000 C 
ATOM     17  O   UNL     1      -5.322   2.535 135.397  0.00  0.00    +0.000 OA
ATOM     18  C   UNL     1      -4.433   2.567 133.010  0.00  0.00    +0.000 C 
ATOM     19  N   UNL     1      -3.330   1.642 132.964  0.00  0.00    +0.000 N 
ATOM     20  C   UNL     1      -3.365   0.675 133.878  0.00  0.00    +0.000 C 
ATOM     21  O   UNL     1      -2.362  -0.267 133.468  0.00  0.00    +0.000 OA
ATOM     22  C   UNL     1      -5.243   0.096 134.867  0.00  0.00    +0.000 C 
ATOM     23  N   UNL     1      -6.632  -1.098 134.154  0.00  0.00    +0.000 N 
ATOM     24  C   UNL     1      -6.672  -2.038 132.873  0.00  0.00    +0.000 C 
ATOM     25  O   UNL     1      -6.706  -3.259 133.132  0.00  0.00    +0.000 OA
ATOM     26  H   UNL     1      -7.978  -0.540 128.572  0.00  0.00    +0.000 HD
ATOM     27  H   UNL     1      -6.269   3.649 125.223  0.00  0.00    +0.000 HD
ATOM     28  H   UNL     1      -4.594   4.650 135.640  0.00  0.00    +0.000 HD
ATOM     29  H   UNL     1      -2.642   1.431 132.238  0.00  0.00    +0.000 HD
ATOM     30  H   UNL     1      -7.359  -0.648 133.623  0.00  0.00    +0.000 HD
ENDROOT
BRANCH  14  31
ATOM     31  C   UNL     1      -3.415   6.553 134.369  0.00  0.00    +0.000 C 
ATOM     32  O   UNL     1      -4.234   6.858 135.237  0.00  0.00    +0.000 OA
ATOM     33  N   UNL     1      -2.197   7.184 134.048  0.00  0.00    +0.000 N 
ATOM     34  C   UNL     1      -1.648   7.436 132.729  0.00  0.00    +0.000 C 
ATOM     35  C   UNL     1      -0.166   7.295 132.933  0.00  0.00    +0.000 C 
ATOM     36  C   UNL     1       0.050   8.052 134.205  0.00  0.00    +0.000 C 
ATOM     37  C   UNL     1      -1.251   7.876 134.983  0.00  0.00    +0.000 C 
BRANCH  37  38
ATOM     38  C   UNL     1      -1.535   9.404 135.166  0.00  0.00    +0.000 C 
ATOM     39  O   UNL     1      -2.052  10.009 134.213  0.00  0.00    +0.000 OA
ATOM     40  N   UNL     1      -1.556   9.879 136.533  0.00  0.00    +0.000 N 
ATOM     41  C   UNL     1      -0.752   9.235 137.555  0.00  0.00    +0.000 C 
BRANCH  40  42
ATOM     42  C   UNL     1      -2.325  11.127 136.931  0.00  0.00    +0.000 C 
BRANCH  42  43
ATOM     43  C   UNL     1      -1.764  12.424 136.238  0.00  0.00    +0.000 C 
ATOM     44  O   UNL     1      -0.758  13.013 136.629  0.00  0.00    +0.000 OA
ATOM     45  N   UNL     1      -2.400  12.942 135.146  0.00  0.00    +0.000 N 
ATOM     46  H   UNL     1      -3.223  12.515 134.779  0.00  0.00    +0.000 HD
BRANCH  45  47
ATOM     47  C   UNL     1      -1.884  14.143 134.485  0.00  0.00    +0.000 C 
BRANCH  47  48
ATOM     48  C   UNL     1      -2.336  14.280 133.023  0.00  0.00    +0.000 C 
ATOM     49  N   UNL     1      -1.846  13.368 132.115  0.00  0.00    +0.000 N 
ATOM     50  O   UNL     1      -3.107  15.171 132.671  0.00  0.00    +0.000 OA
ATOM     51  H   UNL     1      -1.216  12.614 132.317  0.00  0.00    +0.000 HD
ATOM     52  H   UNL     1      -2.122  13.427 131.140  0.00  0.00    +0.000 HD
ENDBRANCH  47  48
ENDBRANCH  45  47
ENDBRANCH  42  43
BRANCH  42  53
ATOM     53  C   UNL     1      -2.361  11.379 138.462  0.00  0.00    +0.000 C 
BRANCH  53  54
ATOM     54  C   UNL     1      -3.763  11.461 139.043  0.00  0.00    +0.000 C 
ATOM     55  C   UNL     1      -4.316  12.827 138.925  0.00  0.00    +0.000 C 
ATOM     56  C   UNL     1      -4.813  10.825 138.220  0.00  0.00    +0.000 C 
ENDBRANCH  53  54
ENDBRANCH  42  53
ENDBRANCH  40  42
ENDBRANCH  37  38
ENDBRANCH  14  31
BRANCH   9  57
ATOM     57  N   UNL     1      -7.988   1.986 128.154  0.00  0.00    +0.000 NA
ATOM     58  H   UNL     1      -8.553   1.988 128.985  0.00  0.00    +0.000 HD
ATOM     59  H   UNL     1      -7.235   1.340 128.447  0.00  0.00    +0.000 HD
ENDBRANCH   9  57
BRANCH   1  60
ATOM     60  C   UNL     1      -4.772  -1.949 132.960  0.00  0.00    +0.000 C 
ATOM     61  C   UNL     1      -3.336  -2.998 134.234  0.00  0.00    +0.000 C 
BRANCH  60  63
ATOM     62  C   UNL     1      -3.363  -2.048 131.067  0.00  0.00    +0.000 C 
ATOM     63  C   UNL     1      -3.957  -2.807 132.360  0.00  0.00    +0.000 C 
ENDBRANCH  60  63
ENDBRANCH   1  60
BRANCH  18  64
ATOM     64  C   UNL     1      -5.954   2.345 132.233  0.00  0.00    +0.000 C 
BRANCH  64  65
ATOM     65  C   UNL     1      -7.160   2.405 133.096  0.00  0.00    +0.000 C 
ATOM     66  N   UNL     1      -7.602   3.624 133.433  0.00  0.00    +0.000 N 
ATOM     67  O   UNL     1      -7.763   1.387 133.401  0.00  0.00    +0.000 OA
ATOM     68  H   UNL     1      -7.187   4.460 133.080  0.00  0.00    +0.000 HD
ATOM     69  H   UNL     1      -8.542   3.812 133.712  0.00  0.00    +0.000 HD
ENDBRANCH  64  65
ENDBRANCH  18  64
BRANCH   5  70
ATOM     70  C   UNL     1      -5.969   0.620 126.204  0.00  0.00    +0.000 C 
BRANCH  70  71
ATOM     71  C   UNL     1      -6.149  -0.352 125.068  0.00  0.00    +0.000 A 
ATOM     72  C   UNL     1      -5.423  -1.562 124.845  0.00  0.00    +0.000 A 
ATOM     73  C   UNL     1      -5.661  -2.302 123.705  0.00  0.00    +0.000 A 
ATOM     74  C   UNL     1      -6.550  -1.794 122.778  0.00  0.00    +0.000 A 
ATOM     75  C   UNL     1      -7.094  -0.526 122.925  0.00  0.00    +0.000 A 
ATOM     76  C   UNL     1      -6.857   0.217 124.042  0.00  0.00    +0.000 A 
BRANCH  74  77
ATOM     77  O   UNL     1      -6.956  -2.473 121.675  0.00  0.00    +0.000 OA
ATOM     78  H   UNL     1      -6.622  -3.383 121.658  0.00  0.00    +0.000 HD
ENDBRANCH  74  77
ENDBRANCH  70  71
ENDBRANCH   5  70
BRANCH  22  79
ATOM     79  C   UNL     1      -5.358  -0.137 136.235  0.00  0.00    +0.000 C 
BRANCH  79  80
ATOM     80  C   UNL     1      -4.237  -0.570 137.066  0.00  0.00    +0.000 C 
BRANCH  80  81
ATOM     81  C   UNL     1      -4.033   0.678 137.866  0.00  0.00    +0.000 C 
ATOM     82  N   UNL     1      -3.088   1.599 137.431  0.00  0.00    +0.000 N 
ATOM     83  O   UNL     1      -4.686   0.861 138.883  0.00  0.00    +0.000 OA
ATOM     84  H   UNL     1      -2.516   1.519 136.592  0.00  0.00    +0.000 HD
ATOM     85  H   UNL     1      -2.935   2.451 137.938  0.00  0.00    +0.000 HD
ENDBRANCH  80  81
ENDBRANCH  79  80
ENDBRANCH  22  79
TORSDOF 19
ENDMDL
MODEL 7
REMARK VINA RESULT:      -7.9      5.979      9.988
REMARK  Name = CHEMBL3814744
REMARK  24 active torsions:
REMARK  status: ('A' for Active; 'I' for Inactive)
REMARK    1  A    between atoms: C_1  and  C_2
REMARK    2  A    between atoms: C_2  and  C_3
REMARK    3  A    between atoms: C_3  and  C_4
REMARK    4  A    between atoms: C_3  and  C_5
REMARK    5  A    between atoms: C_9  and  C_10
REMARK    6  A    between atoms: C_10  and  C_11
REMARK    7  A    between atoms: C_14  and  O_15
REMARK    8  A    between atoms: C_21  and  N_22
REMARK    9  A    between atoms: C_27  and  C_28
REMARK   10  A    between atoms: C_34  and  C_35
REMARK   11  A    between atoms: N_37  and  C_38
REMARK   12  A    between atoms: N_37  and  C_39
REMARK   13  A    between atoms: C_39  and  C_40
REMARK   14  A    between atoms: C_39  and  C_44
REMARK   15  A    between atoms: C_40  and  C_41
REMARK   16  A    between atoms: C_41  and  C_42
REMARK   17  A    between atoms: C_41  and  C_43
REMARK   18  A    between atoms: N_46  and  C_47
REMARK   19  A    between atoms: C_47  and  C_48
REMARK   20  A    between atoms: C_54  and  C_55
REMARK   21  A    between atoms: C_55  and  C_56
REMARK   22  A    between atoms: C_62  and  C_63
REMARK   23  A    between atoms: C_63  and  C_64
REMARK   24  A    between atoms: C_64  and  C_65
REMARK                            x       y       z     vdW  Elec       q    Type
REMARK                         _______ _______ _______ _____ _____    ______ ____
ROOT
ATOM      1  C   UNL     1      -8.000   4.579 129.572  0.00  0.00    +0.000 C 
ATOM      2  N   UNL     1      -7.216   3.494 127.719  0.00  0.00    +0.000 N 
ATOM      3  C   UNL     1      -6.683   2.512 126.090  0.00  0.00    +0.000 C 
ATOM      4  O   UNL     1      -5.446   2.427 125.207  0.00  0.00    +0.000 OA
ATOM      5  C   UNL     1      -6.690   0.549 125.287  0.00  0.00    +0.000 C 
ATOM      6  N   UNL     1      -6.083  -0.860 125.907  0.00  0.00    +0.000 N 
ATOM      7  C   UNL     1      -5.329  -0.845 127.048  0.00  0.00    +0.000 C 
ATOM      8  O   UNL     1      -4.993  -1.857 127.652  0.00  0.00    +0.000 OA
ATOM      9  C   UNL     1      -4.883   0.426 127.710  0.00  0.00    +0.000 C 
ATOM     10  C   UNL     1      -5.698   0.912 128.848  0.00  0.00    +0.000 C 
ATOM     11  S   UNL     1      -4.823  -0.229 129.943  0.00  0.00    +0.000 S 
ATOM     12  S   UNL     1      -5.994  -0.504 131.493  0.00  0.00    +0.000 S 
ATOM     13  C   UNL     1      -5.166  -0.707 133.093  0.00  0.00    +0.000 C 
ATOM     14  C   UNL     1      -5.848  -0.377 134.425  0.00  0.00    +0.000 C 
ATOM     15  N   UNL     1      -5.657   1.038 134.805  0.00  0.00    +0.000 N 
ATOM     16  C   UNL     1      -6.123   2.086 134.125  0.00  0.00    +0.000 C 
ATOM     17  O   UNL     1      -5.728   3.176 134.519  0.00  0.00    +0.000 OA
ATOM     18  C   UNL     1      -6.883   1.696 132.798  0.00  0.00    +0.000 C 
ATOM     19  N   UNL     1      -8.298   1.928 132.931  0.00  0.00    +0.000 N 
ATOM     20  C   UNL     1      -8.631   3.112 133.439  0.00  0.00    +0.000 C 
ATOM     21  O   UNL     1     -10.043   3.238 133.210  0.00  0.00    +0.000 OA
ATOM     22  C   UNL     1      -7.238   4.815 133.392  0.00  0.00    +0.000 C 
ATOM     23  N   UNL     1      -6.903   6.024 131.878  0.00  0.00    +0.000 N 
ATOM     24  C   UNL     1      -7.631   6.200 130.477  0.00  0.00    +0.000 C 
ATOM     25  O   UNL     1      -8.228   7.288 130.340  0.00  0.00    +0.000 OA
ATOM     26  H   UNL     1      -6.555   3.646 126.633  0.00  0.00    +0.000 HD
ATOM     27  H   UNL     1      -6.265  -1.876 125.585  0.00  0.00    +0.000 HD
ATOM     28  H   UNL     1      -5.107   1.317 135.623  0.00  0.00    +0.000 HD
ATOM     29  H   UNL     1      -9.110   1.472 132.510  0.00  0.00    +0.000 HD
ATOM     30  H   UNL     1      -6.164   5.742 131.255  0.00  0.00    +0.000 HD
ENDROOT
BRANCH  14  31
ATOM     31  C   UNL     1      -5.255  -1.251 135.525  0.00  0.00    +0.000 C 
ATOM     32  O   UNL     1      -6.078  -1.546 136.393  0.00  0.00    +0.000 OA
ATOM     33  N   UNL     1      -3.937  -1.722 135.366  0.00  0.00    +0.000 N 
ATOM     34  C   UNL     1      -2.761  -0.959 134.993  0.00  0.00    +0.000 C 
ATOM     35  C   UNL     1      -1.954  -1.933 134.181  0.00  0.00    +0.000 C 
ATOM     36  C   UNL     1      -2.048  -3.180 135.002  0.00  0.00    +0.000 C 
ATOM     37  C   UNL     1      -3.407  -3.087 135.688  0.00  0.00    +0.000 C 
BRANCH  37  38
ATOM     38  C   UNL     1      -2.860  -3.234 137.147  0.00  0.00    +0.000 C 
ATOM     39  O   UNL     1      -1.782  -2.678 137.413  0.00  0.00    +0.000 OA
ATOM     40  N   UNL     1      -3.828  -3.639 138.144  0.00  0.00    +0.000 N 
ATOM     41  C   UNL     1      -4.961  -4.471 137.782  0.00  0.00    +0.000 C 
BRANCH  40  42
ATOM     42  C   UNL     1      -3.643  -3.308 139.614  0.00  0.00    +0.000 C 
BRANCH  42  43
ATOM     43  C   UNL     1      -3.703  -1.760 139.893  0.00  0.00    +0.000 C 
ATOM     44  O   UNL     1      -3.030  -1.207 140.761  0.00  0.00    +0.000 OA
ATOM     45  N   UNL     1      -4.528  -0.965 139.149  0.00  0.00    +0.000 N 
ATOM     46  H   UNL     1      -5.102  -1.350 138.430  0.00  0.00    +0.000 HD
BRANCH  45  47
ATOM     47  C   UNL     1      -4.586   0.478 139.390  0.00  0.00    +0.000 C 
BRANCH  47  48
ATOM     48  C   UNL     1      -4.059   1.317 138.216  0.00  0.00    +0.000 C 
ATOM     49  N   UNL     1      -2.718   1.224 137.916  0.00  0.00    +0.000 N 
ATOM     50  O   UNL     1      -4.803   2.049 137.566  0.00  0.00    +0.000 OA
ATOM     51  H   UNL     1      -2.044   0.654 138.394  0.00  0.00    +0.000 HD
ATOM     52  H   UNL     1      -2.333   1.763 137.148  0.00  0.00    +0.000 HD
ENDBRANCH  47  48
ENDBRANCH  45  47
ENDBRANCH  42  43
BRANCH  42  53
ATOM     53  C   UNL     1      -2.320  -3.853 140.218  0.00  0.00    +0.000 C 
BRANCH  53  54
ATOM     54  C   UNL     1      -2.521  -4.864 141.335  0.00  0.00    +0.000 C 
ATOM     55  C   UNL     1      -2.381  -4.234 142.664  0.00  0.00    +0.000 C 
ATOM     56  C   UNL     1      -3.920  -5.292 141.540  0.00  0.00    +0.000 C 
ENDBRANCH  53  54
ENDBRANCH  42  53
ENDBRANCH  40  42
ENDBRANCH  37  38
ENDBRANCH  14  31
BRANCH   9  57
ATOM     57  N   UNL     1      -5.232   1.482 126.985  0.00  0.00    +0.000 NA
ATOM     58  H   UNL     1      -5.950   0.976 126.496  0.00  0.00    +0.000 HD
ATOM     59  H   UNL     1      -4.525   1.566 126.234  0.00  0.00    +0.000 HD
ENDBRANCH   9  57
BRANCH   1  60
ATOM     60  C   UNL     1      -9.109   5.356 131.331  0.00  0.00    +0.000 C 
ATOM     61  C   UNL     1     -10.605   6.166 132.706  0.00  0.00    +0.000 C 
BRANCH  60  63
ATOM     62  C   UNL     1     -10.787   4.010 130.356  0.00  0.00    +0.000 C 
ATOM     63  C   UNL     1     -10.345   5.476 130.865  0.00  0.00    +0.000 C 
ENDBRANCH  60  63
ENDBRANCH   1  60
BRANCH  18  64
ATOM     64  C   UNL     1      -5.917   2.170 131.453  0.00  0.00    +0.000 C 
BRANCH  64  65
ATOM     65  C   UNL     1      -4.730   3.011 131.747  0.00  0.00    +0.000 C 
ATOM     66  N   UNL     1      -3.644   2.380 132.217  0.00  0.00    +0.000 N 
ATOM     67  O   UNL     1      -4.725   4.203 131.484  0.00  0.00    +0.000 OA
ATOM     68  H   UNL     1      -3.601   1.389 132.313  0.00  0.00    +0.000 HD
ATOM     69  H   UNL     1      -2.719   2.748 132.144  0.00  0.00    +0.000 HD
ENDBRANCH  64  65
ENDBRANCH  18  64
BRANCH   5  70
ATOM     70  C   UNL     1      -7.994   0.811 125.695  0.00  0.00    +0.000 C 
BRANCH  70  71
ATOM     71  C   UNL     1      -8.645  -0.466 125.236  0.00  0.00    +0.000 A 
ATOM     72  C   UNL     1      -8.982  -1.599 126.040  0.00  0.00    +0.000 A 
ATOM     73  C   UNL     1      -9.506  -2.728 125.445  0.00  0.00    +0.000 A 
ATOM     74  C   UNL     1      -9.614  -2.742 124.068  0.00  0.00    +0.000 A 
ATOM     75  C   UNL     1      -9.100  -1.709 123.296  0.00  0.00    +0.000 A 
ATOM     76  C   UNL     1      -8.571  -0.595 123.874  0.00  0.00    +0.000 A 
BRANCH  74  77
ATOM     77  O   UNL     1     -10.215  -3.741 123.371  0.00  0.00    +0.000 OA
ATOM     78  H   UNL     1     -10.422  -3.482 122.461  0.00  0.00    +0.000 HD
ENDBRANCH  74  77
ENDBRANCH  70  71
ENDBRANCH   5  70
BRANCH  22  79
ATOM     79  C   UNL     1      -7.015   5.663 134.473  0.00  0.00    +0.000 C 
BRANCH  79  80
ATOM     80  C   UNL     1      -7.889   5.709 135.644  0.00  0.00    +0.000 C 
BRANCH  80  81
ATOM     81  C   UNL     1      -6.855   5.888 136.710  0.00  0.00    +0.000 C 
ATOM     82  N   UNL     1      -5.911   4.886 136.896  0.00  0.00    +0.000 N 
ATOM     83  O   UNL     1      -6.863   6.896 137.401  0.00  0.00    +0.000 OA
ATOM     84  H   UNL     1      -5.837   4.025 136.354  0.00  0.00    +0.000 HD
ATOM     85  H   UNL     1      -5.198   4.979 137.595  0.00  0.00    +0.000 HD
ENDBRANCH  80  81
ENDBRANCH  79  80
ENDBRANCH  22  79
TORSDOF 19
ENDMDL
MODEL 8
REMARK VINA RESULT:      -7.8      8.252     13.832
REMARK  Name = CHEMBL3814744
REMARK  24 active torsions:
REMARK  status: ('A' for Active; 'I' for Inactive)
REMARK    1  A    between atoms: C_1  and  C_2
REMARK    2  A    between atoms: C_2  and  C_3
REMARK    3  A    between atoms: C_3  and  C_4
REMARK    4  A    between atoms: C_3  and  C_5
REMARK    5  A    between atoms: C_9  and  C_10
REMARK    6  A    between atoms: C_10  and  C_11
REMARK    7  A    between atoms: C_14  and  O_15
REMARK    8  A    between atoms: C_21  and  N_22
REMARK    9  A    between atoms: C_27  and  C_28
REMARK   10  A    between atoms: C_34  and  C_35
REMARK   11  A    between atoms: N_37  and  C_38
REMARK   12  A    between atoms: N_37  and  C_39
REMARK   13  A    between atoms: C_39  and  C_40
REMARK   14  A    between atoms: C_39  and  C_44
REMARK   15  A    between atoms: C_40  and  C_41
REMARK   16  A    between atoms: C_41  and  C_42
REMARK   17  A    between atoms: C_41  and  C_43
REMARK   18  A    between atoms: N_46  and  C_47
REMARK   19  A    between atoms: C_47  and  C_48
REMARK   20  A    between atoms: C_54  and  C_55
REMARK   21  A    between atoms: C_55  and  C_56
REMARK   22  A    between atoms: C_62  and  C_63
REMARK   23  A    between atoms: C_63  and  C_64
REMARK   24  A    between atoms: C_64  and  C_65
REMARK                            x       y       z     vdW  Elec       q    Type
REMARK                         _______ _______ _______ _____ _____    ______ ____
ROOT
ATOM      1  C   UNL     1      -4.793  -4.567 139.425  0.00  0.00    +0.000 C 
ATOM      2  N   UNL     1      -2.533  -4.831 139.203  0.00  0.00    +0.000 N 
ATOM      3  C   UNL     1      -0.563  -4.930 139.092  0.00  0.00    +0.000 C 
ATOM      4  O   UNL     1       0.469  -5.974 138.687  0.00  0.00    +0.000 OA
ATOM      5  C   UNL     1       1.090  -3.834 138.342  0.00  0.00    +0.000 C 
ATOM      6  N   UNL     1       1.387  -3.258 136.819  0.00  0.00    +0.000 N 
ATOM      7  C   UNL     1       0.564  -3.596 135.780  0.00  0.00    +0.000 C 
ATOM      8  O   UNL     1       0.623  -3.076 134.672  0.00  0.00    +0.000 OA
ATOM      9  C   UNL     1      -0.539  -4.605 135.912  0.00  0.00    +0.000 C 
ATOM     10  C   UNL     1      -1.903  -4.080 136.157  0.00  0.00    +0.000 C 
ATOM     11  S   UNL     1      -2.088  -3.777 134.384  0.00  0.00    +0.000 S 
ATOM     12  S   UNL     1      -3.492  -2.418 134.206  0.00  0.00    +0.000 S 
ATOM     13  C   UNL     1      -4.580  -2.579 132.764  0.00  0.00    +0.000 C 
ATOM     14  C   UNL     1      -6.003  -2.013 132.736  0.00  0.00    +0.000 C 
ATOM     15  N   UNL     1      -6.990  -2.982 133.255  0.00  0.00    +0.000 N 
ATOM     16  C   UNL     1      -7.028  -3.443 134.506  0.00  0.00    +0.000 C 
ATOM     17  O   UNL     1      -7.826  -4.353 134.698  0.00  0.00    +0.000 OA
ATOM     18  C   UNL     1      -5.864  -2.899 135.421  0.00  0.00    +0.000 C 
ATOM     19  N   UNL     1      -6.371  -1.971 136.397  0.00  0.00    +0.000 N 
ATOM     20  C   UNL     1      -7.455  -2.377 137.054  0.00  0.00    +0.000 C 
ATOM     21  O   UNL     1      -7.601  -1.456 138.146  0.00  0.00    +0.000 OA
ATOM     22  C   UNL     1      -7.987  -4.508 137.185  0.00  0.00    +0.000 C 
ATOM     23  N   UNL     1      -7.243  -5.836 138.429  0.00  0.00    +0.000 N 
ATOM     24  C   UNL     1      -6.290  -5.693 139.693  0.00  0.00    +0.000 C 
ATOM     25  O   UNL     1      -6.834  -5.972 140.781  0.00  0.00    +0.000 OA
ATOM     26  H   UNL     1      -1.561  -5.639 139.407  0.00  0.00    +0.000 HD
ATOM     27  H   UNL     1       2.129  -2.540 136.498  0.00  0.00    +0.000 HD
ATOM     28  H   UNL     1      -7.712  -3.402 132.662  0.00  0.00    +0.000 HD
ATOM     29  H   UNL     1      -5.948  -1.161 136.858  0.00  0.00    +0.000 HD
ATOM     30  H   UNL     1      -6.431  -6.330 138.099  0.00  0.00    +0.000 HD
ENDROOT
BRANCH  14  31
ATOM     31  C   UNL     1      -6.381  -1.671 131.298  0.00  0.00    +0.000 C 
ATOM     32  O   UNL     1      -6.185  -2.607 130.520  0.00  0.00    +0.000 OA
ATOM     33  N   UNL     1      -7.015  -0.438 131.049  0.00  0.00    +0.000 N 
ATOM     34  C   UNL     1      -6.618   0.875 131.520  0.00  0.00    +0.000 C 
ATOM     35  C   UNL     1      -7.927   1.583 131.728  0.00  0.00    +0.000 C 
ATOM     36  C   UNL     1      -8.684   1.214 130.492  0.00  0.00    +0.000 C 
ATOM     37  C   UNL     1      -8.159  -0.169 130.118  0.00  0.00    +0.000 C 
BRANCH  37  38
ATOM     38  C   UNL     1      -7.725   0.213 128.664  0.00  0.00    +0.000 C 
ATOM     39  O   UNL     1      -7.329   1.374 128.470  0.00  0.00    +0.000 OA
ATOM     40  N   UNL     1      -7.434  -0.898 127.782  0.00  0.00    +0.000 N 
ATOM     41  C   UNL     1      -8.103  -2.175 127.953  0.00  0.00    +0.000 C 
BRANCH  40  42
ATOM     42  C   UNL     1      -6.510  -0.746 126.587  0.00  0.00    +0.000 C 
BRANCH  42  43
ATOM     43  C   UNL     1      -7.180   0.056 125.409  0.00  0.00    +0.000 C 
ATOM     44  O   UNL     1      -8.280  -0.231 124.941  0.00  0.00    +0.000 OA
ATOM     45  N   UNL     1      -6.535   1.130 124.864  0.00  0.00    +0.000 N 
ATOM     46  H   UNL     1      -5.639   1.415 125.195  0.00  0.00    +0.000 HD
BRANCH  45  47
ATOM     47  C   UNL     1      -7.150   1.891 123.775  0.00  0.00    +0.000 C 
BRANCH  47  48
ATOM     48  C   UNL     1      -7.779   3.216 124.232  0.00  0.00    +0.000 C 
ATOM     49  N   UNL     1      -7.026   4.362 124.094  0.00  0.00    +0.000 N 
ATOM     50  O   UNL     1      -8.913   3.258 124.705  0.00  0.00    +0.000 OA
ATOM     51  H   UNL     1      -6.097   4.415 123.720  0.00  0.00    +0.000 HD
ATOM     52  H   UNL     1      -7.408   5.255 124.385  0.00  0.00    +0.000 HD
ENDBRANCH  47  48
ENDBRANCH  45  47
ENDBRANCH  42  43
BRANCH  42  53
ATOM     53  C   UNL     1      -5.997  -2.096 126.016  0.00  0.00    +0.000 C 
BRANCH  53  54
ATOM     54  C   UNL     1      -6.345  -2.320 124.553  0.00  0.00    +0.000 C 
ATOM     55  C   UNL     1      -5.171  -2.784 123.784  0.00  0.00    +0.000 C 
ATOM     56  C   UNL     1      -7.160  -3.524 124.287  0.00  0.00    +0.000 C 
ENDBRANCH  53  54
ENDBRANCH  42  53
ENDBRANCH  40  42
ENDBRANCH  37  38
ENDBRANCH  14  31
BRANCH   9  57
ATOM     57  N   UNL     1      -0.521  -5.167 137.115  0.00  0.00    +0.000 NA
ATOM     58  H   UNL     1      -1.505  -5.374 137.092  0.00  0.00    +0.000 HD
ATOM     59  H   UNL     1      -0.515  -4.391 137.799  0.00  0.00    +0.000 HD
ENDBRANCH   9  57
BRANCH   1  60
ATOM     60  C   UNL     1      -6.884  -3.884 139.721  0.00  0.00    +0.000 C 
ATOM     61  C   UNL     1      -8.740  -3.000 140.468  0.00  0.00    +0.000 C 
BRANCH  60  63
ATOM     62  C   UNL     1      -5.569  -2.090 140.517  0.00  0.00    +0.000 C 
ATOM     63  C   UNL     1      -6.787  -3.110 140.795  0.00  0.00    +0.000 C 
ENDBRANCH  60  63
ENDBRANCH   1  60
BRANCH  18  64
ATOM     64  C   UNL     1      -4.773  -4.192 135.745  0.00  0.00    +0.000 C 
BRANCH  64  65
ATOM     65  C   UNL     1      -5.193  -5.546 135.308  0.00  0.00    +0.000 C 
ATOM     66  N   UNL     1      -5.022  -5.843 134.013  0.00  0.00    +0.000 N 
ATOM     67  O   UNL     1      -5.590  -6.371 136.117  0.00  0.00    +0.000 OA
ATOM     68  H   UNL     1      -4.580  -5.217 133.374  0.00  0.00    +0.000 HD
ATOM     69  H   UNL     1      -4.951  -6.777 133.666  0.00  0.00    +0.000 HD
ENDBRANCH  64  65
ENDBRANCH  18  64
BRANCH   5  70
ATOM     70  C   UNL     1       0.359  -2.951 139.130  0.00  0.00    +0.000 C 
BRANCH  70  71
ATOM     71  C   UNL     1       1.288  -1.768 139.083  0.00  0.00    +0.000 A 
ATOM     72  C   UNL     1       2.567  -1.651 139.711  0.00  0.00    +0.000 A 
ATOM     73  C   UNL     1       3.260  -0.461 139.633  0.00  0.00    +0.000 A 
ATOM     74  C   UNL     1       2.646   0.606 139.007  0.00  0.00    +0.000 A 
ATOM     75  C   UNL     1       1.329   0.525 138.577  0.00  0.00    +0.000 A 
ATOM     76  C   UNL     1       0.632  -0.643 138.660  0.00  0.00    +0.000 A 
BRANCH  74  77
ATOM     77  O   UNL     1       3.262   1.791 138.764  0.00  0.00    +0.000 OA
ATOM     78  H   UNL     1       4.203   1.683 138.560  0.00  0.00    +0.000 HD
ENDBRANCH  74  77
ENDBRANCH  70  71
ENDBRANCH   5  70
BRANCH  22  79
ATOM     79  C   UNL     1      -9.278  -4.996 137.005  0.00  0.00    +0.000 C 
BRANCH  79  80
ATOM     80  C   UNL     1     -10.432  -4.487 137.743  0.00  0.00    +0.000 C 
BRANCH  80  81
ATOM     81  C   UNL     1     -10.860  -5.750 138.422  0.00  0.00    +0.000 C 
ATOM     82  N   UNL     1     -11.974  -6.421 137.935  0.00  0.00    +0.000 N 
ATOM     83  O   UNL     1     -10.237  -6.161 139.390  0.00  0.00    +0.000 OA
ATOM     84  H   UNL     1     -12.535  -6.145 137.130  0.00  0.00    +0.000 HD
ATOM     85  H   UNL     1     -12.282  -7.276 138.360  0.00  0.00    +0.000 HD
ENDBRANCH  80  81
ENDBRANCH  79  80
ENDBRANCH  22  79
TORSDOF 19
ENDMDL
MODEL 9
REMARK VINA RESULT:      -7.6      3.781      8.271
REMARK  Name = CHEMBL3814744
REMARK  24 active torsions:
REMARK  status: ('A' for Active; 'I' for Inactive)
REMARK    1  A    between atoms: C_1  and  C_2
REMARK    2  A    between atoms: C_2  and  C_3
REMARK    3  A    between atoms: C_3  and  C_4
REMARK    4  A    between atoms: C_3  and  C_5
REMARK    5  A    between atoms: C_9  and  C_10
REMARK    6  A    between atoms: C_10  and  C_11
REMARK    7  A    between atoms: C_14  and  O_15
REMARK    8  A    between atoms: C_21  and  N_22
REMARK    9  A    between atoms: C_27  and  C_28
REMARK   10  A    between atoms: C_34  and  C_35
REMARK   11  A    between atoms: N_37  and  C_38
REMARK   12  A    between atoms: N_37  and  C_39
REMARK   13  A    between atoms: C_39  and  C_40
REMARK   14  A    between atoms: C_39  and  C_44
REMARK   15  A    between atoms: C_40  and  C_41
REMARK   16  A    between atoms: C_41  and  C_42
REMARK   17  A    between atoms: C_41  and  C_43
REMARK   18  A    between atoms: N_46  and  C_47
REMARK   19  A    between atoms: C_47  and  C_48
REMARK   20  A    between atoms: C_54  and  C_55
REMARK   21  A    between atoms: C_55  and  C_56
REMARK   22  A    between atoms: C_62  and  C_63
REMARK   23  A    between atoms: C_63  and  C_64
REMARK   24  A    between atoms: C_64  and  C_65
REMARK                            x       y       z     vdW  Elec       q    Type
REMARK                         _______ _______ _______ _____ _____    ______ ____
ROOT
ATOM      1  C   UNL     1      -6.800  -1.649 132.023  0.00  0.00    +0.000 C 
ATOM      2  N   UNL     1      -6.867  -2.679 134.063  0.00  0.00    +0.000 N 
ATOM      3  C   UNL     1      -7.076  -3.541 135.827  0.00  0.00    +0.000 C 
ATOM      4  O   UNL     1      -6.231  -4.431 136.729  0.00  0.00    +0.000 OA
ATOM      5  C   UNL     1      -7.685  -3.088 137.808  0.00  0.00    +0.000 C 
ATOM      6  N   UNL     1      -7.162  -1.907 138.842  0.00  0.00    +0.000 N 
ATOM      7  C   UNL     1      -6.085  -1.129 138.515  0.00  0.00    +0.000 C 
ATOM      8  O   UNL     1      -5.750  -0.134 139.148  0.00  0.00    +0.000 OA
ATOM      9  C   UNL     1      -5.234  -1.388 137.306  0.00  0.00    +0.000 C 
ATOM     10  C   UNL     1      -5.534  -0.594 136.092  0.00  0.00    +0.000 C 
ATOM     11  S   UNL     1      -4.560   0.774 136.763  0.00  0.00    +0.000 S 
ATOM     12  S   UNL     1      -5.187   2.391 135.848  0.00  0.00    +0.000 S 
ATOM     13  C   UNL     1      -3.929   3.648 135.497  0.00  0.00    +0.000 C 
ATOM     14  C   UNL     1      -4.069   4.663 134.357  0.00  0.00    +0.000 C 
ATOM     15  N   UNL     1      -3.522   4.142 133.088  0.00  0.00    +0.000 N 
ATOM     16  C   UNL     1      -3.997   3.089 132.421  0.00  0.00    +0.000 C 
ATOM     17  O   UNL     1      -3.312   2.725 131.473  0.00  0.00    +0.000 OA
ATOM     18  C   UNL     1      -5.205   2.373 133.140  0.00  0.00    +0.000 C 
ATOM     19  N   UNL     1      -6.435   2.606 132.429  0.00  0.00    +0.000 N 
ATOM     20  C   UNL     1      -6.373   2.413 131.114  0.00  0.00    +0.000 C 
ATOM     21  O   UNL     1      -7.737   2.412 130.668  0.00  0.00    +0.000 OA
ATOM     22  C   UNL     1      -4.800   1.169 130.209  0.00  0.00    +0.000 C 
ATOM     23  N   UNL     1      -4.776  -0.794 130.080  0.00  0.00    +0.000 N 
ATOM     24  C   UNL     1      -5.881  -1.893 130.387  0.00  0.00    +0.000 C 
ATOM     25  O   UNL     1      -6.292  -2.506 129.380  0.00  0.00    +0.000 OA
ATOM     26  H   UNL     1      -6.583  -3.762 134.685  0.00  0.00    +0.000 HD
ATOM     27  H   UNL     1      -7.612  -1.565 139.764  0.00  0.00    +0.000 HD
ATOM     28  H   UNL     1      -2.695   4.547 132.639  0.00  0.00    +0.000 HD
ATOM     29  H   UNL     1      -7.407   2.668 132.742  0.00  0.00    +0.000 HD
ATOM     30  H   UNL     1      -4.343  -1.272 130.852  0.00  0.00    +0.000 HD
ENDROOT
BRANCH  14  31
ATOM     31  C   UNL     1      -3.309   5.935 134.718  0.00  0.00    +0.000 C 
ATOM     32  O   UNL     1      -3.509   6.294 135.880  0.00  0.00    +0.000 OA
ATOM     33  N   UNL     1      -2.394   6.456 133.781  0.00  0.00    +0.000 N 
ATOM     34  C   UNL     1      -2.610   6.688 132.366  0.00  0.00    +0.000 C 
ATOM     35  C   UNL     1      -1.267   6.403 131.755  0.00  0.00    +0.000 C 
ATOM     36  C   UNL     1      -0.338   7.103 132.695  0.00  0.00    +0.000 C 
ATOM     37  C   UNL     1      -1.037   7.032 134.050  0.00  0.00    +0.000 C 
BRANCH  37  38
ATOM     38  C   UNL     1      -1.036   8.574 134.312  0.00  0.00    +0.000 C 
ATOM     39  O   UNL     1      -1.229   9.321 133.339  0.00  0.00    +0.000 OA
ATOM     40  N   UNL     1      -1.221   8.978 135.690  0.00  0.00    +0.000 N 
ATOM     41  C   UNL     1      -0.774   8.128 136.778  0.00  0.00    +0.000 C 
BRANCH  40  42
ATOM     42  C   UNL     1      -1.784  10.341 136.052  0.00  0.00    +0.000 C 
BRANCH  42  43
ATOM     43  C   UNL     1      -0.996  11.517 135.364  0.00  0.00    +0.000 C 
ATOM     44  O   UNL     1       0.119  11.885 135.730  0.00  0.00    +0.000 OA
ATOM     45  N   UNL     1      -1.549  12.179 134.305  0.00  0.00    +0.000 N 
ATOM     46  H   UNL     1      -2.451  11.933 133.959  0.00  0.00    +0.000 HD
BRANCH  45  47
ATOM     47  C   UNL     1      -0.824  13.269 133.648  0.00  0.00    +0.000 C 
BRANCH  47  48
ATOM     48  C   UNL     1      -0.401  12.943 132.207  0.00  0.00    +0.000 C 
ATOM     49  N   UNL     1      -1.291  13.241 131.198  0.00  0.00    +0.000 N 
ATOM     50  O   UNL     1       0.690  12.435 131.959  0.00  0.00    +0.000 OA
ATOM     51  H   UNL     1      -2.197  13.655 131.314  0.00  0.00    +0.000 HD
ATOM     52  H   UNL     1      -1.047  13.041 130.234  0.00  0.00    +0.000 HD
ENDBRANCH  47  48
ENDBRANCH  45  47
ENDBRANCH  42  43
BRANCH  42  53
ATOM     53  C   UNL     1      -1.820  10.618 137.580  0.00  0.00    +0.000 C 
BRANCH  53  54
ATOM     54  C   UNL     1      -3.222  10.679 138.164  0.00  0.00    +0.000 C 
ATOM     55  C   UNL     1      -3.679  12.075 138.324  0.00  0.00    +0.000 C 
ATOM     56  C   UNL     1      -4.300  10.295 137.229  0.00  0.00    +0.000 C 
ENDBRANCH  53  54
ENDBRANCH  42  53
ENDBRANCH  40  42
ENDBRANCH  37  38
ENDBRANCH  14  31
BRANCH   9  57
ATOM     57  N   UNL     1      -5.613  -2.503 136.693  0.00  0.00    +0.000 NA
ATOM     58  H   UNL     1      -5.807  -2.025 135.830  0.00  0.00    +0.000 HD
ATOM     59  H   UNL     1      -6.577  -2.697 137.014  0.00  0.00    +0.000 HD
ENDBRANCH   9  57
BRANCH   1  60
ATOM     60  C   UNL     1      -7.119  -0.463 130.174  0.00  0.00    +0.000 C 
ATOM     61  C   UNL     1      -7.948   0.551 128.422  0.00  0.00    +0.000 C 
BRANCH  60  63
ATOM     62  C   UNL     1      -9.035  -0.125 131.513  0.00  0.00    +0.000 C 
ATOM     63  C   UNL     1      -8.441  -0.465 130.053  0.00  0.00    +0.000 C 
ENDBRANCH  60  63
ENDBRANCH   1  60
BRANCH  18  64
ATOM     64  C   UNL     1      -4.666   0.846 133.727  0.00  0.00    +0.000 C 
BRANCH  64  65
ATOM     65  C   UNL     1      -3.364   0.355 133.213  0.00  0.00    +0.000 C 
ATOM     66  N   UNL     1      -2.262   0.946 133.694  0.00  0.00    +0.000 N 
ATOM     67  O   UNL     1      -3.309  -0.604 132.457  0.00  0.00    +0.000 OA
ATOM     68  H   UNL     1      -2.296   1.643 134.407  0.00  0.00    +0.000 HD
ATOM     69  H   UNL     1      -1.360   0.517 133.692  0.00  0.00    +0.000 HD
ENDBRANCH  64  65
ENDBRANCH  18  64
BRANCH   5  70
ATOM     70  C   UNL     1      -8.717  -2.671 136.974  0.00  0.00    +0.000 C 
BRANCH  70  71
ATOM     71  C   UNL     1      -9.885  -3.206 137.759  0.00  0.00    +0.000 A 
ATOM     72  C   UNL     1     -10.331  -4.562 137.825  0.00  0.00    +0.000 A 
ATOM     73  C   UNL     1     -11.473  -4.873 138.534  0.00  0.00    +0.000 A 
ATOM     74  C   UNL     1     -12.189  -3.833 139.095  0.00  0.00    +0.000 A 
ATOM     75  C   UNL     1     -11.843  -2.511 138.854  0.00  0.00    +0.000 A 
ATOM     76  C   UNL     1     -10.723  -2.193 138.146  0.00  0.00    +0.000 A 
BRANCH  74  77
ATOM     77  O   UNL     1     -13.261  -4.011 139.908  0.00  0.00    +0.000 OA
ATOM     78  H   UNL     1     -13.014  -4.381 140.769  0.00  0.00    +0.000 HD
ENDBRANCH  74  77
ENDBRANCH  70  71
ENDBRANCH   5  70
BRANCH  22  79
ATOM     79  C   UNL     1      -4.092   1.526 129.065  0.00  0.00    +0.000 C 
BRANCH  79  80
ATOM     80  C   UNL     1      -4.738   2.008 127.846  0.00  0.00    +0.000 C 
BRANCH  80  81
ATOM     81  C   UNL     1      -3.826   3.150 127.524  0.00  0.00    +0.000 C 
ATOM     82  N   UNL     1      -3.041   3.680 128.541  0.00  0.00    +0.000 N 
ATOM     83  O   UNL     1      -3.793   3.600 126.389  0.00  0.00    +0.000 OA
ATOM     84  H   UNL     1      -3.008   3.352 129.505  0.00  0.00    +0.000 HD
ATOM     85  H   UNL     1      -2.411   4.438 128.357  0.00  0.00    +0.000 HD
ENDBRANCH  80  81
ENDBRANCH  79  80
ENDBRANCH  22  79
TORSDOF 19
ENDMDL
