MODEL 1
REMARK VINA RESULT:     -10.5      0.000      0.000
REMARK  Name = CHEMBL31163
REMARK  6 active torsions:
REMARK  status: ('A' for Active; 'I' for Inactive)
REMARK    1  A    between atoms: C_2  and  C_3
REMARK    2  A    between atoms: C_3  and  C_4
REMARK    3  A    between atoms: N_10  and  C_11
REMARK    4  A    between atoms: C_11  and  C_12
REMARK    5  A    between atoms: C_16  and  C_17
REMARK    6  A    between atoms: C_22  and  N_23
REMARK                            x       y       z     vdW  Elec       q    Type
REMARK                         _______ _______ _______ _____ _____    ______ ____
ROOT
ATOM      1  C   UNL     1     -11.826   6.600 131.098  0.00  0.00    +0.000 A 
ATOM      2  C   UNL     1     -11.572   5.523 130.278  0.00  0.00    +0.000 A 
ATOM      3  C   UNL     1     -10.176   5.326 130.265  0.00  0.00    +0.000 A 
ATOM      4  C   UNL     1      -9.316   4.396 129.652  0.00  0.00    +0.000 A 
ATOM      5  C   UNL     1      -7.929   4.511 129.841  0.00  0.00    +0.000 A 
ATOM      6  C   UNL     1      -7.429   5.575 130.611  0.00  0.00    +0.000 A 
ATOM      7  C   UNL     1      -8.274   6.492 131.264  0.00  0.00    +0.000 A 
ATOM      8  C   UNL     1      -9.643   6.333 131.061  0.00  0.00    +0.000 A 
ATOM      9  O   UNL     1     -10.649   7.110 131.580  0.00  0.00    +0.000 OA
ENDROOT
BRANCH   5  10
ATOM     10  C   UNL     1      -7.037   3.538 129.118  0.00  0.00    +0.000 C 
ATOM     11  O   UNL     1      -6.388   2.706 129.746  0.00  0.00    +0.000 OA
ATOM     12  N   UNL     1      -7.056   3.556 127.734  0.00  0.00    +0.000 N 
ATOM     13  C   UNL     1      -7.304   2.321 126.997  0.00  0.00    +0.000 C 
ATOM     14  C   UNL     1      -6.165   1.995 126.049  0.00  0.00    +0.000 C 
ATOM     15  C   UNL     1      -5.841   3.195 125.132  0.00  0.00    +0.000 C 
ATOM     16  C   UNL     1      -5.550   4.437 125.984  0.00  0.00    +0.000 C 
ATOM     17  C   UNL     1      -6.657   4.739 126.979  0.00  0.00    +0.000 C 
BRANCH  15  18
ATOM     18  N   UNL     1      -6.848   3.374 124.031  0.00  0.00    +0.000 N 
ATOM     19  C   UNL     1      -8.223   3.191 124.186  0.00  0.00    +0.000 C 
ATOM     20  O   UNL     1      -8.949   3.613 125.078  0.00  0.00    +0.000 OA
ATOM     21  O   UNL     1      -8.764   2.379 123.245  0.00  0.00    +0.000 OA
ATOM     22  C   UNL     1      -8.752   3.018 121.988  0.00  0.00    +0.000 C 
ATOM     23  C   UNL     1      -7.388   3.544 121.674  0.00  0.00    +0.000 A 
ATOM     24  C   UNL     1      -7.094   3.912 120.359  0.00  0.00    +0.000 A 
ATOM     25  C   UNL     1      -5.844   4.428 120.052  0.00  0.00    +0.000 A 
ATOM     26  C   UNL     1      -4.894   4.587 121.058  0.00  0.00    +0.000 A 
ATOM     27  C   UNL     1      -5.183   4.220 122.376  0.00  0.00    +0.000 A 
ATOM     28  C   UNL     1      -6.434   3.690 122.699  0.00  0.00    +0.000 A 
ENDBRANCH  15  18
ENDBRANCH   5  10
BRANCH   1  29
ATOM     29  C   UNL     1     -13.114   7.223 131.499  0.00  0.00    +0.000 C 
BRANCH  29  32
ATOM     30  O   UNL     1     -12.926  10.633 130.382  0.00  0.00    +0.000 OA
ATOM     31  C   UNL     1     -13.162   9.432 130.263  0.00  0.00    +0.000 C 
ATOM     32  N   UNL     1     -12.969   8.659 131.364  0.00  0.00    +0.000 N 
ATOM     33  H   UNL     1     -12.637   9.198 132.156  0.00  0.00    +0.000 HD
BRANCH  31  34
ATOM     34  C   UNL     1     -13.657   8.760 128.987  0.00  0.00    +0.000 C 
BRANCH  34  35
ATOM     35  C   UNL     1     -12.574   8.206 128.095  0.00  0.00    +0.000 A 
ATOM     36  C   UNL     1     -11.227   8.555 128.236  0.00  0.00    +0.000 A 
ATOM     37  C   UNL     1     -10.265   7.982 127.416  0.00  0.00    +0.000 A 
ATOM     38  C   UNL     1     -10.687   7.109 126.433  0.00  0.00    +0.000 A 
ATOM     39  N   UNL     1     -11.982   6.787 126.219  0.00  0.00    +0.000 NA
ATOM     40  C   UNL     1     -12.892   7.341 127.052  0.00  0.00    +0.000 A 
ENDBRANCH  34  35
ENDBRANCH  31  34
ENDBRANCH  29  32
ENDBRANCH   1  29
TORSDOF 6
ENDMDL
MODEL 2
REMARK VINA RESULT:     -10.2      1.830      2.378
REMARK  Name = CHEMBL31163
REMARK  6 active torsions:
REMARK  status: ('A' for Active; 'I' for Inactive)
REMARK    1  A    between atoms: C_2  and  C_3
REMARK    2  A    between atoms: C_3  and  C_4
REMARK    3  A    between atoms: N_10  and  C_11
REMARK    4  A    between atoms: C_11  and  C_12
REMARK    5  A    between atoms: C_16  and  C_17
REMARK    6  A    between atoms: C_22  and  N_23
REMARK                            x       y       z     vdW  Elec       q    Type
REMARK                         _______ _______ _______ _____ _____    ______ ____
ROOT
ATOM      1  C   UNL     1     -11.836   6.615 130.995  0.00  0.00    +0.000 A 
ATOM      2  C   UNL     1     -11.526   5.447 130.331  0.00  0.00    +0.000 A 
ATOM      3  C   UNL     1     -10.122   5.321 130.342  0.00  0.00    +0.000 A 
ATOM      4  C   UNL     1      -9.214   4.358 129.862  0.00  0.00    +0.000 A 
ATOM      5  C   UNL     1      -7.835   4.566 130.030  0.00  0.00    +0.000 A 
ATOM      6  C   UNL     1      -7.392   5.751 130.643  0.00  0.00    +0.000 A 
ATOM      7  C   UNL     1      -8.283   6.707 131.165  0.00  0.00    +0.000 A 
ATOM      8  C   UNL     1      -9.642   6.454 130.990  0.00  0.00    +0.000 A 
ATOM      9  O   UNL     1     -10.688   7.244 131.398  0.00  0.00    +0.000 OA
ENDROOT
BRANCH   5  10
ATOM     10  C   UNL     1      -6.893   3.548 129.447  0.00  0.00    +0.000 C 
ATOM     11  O   UNL     1      -5.994   3.070 130.133  0.00  0.00    +0.000 OA
ATOM     12  N   UNL     1      -7.141   3.107 128.158  0.00  0.00    +0.000 N 
ATOM     13  C   UNL     1      -7.247   1.677 127.890  0.00  0.00    +0.000 C 
ATOM     14  C   UNL     1      -6.236   1.223 126.853  0.00  0.00    +0.000 C 
ATOM     15  C   UNL     1      -6.320   2.089 125.577  0.00  0.00    +0.000 C 
ATOM     16  C   UNL     1      -6.154   3.570 125.941  0.00  0.00    +0.000 C 
ATOM     17  C   UNL     1      -7.122   4.021 127.021  0.00  0.00    +0.000 C 
BRANCH  15  18
ATOM     18  N   UNL     1      -7.507   1.751 124.721  0.00  0.00    +0.000 N 
ATOM     19  C   UNL     1      -8.571   2.621 124.475  0.00  0.00    +0.000 C 
ATOM     20  O   UNL     1      -8.527   3.802 124.152  0.00  0.00    +0.000 OA
ATOM     21  O   UNL     1      -9.784   2.060 124.703  0.00  0.00    +0.000 OA
ATOM     22  C   UNL     1     -10.056   1.076 123.730  0.00  0.00    +0.000 C 
ATOM     23  C   UNL     1      -8.915   0.115 123.617  0.00  0.00    +0.000 A 
ATOM     24  C   UNL     1      -9.120  -1.100 122.959  0.00  0.00    +0.000 A 
ATOM     25  C   UNL     1      -8.069  -1.993 122.819  0.00  0.00    +0.000 A 
ATOM     26  C   UNL     1      -6.813  -1.670 123.326  0.00  0.00    +0.000 A 
ATOM     27  C   UNL     1      -6.602  -0.455 123.986  0.00  0.00    +0.000 A 
ATOM     28  C   UNL     1      -7.653   0.451 124.143  0.00  0.00    +0.000 A 
ENDBRANCH  15  18
ENDBRANCH   5  10
BRANCH   1  29
ATOM     29  C   UNL     1     -13.154   7.222 131.308  0.00  0.00    +0.000 C 
BRANCH  29  32
ATOM     30  O   UNL     1     -12.908  10.698 130.432  0.00  0.00    +0.000 OA
ATOM     31  C   UNL     1     -13.150   9.510 130.225  0.00  0.00    +0.000 C 
ATOM     32  N   UNL     1     -12.995   8.663 131.276  0.00  0.00    +0.000 N 
ATOM     33  H   UNL     1     -12.680   9.143 132.112  0.00  0.00    +0.000 HD
BRANCH  31  34
ATOM     34  C   UNL     1     -13.616   8.932 128.894  0.00  0.00    +0.000 C 
BRANCH  34  35
ATOM     35  C   UNL     1     -12.537   8.268 128.074  0.00  0.00    +0.000 A 
ATOM     36  C   UNL     1     -11.184   8.605 128.191  0.00  0.00    +0.000 A 
ATOM     37  C   UNL     1     -10.228   7.932 127.443  0.00  0.00    +0.000 A 
ATOM     38  C   UNL     1     -10.660   6.969 126.553  0.00  0.00    +0.000 A 
ATOM     39  N   UNL     1     -11.958   6.650 126.361  0.00  0.00    +0.000 NA
ATOM     40  C   UNL     1     -12.864   7.305 127.124  0.00  0.00    +0.000 A 
ENDBRANCH  34  35
ENDBRANCH  31  34
ENDBRANCH  29  32
ENDBRANCH   1  29
TORSDOF 6
ENDMDL
MODEL 3
REMARK VINA RESULT:      -9.7      4.134      5.144
REMARK  Name = CHEMBL31163
REMARK  6 active torsions:
REMARK  status: ('A' for Active; 'I' for Inactive)
REMARK    1  A    between atoms: C_2  and  C_3
REMARK    2  A    between atoms: C_3  and  C_4
REMARK    3  A    between atoms: N_10  and  C_11
REMARK    4  A    between atoms: C_11  and  C_12
REMARK    5  A    between atoms: C_16  and  C_17
REMARK    6  A    between atoms: C_22  and  N_23
REMARK                            x       y       z     vdW  Elec       q    Type
REMARK                         _______ _______ _______ _____ _____    ______ ____
ROOT
ATOM      1  C   UNL     1      -8.852   4.310 132.868  0.00  0.00    +0.000 A 
ATOM      2  C   UNL     1      -9.246   3.344 131.967  0.00  0.00    +0.000 A 
ATOM      3  C   UNL     1      -8.487   2.187 132.236  0.00  0.00    +0.000 A 
ATOM      4  C   UNL     1      -8.441   0.889 131.694  0.00  0.00    +0.000 A 
ATOM      5  C   UNL     1      -7.518  -0.039 132.204  0.00  0.00    +0.000 A 
ATOM      6  C   UNL     1      -6.637   0.362 133.222  0.00  0.00    +0.000 A 
ATOM      7  C   UNL     1      -6.693   1.642 133.805  0.00  0.00    +0.000 A 
ATOM      8  C   UNL     1      -7.633   2.526 133.279  0.00  0.00    +0.000 A 
ATOM      9  O   UNL     1      -7.858   3.821 133.674  0.00  0.00    +0.000 OA
ENDROOT
BRANCH   5  10
ATOM     10  C   UNL     1      -7.452  -1.396 131.555  0.00  0.00    +0.000 C 
ATOM     11  O   UNL     1      -7.576  -2.413 132.231  0.00  0.00    +0.000 OA
ATOM     12  N   UNL     1      -7.349  -1.444 130.176  0.00  0.00    +0.000 N 
ATOM     13  C   UNL     1      -8.301  -2.237 129.405  0.00  0.00    +0.000 C 
ATOM     14  C   UNL     1      -7.603  -3.289 128.563  0.00  0.00    +0.000 C 
ATOM     15  C   UNL     1      -6.492  -2.661 127.694  0.00  0.00    +0.000 C 
ATOM     16  C   UNL     1      -5.512  -1.885 128.583  0.00  0.00    +0.000 C 
ATOM     17  C   UNL     1      -6.206  -0.869 129.475  0.00  0.00    +0.000 C 
BRANCH  15  18
ATOM     18  N   UNL     1      -7.034  -1.916 126.507  0.00  0.00    +0.000 N 
ATOM     19  C   UNL     1      -8.048  -0.960 126.575  0.00  0.00    +0.000 C 
ATOM     20  O   UNL     1      -8.158  -0.025 127.359  0.00  0.00    +0.000 OA
ATOM     21  O   UNL     1      -9.049  -1.176 125.686  0.00  0.00    +0.000 OA
ATOM     22  C   UNL     1      -8.592  -0.941 124.373  0.00  0.00    +0.000 C 
ATOM     23  C   UNL     1      -7.326  -1.693 124.110  0.00  0.00    +0.000 A 
ATOM     24  C   UNL     1      -6.898  -1.852 122.790  0.00  0.00    +0.000 A 
ATOM     25  C   UNL     1      -5.713  -2.522 122.526  0.00  0.00    +0.000 A 
ATOM     26  C   UNL     1      -4.951  -3.023 123.579  0.00  0.00    +0.000 A 
ATOM     27  C   UNL     1      -5.374  -2.866 124.903  0.00  0.00    +0.000 A 
ATOM     28  C   UNL     1      -6.570  -2.202 125.184  0.00  0.00    +0.000 A 
ENDBRANCH  15  18
ENDBRANCH   5  10
BRANCH   1  29
ATOM     29  C   UNL     1      -9.338   5.700 133.063  0.00  0.00    +0.000 C 
BRANCH  29  32
ATOM     30  O   UNL     1      -9.263   7.470 129.937  0.00  0.00    +0.000 OA
ATOM     31  C   UNL     1      -9.802   6.881 130.873  0.00  0.00    +0.000 C 
ATOM     32  N   UNL     1      -8.990   6.458 131.877  0.00  0.00    +0.000 N 
ATOM     33  H   UNL     1      -8.018   6.686 131.705  0.00  0.00    +0.000 HD
BRANCH  31  34
ATOM     34  C   UNL     1     -11.297   6.604 130.987  0.00  0.00    +0.000 C 
BRANCH  34  35
ATOM     35  C   UNL     1     -12.146   7.229 129.907  0.00  0.00    +0.000 A 
ATOM     36  C   UNL     1     -12.402   8.603 129.848  0.00  0.00    +0.000 A 
ATOM     37  C   UNL     1     -13.155   9.131 128.808  0.00  0.00    +0.000 A 
ATOM     38  C   UNL     1     -13.679   8.256 127.877  0.00  0.00    +0.000 A 
ATOM     39  N   UNL     1     -13.510   6.917 127.925  0.00  0.00    +0.000 NA
ATOM     40  C   UNL     1     -12.750   6.436 128.936  0.00  0.00    +0.000 A 
ENDBRANCH  34  35
ENDBRANCH  31  34
ENDBRANCH  29  32
ENDBRANCH   1  29
TORSDOF 6
ENDMDL
MODEL 4
REMARK VINA RESULT:      -9.4      7.167     11.239
REMARK  Name = CHEMBL31163
REMARK  6 active torsions:
REMARK  status: ('A' for Active; 'I' for Inactive)
REMARK    1  A    between atoms: C_2  and  C_3
REMARK    2  A    between atoms: C_3  and  C_4
REMARK    3  A    between atoms: N_10  and  C_11
REMARK    4  A    between atoms: C_11  and  C_12
REMARK    5  A    between atoms: C_16  and  C_17
REMARK    6  A    between atoms: C_22  and  N_23
REMARK                            x       y       z     vdW  Elec       q    Type
REMARK                         _______ _______ _______ _____ _____    ______ ____
ROOT
ATOM      1  C   UNL     1      -4.675   3.822 127.458  0.00  0.00    +0.000 A 
ATOM      2  C   UNL     1      -4.434   3.508 128.778  0.00  0.00    +0.000 A 
ATOM      3  C   UNL     1      -3.579   4.502 129.295  0.00  0.00    +0.000 A 
ATOM      4  C   UNL     1      -3.004   4.751 130.555  0.00  0.00    +0.000 A 
ATOM      5  C   UNL     1      -2.154   5.857 130.719  0.00  0.00    +0.000 A 
ATOM      6  C   UNL     1      -1.867   6.670 129.608  0.00  0.00    +0.000 A 
ATOM      7  C   UNL     1      -2.462   6.461 128.350  0.00  0.00    +0.000 A 
ATOM      8  C   UNL     1      -3.310   5.361 128.236  0.00  0.00    +0.000 A 
ATOM      9  O   UNL     1      -3.986   4.954 127.113  0.00  0.00    +0.000 OA
ENDROOT
BRANCH   5  10
ATOM     10  C   UNL     1      -1.505   6.055 132.063  0.00  0.00    +0.000 C 
ATOM     11  O   UNL     1      -1.088   5.091 132.698  0.00  0.00    +0.000 OA
ATOM     12  N   UNL     1      -1.312   7.355 132.497  0.00  0.00    +0.000 N 
ATOM     13  C   UNL     1       0.016   7.789 132.918  0.00  0.00    +0.000 C 
ATOM     14  C   UNL     1       0.013   8.300 134.347  0.00  0.00    +0.000 C 
ATOM     15  C   UNL     1      -1.071   9.380 134.550  0.00  0.00    +0.000 C 
ATOM     16  C   UNL     1      -2.440   8.830 134.128  0.00  0.00    +0.000 C 
ATOM     17  C   UNL     1      -2.434   8.261 132.719  0.00  0.00    +0.000 C 
BRANCH  15  18
ATOM     18  N   UNL     1      -0.687  10.709 133.963  0.00  0.00    +0.000 N 
ATOM     19  C   UNL     1      -1.470  11.423 133.055  0.00  0.00    +0.000 C 
ATOM     20  O   UNL     1      -2.670  11.663 133.113  0.00  0.00    +0.000 OA
ATOM     21  O   UNL     1      -0.786  11.818 131.954  0.00  0.00    +0.000 OA
ATOM     22  C   UNL     1       0.148  12.819 132.295  0.00  0.00    +0.000 C 
ATOM     23  C   UNL     1       0.990  12.384 133.452  0.00  0.00    +0.000 A 
ATOM     24  C   UNL     1       2.169  13.081 133.728  0.00  0.00    +0.000 A 
ATOM     25  C   UNL     1       2.949  12.711 134.812  0.00  0.00    +0.000 A 
ATOM     26  C   UNL     1       2.548  11.655 135.626  0.00  0.00    +0.000 A 
ATOM     27  C   UNL     1       1.369  10.955 135.356  0.00  0.00    +0.000 A 
ATOM     28  C   UNL     1       0.577  11.309 134.262  0.00  0.00    +0.000 A 
ENDBRANCH  15  18
ENDBRANCH   5  10
BRANCH   1  29
ATOM     29  C   UNL     1      -5.527   3.144 126.448  0.00  0.00    +0.000 C 
BRANCH  29  32
ATOM     30  O   UNL     1      -8.647   4.620 125.446  0.00  0.00    +0.000 OA
ATOM     31  C   UNL     1      -7.709   3.829 125.361  0.00  0.00    +0.000 C 
ATOM     32  N   UNL     1      -6.756   3.904 126.327  0.00  0.00    +0.000 N 
ATOM     33  H   UNL     1      -6.953   4.634 127.003  0.00  0.00    +0.000 HD
BRANCH  31  34
ATOM     34  C   UNL     1      -7.547   2.779 124.268  0.00  0.00    +0.000 C 
BRANCH  34  35
ATOM     35  C   UNL     1      -7.056   3.307 122.942  0.00  0.00    +0.000 A 
ATOM     36  C   UNL     1      -5.767   3.818 122.763  0.00  0.00    +0.000 A 
ATOM     37  C   UNL     1      -5.352   4.251 121.511  0.00  0.00    +0.000 A 
ATOM     38  C   UNL     1      -6.265   4.211 120.475  0.00  0.00    +0.000 A 
ATOM     39  N   UNL     1      -7.539   3.782 120.612  0.00  0.00    +0.000 NA
ATOM     40  C   UNL     1      -7.904   3.342 121.839  0.00  0.00    +0.000 A 
ENDBRANCH  34  35
ENDBRANCH  31  34
ENDBRANCH  29  32
ENDBRANCH   1  29
TORSDOF 6
ENDMDL
MODEL 5
REMARK VINA RESULT:      -9.1      5.230      9.733
REMARK  Name = CHEMBL31163
REMARK  6 active torsions:
REMARK  status: ('A' for Active; 'I' for Inactive)
REMARK    1  A    between atoms: C_2  and  C_3
REMARK    2  A    between atoms: C_3  and  C_4
REMARK    3  A    between atoms: N_10  and  C_11
REMARK    4  A    between atoms: C_11  and  C_12
REMARK    5  A    between atoms: C_16  and  C_17
REMARK    6  A    between atoms: C_22  and  N_23
REMARK                            x       y       z     vdW  Elec       q    Type
REMARK                         _______ _______ _______ _____ _____    ______ ____
ROOT
ATOM      1  C   UNL     1      -8.027  -2.060 124.265  0.00  0.00    +0.000 A 
ATOM      2  C   UNL     1      -6.998  -1.746 125.126  0.00  0.00    +0.000 A 
ATOM      3  C   UNL     1      -7.299  -2.337 126.370  0.00  0.00    +0.000 A 
ATOM      4  C   UNL     1      -6.646  -2.400 127.616  0.00  0.00    +0.000 A 
ATOM      5  C   UNL     1      -7.261  -3.076 128.682  0.00  0.00    +0.000 A 
ATOM      6  C   UNL     1      -8.533  -3.643 128.491  0.00  0.00    +0.000 A 
ATOM      7  C   UNL     1      -9.184  -3.625 127.243  0.00  0.00    +0.000 A 
ATOM      8  C   UNL     1      -8.532  -2.957 126.209  0.00  0.00    +0.000 A 
ATOM      9  O   UNL     1      -8.977  -2.798 124.920  0.00  0.00    +0.000 OA
ENDROOT
BRANCH   5  10
ATOM     10  C   UNL     1      -6.565  -3.067 130.017  0.00  0.00    +0.000 C 
ATOM     11  O   UNL     1      -5.949  -4.057 130.402  0.00  0.00    +0.000 OA
ATOM     12  N   UNL     1      -6.565  -1.883 130.733  0.00  0.00    +0.000 N 
ATOM     13  C   UNL     1      -5.303  -1.322 131.205  0.00  0.00    +0.000 C 
ATOM     14  C   UNL     1      -5.294  -1.149 132.713  0.00  0.00    +0.000 C 
ATOM     15  C   UNL     1      -6.529  -0.354 133.190  0.00  0.00    +0.000 C 
ATOM     16  C   UNL     1      -7.810  -1.033 132.691  0.00  0.00    +0.000 C 
ATOM     17  C   UNL     1      -7.806  -1.265 131.190  0.00  0.00    +0.000 C 
BRANCH  15  18
ATOM     18  N   UNL     1      -6.415   1.118 132.914  0.00  0.00    +0.000 N 
ATOM     19  C   UNL     1      -7.499   1.952 132.633  0.00  0.00    +0.000 C 
ATOM     20  O   UNL     1      -8.571   2.026 133.221  0.00  0.00    +0.000 OA
ATOM     21  O   UNL     1      -7.322   2.704 131.519  0.00  0.00    +0.000 OA
ATOM     22  C   UNL     1      -6.328   3.679 131.745  0.00  0.00    +0.000 C 
ATOM     23  C   UNL     1      -5.089   3.054 132.302  0.00  0.00    +0.000 A 
ATOM     24  C   UNL     1      -3.899   3.786 132.286  0.00  0.00    +0.000 A 
ATOM     25  C   UNL     1      -2.745   3.235 132.823  0.00  0.00    +0.000 A 
ATOM     26  C   UNL     1      -2.781   1.961 133.383  0.00  0.00    +0.000 A 
ATOM     27  C   UNL     1      -3.970   1.224 133.402  0.00  0.00    +0.000 A 
ATOM     28  C   UNL     1      -5.138   1.761 132.858  0.00  0.00    +0.000 A 
ENDBRANCH  15  18
ENDBRANCH   5  10
BRANCH   1  29
ATOM     29  C   UNL     1      -8.215  -1.731 122.829  0.00  0.00    +0.000 C 
BRANCH  29  32
ATOM     30  O   UNL     1     -11.015   0.517 122.694  0.00  0.00    +0.000 OA
ATOM     31  C   UNL     1      -9.826   0.221 122.807  0.00  0.00    +0.000 C 
ATOM     32  N   UNL     1      -9.511  -1.095 122.689  0.00  0.00    +0.000 N 
ATOM     33  H   UNL     1     -10.328  -1.672 122.527  0.00  0.00    +0.000 HD
BRANCH  31  34
ATOM     34  C   UNL     1      -8.698   1.215 123.058  0.00  0.00    +0.000 C 
BRANCH  34  35
ATOM     35  C   UNL     1      -8.388   1.475 124.512  0.00  0.00    +0.000 A 
ATOM     36  C   UNL     1      -7.150   1.962 124.944  0.00  0.00    +0.000 A 
ATOM     37  C   UNL     1      -6.932   2.225 126.290  0.00  0.00    +0.000 A 
ATOM     38  C   UNL     1      -7.949   1.940 127.179  0.00  0.00    +0.000 A 
ATOM     39  N   UNL     1      -9.139   1.414 126.818  0.00  0.00    +0.000 NA
ATOM     40  C   UNL     1      -9.330   1.194 125.497  0.00  0.00    +0.000 A 
ENDBRANCH  34  35
ENDBRANCH  31  34
ENDBRANCH  29  32
ENDBRANCH   1  29
TORSDOF 6
ENDMDL
MODEL 6
REMARK VINA RESULT:      -9.1      4.281      5.744
REMARK  Name = CHEMBL31163
REMARK  6 active torsions:
REMARK  status: ('A' for Active; 'I' for Inactive)
REMARK    1  A    between atoms: C_2  and  C_3
REMARK    2  A    between atoms: C_3  and  C_4
REMARK    3  A    between atoms: N_10  and  C_11
REMARK    4  A    between atoms: C_11  and  C_12
REMARK    5  A    between atoms: C_16  and  C_17
REMARK    6  A    between atoms: C_22  and  N_23
REMARK                            x       y       z     vdW  Elec       q    Type
REMARK                         _______ _______ _______ _____ _____    ______ ____
ROOT
ATOM      1  C   UNL     1      -8.193   3.830 133.639  0.00  0.00    +0.000 A 
ATOM      2  C   UNL     1      -8.735   2.947 132.731  0.00  0.00    +0.000 A 
ATOM      3  C   UNL     1      -7.977   1.760 132.798  0.00  0.00    +0.000 A 
ATOM      4  C   UNL     1      -8.041   0.510 132.155  0.00  0.00    +0.000 A 
ATOM      5  C   UNL     1      -7.081  -0.470 132.455  0.00  0.00    +0.000 A 
ATOM      6  C   UNL     1      -6.055  -0.166 133.366  0.00  0.00    +0.000 A 
ATOM      7  C   UNL     1      -5.995   1.063 134.049  0.00  0.00    +0.000 A 
ATOM      8  C   UNL     1      -6.975   2.001 133.732  0.00  0.00    +0.000 A 
ATOM      9  O   UNL     1      -7.109   3.263 134.255  0.00  0.00    +0.000 OA
ENDROOT
BRANCH   5  10
ATOM     10  C   UNL     1      -7.142  -1.771 131.700  0.00  0.00    +0.000 C 
ATOM     11  O   UNL     1      -7.297  -2.830 132.301  0.00  0.00    +0.000 OA
ATOM     12  N   UNL     1      -7.119  -1.713 130.318  0.00  0.00    +0.000 N 
ATOM     13  C   UNL     1      -8.163  -2.379 129.546  0.00  0.00    +0.000 C 
ATOM     14  C   UNL     1      -7.586  -3.401 128.584  0.00  0.00    +0.000 C 
ATOM     15  C   UNL     1      -6.485  -2.774 127.701  0.00  0.00    +0.000 C 
ATOM     16  C   UNL     1      -5.407  -2.137 128.587  0.00  0.00    +0.000 C 
ATOM     17  C   UNL     1      -5.980  -1.155 129.595  0.00  0.00    +0.000 C 
BRANCH  15  18
ATOM     18  N   UNL     1      -7.039  -1.903 126.610  0.00  0.00    +0.000 N 
ATOM     19  C   UNL     1      -7.987  -0.898 126.812  0.00  0.00    +0.000 C 
ATOM     20  O   UNL     1      -7.998  -0.028 127.674  0.00  0.00    +0.000 OA
ATOM     21  O   UNL     1      -9.044  -0.982 125.967  0.00  0.00    +0.000 OA
ATOM     22  C   UNL     1      -8.642  -0.663 124.653  0.00  0.00    +0.000 C 
ATOM     23  C   UNL     1      -7.440  -1.462 124.260  0.00  0.00    +0.000 A 
ATOM     24  C   UNL     1      -7.091  -1.534 122.909  0.00  0.00    +0.000 A 
ATOM     25  C   UNL     1      -5.965  -2.247 122.526  0.00  0.00    +0.000 A 
ATOM     26  C   UNL     1      -5.183  -2.877 123.490  0.00  0.00    +0.000 A 
ATOM     27  C   UNL     1      -5.527  -2.807 124.843  0.00  0.00    +0.000 A 
ATOM     28  C   UNL     1      -6.663  -2.102 125.244  0.00  0.00    +0.000 A 
ENDBRANCH  15  18
ENDBRANCH   5  10
BRANCH   1  29
ATOM     29  C   UNL     1      -8.610   5.207 134.008  0.00  0.00    +0.000 C 
BRANCH  29  32
ATOM     30  O   UNL     1     -11.277   6.297 131.861  0.00  0.00    +0.000 OA
ATOM     31  C   UNL     1     -10.102   6.153 132.196  0.00  0.00    +0.000 C 
ATOM     32  N   UNL     1      -9.874   5.476 133.351  0.00  0.00    +0.000 N 
ATOM     33  H   UNL     1     -10.735   5.181 133.798  0.00  0.00    +0.000 HD
BRANCH  31  34
ATOM     34  C   UNL     1      -8.901   6.667 131.410  0.00  0.00    +0.000 C 
BRANCH  34  35
ATOM     35  C   UNL     1      -8.316   5.686 130.424  0.00  0.00    +0.000 A 
ATOM     36  C   UNL     1      -6.962   5.334 130.422  0.00  0.00    +0.000 A 
ATOM     37  C   UNL     1      -6.485   4.393 129.520  0.00  0.00    +0.000 A 
ATOM     38  C   UNL     1      -7.372   3.865 128.602  0.00  0.00    +0.000 A 
ATOM     39  N   UNL     1      -8.674   4.218 128.526  0.00  0.00    +0.000 NA
ATOM     40  C   UNL     1      -9.114   5.118 129.436  0.00  0.00    +0.000 A 
ENDBRANCH  34  35
ENDBRANCH  31  34
ENDBRANCH  29  32
ENDBRANCH   1  29
TORSDOF 6
ENDMDL
MODEL 7
REMARK VINA RESULT:      -9.0      5.415      9.773
REMARK  Name = CHEMBL31163
REMARK  6 active torsions:
REMARK  status: ('A' for Active; 'I' for Inactive)
REMARK    1  A    between atoms: C_2  and  C_3
REMARK    2  A    between atoms: C_3  and  C_4
REMARK    3  A    between atoms: N_10  and  C_11
REMARK    4  A    between atoms: C_11  and  C_12
REMARK    5  A    between atoms: C_16  and  C_17
REMARK    6  A    between atoms: C_22  and  N_23
REMARK                            x       y       z     vdW  Elec       q    Type
REMARK                         _______ _______ _______ _____ _____    ______ ____
ROOT
ATOM      1  C   UNL     1      -7.894  -1.635 124.491  0.00  0.00    +0.000 A 
ATOM      2  C   UNL     1      -7.271  -1.002 125.545  0.00  0.00    +0.000 A 
ATOM      3  C   UNL     1      -7.586  -1.726 126.713  0.00  0.00    +0.000 A 
ATOM      4  C   UNL     1      -7.242  -1.603 128.072  0.00  0.00    +0.000 A 
ATOM      5  C   UNL     1      -7.769  -2.515 129.001  0.00  0.00    +0.000 A 
ATOM      6  C   UNL     1      -8.658  -3.508 128.556  0.00  0.00    +0.000 A 
ATOM      7  C   UNL     1      -8.983  -3.672 127.197  0.00  0.00    +0.000 A 
ATOM      8  C   UNL     1      -8.427  -2.755 126.307  0.00  0.00    +0.000 A 
ATOM      9  O   UNL     1      -8.611  -2.709 124.948  0.00  0.00    +0.000 OA
ENDROOT
BRANCH   5  10
ATOM     10  C   UNL     1      -7.433  -2.314 130.455  0.00  0.00    +0.000 C 
ATOM     11  O   UNL     1      -7.235  -3.281 131.185  0.00  0.00    +0.000 OA
ATOM     12  N   UNL     1      -7.260  -1.015 130.900  0.00  0.00    +0.000 N 
ATOM     13  C   UNL     1      -6.037  -0.648 131.607  0.00  0.00    +0.000 C 
ATOM     14  C   UNL     1      -6.331  -0.094 132.989  0.00  0.00    +0.000 C 
ATOM     15  C   UNL     1      -7.361   1.055 132.920  0.00  0.00    +0.000 C 
ATOM     16  C   UNL     1      -8.630   0.574 132.205  0.00  0.00    +0.000 C 
ATOM     17  C   UNL     1      -8.341  -0.037 130.844  0.00  0.00    +0.000 C 
BRANCH  15  18
ATOM     18  N   UNL     1      -6.768   2.339 132.415  0.00  0.00    +0.000 N 
ATOM     19  C   UNL     1      -6.254   2.515 131.129  0.00  0.00    +0.000 C 
ATOM     20  O   UNL     1      -6.756   2.190 130.060  0.00  0.00    +0.000 OA
ATOM     21  O   UNL     1      -5.010   3.053 131.119  0.00  0.00    +0.000 OA
ATOM     22  C   UNL     1      -5.059   4.399 131.538  0.00  0.00    +0.000 C 
ATOM     23  C   UNL     1      -5.803   4.525 132.830  0.00  0.00    +0.000 A 
ATOM     24  C   UNL     1      -5.682   5.706 133.566  0.00  0.00    +0.000 A 
ATOM     25  C   UNL     1      -6.384   5.853 134.752  0.00  0.00    +0.000 A 
ATOM     26  C   UNL     1      -7.214   4.827 135.197  0.00  0.00    +0.000 A 
ATOM     27  C   UNL     1      -7.339   3.643 134.465  0.00  0.00    +0.000 A 
ATOM     28  C   UNL     1      -6.631   3.476 133.273  0.00  0.00    +0.000 A 
ENDBRANCH  15  18
ENDBRANCH   5  10
BRANCH   1  29
ATOM     29  C   UNL     1      -7.879  -1.327 123.039  0.00  0.00    +0.000 C 
BRANCH  29  32
ATOM     30  O   UNL     1     -10.961   0.445 122.515  0.00  0.00    +0.000 OA
ATOM     31  C   UNL     1      -9.792   0.323 122.879  0.00  0.00    +0.000 C 
ATOM     32  N   UNL     1      -9.210  -0.886 122.668  0.00  0.00    +0.000 N 
ATOM     33  H   UNL     1      -9.845  -1.547 122.234  0.00  0.00    +0.000 HD
BRANCH  31  34
ATOM     34  C   UNL     1      -8.960   1.421 123.531  0.00  0.00    +0.000 C 
BRANCH  34  35
ATOM     35  C   UNL     1      -8.189   2.293 122.571  0.00  0.00    +0.000 A 
ATOM     36  C   UNL     1      -6.795   2.402 122.602  0.00  0.00    +0.000 A 
ATOM     37  C   UNL     1      -6.132   3.185 121.667  0.00  0.00    +0.000 A 
ATOM     38  C   UNL     1      -6.892   3.886 120.753  0.00  0.00    +0.000 A 
ATOM     39  N   UNL     1      -8.242   3.861 120.720  0.00  0.00    +0.000 NA
ATOM     40  C   UNL     1      -8.857   3.068 121.627  0.00  0.00    +0.000 A 
ENDBRANCH  34  35
ENDBRANCH  31  34
ENDBRANCH  29  32
ENDBRANCH   1  29
TORSDOF 6
ENDMDL
MODEL 8
REMARK VINA RESULT:      -8.9      5.035      9.906
REMARK  Name = CHEMBL31163
REMARK  6 active torsions:
REMARK  status: ('A' for Active; 'I' for Inactive)
REMARK    1  A    between atoms: C_2  and  C_3
REMARK    2  A    between atoms: C_3  and  C_4
REMARK    3  A    between atoms: N_10  and  C_11
REMARK    4  A    between atoms: C_11  and  C_12
REMARK    5  A    between atoms: C_16  and  C_17
REMARK    6  A    between atoms: C_22  and  N_23
REMARK                            x       y       z     vdW  Elec       q    Type
REMARK                         _______ _______ _______ _____ _____    ______ ____
ROOT
ATOM      1  C   UNL     1      -6.768  -2.368 133.495  0.00  0.00    +0.000 A 
ATOM      2  C   UNL     1      -6.100  -1.218 133.857  0.00  0.00    +0.000 A 
ATOM      3  C   UNL     1      -6.814  -0.131 133.311  0.00  0.00    +0.000 A 
ATOM      4  C   UNL     1      -6.659   1.267 133.345  0.00  0.00    +0.000 A 
ATOM      5  C   UNL     1      -7.571   2.079 132.650  0.00  0.00    +0.000 A 
ATOM      6  C   UNL     1      -8.597   1.472 131.905  0.00  0.00    +0.000 A 
ATOM      7  C   UNL     1      -8.792   0.079 131.890  0.00  0.00    +0.000 A 
ATOM      8  C   UNL     1      -7.874  -0.688 132.605  0.00  0.00    +0.000 A 
ATOM      9  O   UNL     1      -7.855  -2.055 132.722  0.00  0.00    +0.000 OA
ENDROOT
BRANCH   5  10
ATOM     10  C   UNL     1      -7.337   3.566 132.655  0.00  0.00    +0.000 C 
ATOM     11  O   UNL     1      -6.402   4.044 133.291  0.00  0.00    +0.000 OA
ATOM     12  N   UNL     1      -8.143   4.345 131.844  0.00  0.00    +0.000 N 
ATOM     13  C   UNL     1      -7.537   5.270 130.892  0.00  0.00    +0.000 C 
ATOM     14  C   UNL     1      -7.988   6.699 131.132  0.00  0.00    +0.000 C 
ATOM     15  C   UNL     1      -9.529   6.797 131.176  0.00  0.00    +0.000 C 
ATOM     16  C   UNL     1     -10.082   5.829 132.230  0.00  0.00    +0.000 C 
ATOM     17  C   UNL     1      -9.589   4.405 132.036  0.00  0.00    +0.000 C 
BRANCH  15  18
ATOM     18  N   UNL     1     -10.157   6.714 129.814  0.00  0.00    +0.000 N 
ATOM     19  C   UNL     1      -9.729   5.852 128.803  0.00  0.00    +0.000 C 
ATOM     20  O   UNL     1      -9.468   4.658 128.884  0.00  0.00    +0.000 OA
ATOM     21  O   UNL     1      -9.525   6.477 127.617  0.00  0.00    +0.000 OA
ATOM     22  C   UNL     1     -10.757   6.891 127.068  0.00  0.00    +0.000 C 
ATOM     23  C   UNL     1     -11.551   7.663 128.072  0.00  0.00    +0.000 A 
ATOM     24  C   UNL     1     -12.635   8.427 127.631  0.00  0.00    +0.000 A 
ATOM     25  C   UNL     1     -13.401   9.128 128.550  0.00  0.00    +0.000 A 
ATOM     26  C   UNL     1     -13.094   9.058 129.906  0.00  0.00    +0.000 A 
ATOM     27  C   UNL     1     -12.011   8.294 130.353  0.00  0.00    +0.000 A 
ATOM     28  C   UNL     1     -11.224   7.590 129.440  0.00  0.00    +0.000 A 
ENDBRANCH  15  18
ENDBRANCH   5  10
BRANCH   1  29
ATOM     29  C   UNL     1      -6.483  -3.789 133.821  0.00  0.00    +0.000 C 
BRANCH  29  32
ATOM     30  O   UNL     1      -3.218  -4.671 132.609  0.00  0.00    +0.000 OA
ATOM     31  C   UNL     1      -4.437  -4.530 132.528  0.00  0.00    +0.000 C 
ATOM     32  N   UNL     1      -5.065  -4.012 133.616  0.00  0.00    +0.000 N 
ATOM     33  H   UNL     1      -4.421  -3.815 134.373  0.00  0.00    +0.000 HD
BRANCH  31  34
ATOM     34  C   UNL     1      -5.279  -4.883 131.307  0.00  0.00    +0.000 C 
BRANCH  34  35
ATOM     35  C   UNL     1      -5.742  -3.703 130.489  0.00  0.00    +0.000 A 
ATOM     36  C   UNL     1      -6.994  -3.660 129.867  0.00  0.00    +0.000 A 
ATOM     37  C   UNL     1      -7.388  -2.531 129.162  0.00  0.00    +0.000 A 
ATOM     38  C   UNL     1      -6.489  -1.488 129.052  0.00  0.00    +0.000 A 
ATOM     39  N   UNL     1      -5.247  -1.507 129.584  0.00  0.00    +0.000 NA
ATOM     40  C   UNL     1      -4.904  -2.610 130.288  0.00  0.00    +0.000 A 
ENDBRANCH  34  35
ENDBRANCH  31  34
ENDBRANCH  29  32
ENDBRANCH   1  29
TORSDOF 6
ENDMDL
MODEL 9
REMARK VINA RESULT:      -8.9      5.211      9.347
REMARK  Name = CHEMBL31163
REMARK  6 active torsions:
REMARK  status: ('A' for Active; 'I' for Inactive)
REMARK    1  A    between atoms: C_2  and  C_3
REMARK    2  A    between atoms: C_3  and  C_4
REMARK    3  A    between atoms: N_10  and  C_11
REMARK    4  A    between atoms: C_11  and  C_12
REMARK    5  A    between atoms: C_16  and  C_17
REMARK    6  A    between atoms: C_22  and  N_23
REMARK                            x       y       z     vdW  Elec       q    Type
REMARK                         _______ _______ _______ _____ _____    ______ ____
ROOT
ATOM      1  C   UNL     1      -6.611  -2.652 125.764  0.00  0.00    +0.000 A 
ATOM      2  C   UNL     1      -5.730  -1.817 126.417  0.00  0.00    +0.000 A 
ATOM      3  C   UNL     1      -6.166  -1.713 127.754  0.00  0.00    +0.000 A 
ATOM      4  C   UNL     1      -5.690  -1.045 128.898  0.00  0.00    +0.000 A 
ATOM      5  C   UNL     1      -6.407  -1.143 130.101  0.00  0.00    +0.000 A 
ATOM      6  C   UNL     1      -7.604  -1.878 130.127  0.00  0.00    +0.000 A 
ATOM      7  C   UNL     1      -8.076  -2.586 129.005  0.00  0.00    +0.000 A 
ATOM      8  C   UNL     1      -7.327  -2.473 127.836  0.00  0.00    +0.000 A 
ATOM      9  O   UNL     1      -7.598  -3.056 126.623  0.00  0.00    +0.000 OA
ENDROOT
BRANCH   5  10
ATOM     10  C   UNL     1      -5.904  -0.363 131.287  0.00  0.00    +0.000 C 
ATOM     11  O   UNL     1      -5.642  -0.936 132.340  0.00  0.00    +0.000 OA
ATOM     12  N   UNL     1      -5.658   0.987 131.109  0.00  0.00    +0.000 N 
ATOM     13  C   UNL     1      -4.356   1.540 131.469  0.00  0.00    +0.000 C 
ATOM     14  C   UNL     1      -4.483   2.650 132.497  0.00  0.00    +0.000 C 
ATOM     15  C   UNL     1      -5.493   3.724 132.037  0.00  0.00    +0.000 C 
ATOM     16  C   UNL     1      -6.843   3.067 131.722  0.00  0.00    +0.000 C 
ATOM     17  C   UNL     1      -6.721   1.915 130.738  0.00  0.00    +0.000 C 
BRANCH  15  18
ATOM     18  N   UNL     1      -4.938   4.627 130.973  0.00  0.00    +0.000 N 
ATOM     19  C   UNL     1      -5.601   4.945 129.786  0.00  0.00    +0.000 C 
ATOM     20  O   UNL     1      -6.766   5.292 129.638  0.00  0.00    +0.000 OA
ATOM     21  O   UNL     1      -4.837   4.762 128.681  0.00  0.00    +0.000 OA
ATOM     22  C   UNL     1      -3.807   5.724 128.639  0.00  0.00    +0.000 C 
ATOM     23  C   UNL     1      -3.062   5.760 129.935  0.00  0.00    +0.000 A 
ATOM     24  C   UNL     1      -1.821   6.399 129.982  0.00  0.00    +0.000 A 
ATOM     25  C   UNL     1      -1.127   6.467 131.180  0.00  0.00    +0.000 A 
ATOM     26  C   UNL     1      -1.675   5.908 132.331  0.00  0.00    +0.000 A 
ATOM     27  C   UNL     1      -2.917   5.267 132.290  0.00  0.00    +0.000 A 
ATOM     28  C   UNL     1      -3.624   5.182 131.089  0.00  0.00    +0.000 A 
ENDBRANCH  15  18
ENDBRANCH   5  10
BRANCH   1  29
ATOM     29  C   UNL     1      -6.617  -3.136 124.360  0.00  0.00    +0.000 C 
BRANCH  29  32
ATOM     30  O   UNL     1     -10.030  -3.080 123.238  0.00  0.00    +0.000 OA
ATOM     31  C   UNL     1      -8.899  -2.621 123.395  0.00  0.00    +0.000 C 
ATOM     32  N   UNL     1      -7.990  -3.429 124.000  0.00  0.00    +0.000 N 
ATOM     33  H   UNL     1      -8.386  -4.326 124.257  0.00  0.00    +0.000 HD
BRANCH  31  34
ATOM     34  C   UNL     1      -8.451  -1.232 122.955  0.00  0.00    +0.000 C 
BRANCH  34  35
ATOM     35  C   UNL     1      -8.451  -0.187 124.043  0.00  0.00    +0.000 A 
ATOM     36  C   UNL     1      -9.198  -0.318 125.218  0.00  0.00    +0.000 A 
ATOM     37  C   UNL     1      -9.127   0.654 126.206  0.00  0.00    +0.000 A 
ATOM     38  C   UNL     1      -8.344   1.766 125.967  0.00  0.00    +0.000 A 
ATOM     39  N   UNL     1      -7.652   1.967 124.825  0.00  0.00    +0.000 NA
ATOM     40  C   UNL     1      -7.721   0.989 123.892  0.00  0.00    +0.000 A 
ENDBRANCH  34  35
ENDBRANCH  31  34
ENDBRANCH  29  32
ENDBRANCH   1  29
TORSDOF 6
ENDMDL
