MODEL 1
REMARK VINA RESULT:      -8.8      0.000      0.000
REMARK  Name = CHEMBL25067
REMARK  12 active torsions:
REMARK  status: ('A' for Active; 'I' for Inactive)
REMARK    1  A    between atoms: C_1  and  C_2
REMARK    2  A    between atoms: C_2  and  C_4
REMARK    3  A    between atoms: C_4  and  C_5
REMARK    4  A    between atoms: C_5  and  C_6
REMARK    5  A    between atoms: C_6  and  C_7
REMARK    6  A    between atoms: N_9  and  C_10
REMARK    7  A    between atoms: C_12  and  C_13
REMARK    8  A    between atoms: N_25  and  C_26
REMARK    9  A    between atoms: C_26  and  C_27
REMARK   10  A    between atoms: N_29  and  C_30
REMARK   11  A    between atoms: C_30  and  C_31
REMARK   12  A    between atoms: C_31  and  C_32
REMARK                            x       y       z     vdW  Elec       q    Type
REMARK                         _______ _______ _______ _____ _____    ______ ____
ROOT
ATOM      1  C   UNL     1      -7.680   4.246 129.077  0.00  0.00    +0.000 C 
ATOM      2  N   UNL     1      -8.126   3.638 127.820  0.00  0.00    +0.000 NA
ATOM      3  C   UNL     1      -7.227   3.148 127.026  0.00  0.00    +0.000 C 
ATOM      4  C   UNL     1      -5.751   3.136 127.291  0.00  0.00    +0.000 A 
ATOM      5  C   UNL     1      -4.881   3.299 126.195  0.00  0.00    +0.000 A 
ATOM      6  C   UNL     1      -3.497   3.208 126.353  0.00  0.00    +0.000 A 
ATOM      7  C   UNL     1      -2.962   3.033 127.620  0.00  0.00    +0.000 A 
ATOM      8  C   UNL     1      -3.809   2.945 128.722  0.00  0.00    +0.000 A 
ATOM      9  C   UNL     1      -5.208   2.894 128.567  0.00  0.00    +0.000 A 
ATOM     10  N   UNL     1      -6.000   2.470 129.681  0.00  0.00    +0.000 N 
ATOM     11  C   UNL     1      -7.196   3.107 130.028  0.00  0.00    +0.000 C 
ATOM     12  O   UNL     1      -7.816   2.791 131.052  0.00  0.00    +0.000 OA
ENDROOT
BRANCH   3  13
ATOM     13  C   UNL     1      -7.700   2.530 125.745  0.00  0.00    +0.000 A 
ATOM     14  C   UNL     1      -7.687   1.142 125.569  0.00  0.00    +0.000 A 
ATOM     15  C   UNL     1      -8.043   0.598 124.329  0.00  0.00    +0.000 A 
ATOM     16  C   UNL     1      -8.497   1.429 123.303  0.00  0.00    +0.000 A 
ATOM     17  C   UNL     1      -8.610   2.802 123.519  0.00  0.00    +0.000 A 
ATOM     18  C   UNL     1      -8.166   3.360 124.719  0.00  0.00    +0.000 A 
ENDBRANCH   3  13
BRANCH   1  21
ATOM     19  C   UNL     1      -8.659   6.143 130.303  0.00  0.00    +0.000 C 
ATOM     20  O   UNL     1      -7.572   6.714 130.359  0.00  0.00    +0.000 OA
ATOM     21  N   UNL     1      -8.818   4.944 129.655  0.00  0.00    +0.000 N 
ATOM     22  H   UNL     1      -9.669   4.406 129.746  0.00  0.00    +0.000 HD
BRANCH  19  23
ATOM     23  C   UNL     1      -9.916   6.732 130.940  0.00  0.00    +0.000 C 
BRANCH  23  24
ATOM     24  C   UNL     1     -10.984   6.983 129.866  0.00  0.00    +0.000 C 
BRANCH  24  25
ATOM     25  C   UNL     1     -10.537   7.913 128.739  0.00  0.00    +0.000 C 
BRANCH  25  27
ATOM     26  C   UNL     1     -11.796   7.471 126.523  0.00  0.00    +0.000 C 
ATOM     27  C   UNL     1     -10.594   7.204 127.390  0.00  0.00    +0.000 C 
ATOM     28  O   UNL     1      -9.709   6.442 127.002  0.00  0.00    +0.000 OA
ENDBRANCH  25  27
ENDBRANCH  24  25
ENDBRANCH  23  24
ENDBRANCH  19  23
ENDBRANCH   1  21
BRANCH  10  29
ATOM     29  C   UNL     1      -5.557   1.336 130.528  0.00  0.00    +0.000 C 
BRANCH  29  30
ATOM     30  C   UNL     1      -5.519  -0.071 129.912  0.00  0.00    +0.000 C 
ATOM     31  O   UNL     1      -4.645  -0.900 130.195  0.00  0.00    +0.000 OA
ATOM     32  N   UNL     1      -6.502  -0.388 128.985  0.00  0.00    +0.000 N 
ATOM     33  H   UNL     1      -6.787   0.336 128.336  0.00  0.00    +0.000 HD
BRANCH  32  34
ATOM     34  C   UNL     1      -6.469  -1.767 128.549  0.00  0.00    +0.000 C 
BRANCH  34  35
ATOM     35  C   UNL     1      -5.912  -2.057 127.170  0.00  0.00    +0.000 C 
BRANCH  35  36
ATOM     36  C   UNL     1      -6.977  -2.427 126.147  0.00  0.00    +0.000 A 
ATOM     37  C   UNL     1      -8.309  -2.421 126.612  0.00  0.00    +0.000 A 
ATOM     38  C   UNL     1      -9.352  -2.914 125.824  0.00  0.00    +0.000 A 
ATOM     39  C   UNL     1      -9.110  -3.309 124.515  0.00  0.00    +0.000 A 
ATOM     40  C   UNL     1      -7.835  -3.179 123.987  0.00  0.00    +0.000 A 
ATOM     41  C   UNL     1      -6.767  -2.778 124.794  0.00  0.00    +0.000 A 
ATOM     42 CL   UNL     1      -5.254  -2.788 123.956  0.00  0.00    +0.000 Cl
ENDBRANCH  35  36
ENDBRANCH  34  35
ENDBRANCH  32  34
ENDBRANCH  29  30
ENDBRANCH  10  29
TORSDOF 11
ENDMDL
MODEL 2
REMARK VINA RESULT:      -8.8      4.266      7.728
REMARK  Name = CHEMBL25067
REMARK  12 active torsions:
REMARK  status: ('A' for Active; 'I' for Inactive)
REMARK    1  A    between atoms: C_1  and  C_2
REMARK    2  A    between atoms: C_2  and  C_4
REMARK    3  A    between atoms: C_4  and  C_5
REMARK    4  A    between atoms: C_5  and  C_6
REMARK    5  A    between atoms: C_6  and  C_7
REMARK    6  A    between atoms: N_9  and  C_10
REMARK    7  A    between atoms: C_12  and  C_13
REMARK    8  A    between atoms: N_25  and  C_26
REMARK    9  A    between atoms: C_26  and  C_27
REMARK   10  A    between atoms: N_29  and  C_30
REMARK   11  A    between atoms: C_30  and  C_31
REMARK   12  A    between atoms: C_31  and  C_32
REMARK                            x       y       z     vdW  Elec       q    Type
REMARK                         _______ _______ _______ _____ _____    ______ ____
ROOT
ATOM      1  C   UNL     1      -9.931   5.268 130.566  0.00  0.00    +0.000 C 
ATOM      2  N   UNL     1      -8.995   5.694 131.610  0.00  0.00    +0.000 NA
ATOM      3  C   UNL     1      -8.268   4.788 132.185  0.00  0.00    +0.000 C 
ATOM      4  C   UNL     1      -8.291   3.324 131.860  0.00  0.00    +0.000 A 
ATOM      5  C   UNL     1      -8.100   2.410 132.915  0.00  0.00    +0.000 A 
ATOM      6  C   UNL     1      -8.019   1.038 132.674  0.00  0.00    +0.000 A 
ATOM      7  C   UNL     1      -8.207   0.556 131.388  0.00  0.00    +0.000 A 
ATOM      8  C   UNL     1      -8.470   1.444 130.348  0.00  0.00    +0.000 A 
ATOM      9  C   UNL     1      -8.417   2.837 130.545  0.00  0.00    +0.000 A 
ATOM     10  N   UNL     1      -8.361   3.685 129.394  0.00  0.00    +0.000 N 
ATOM     11  C   UNL     1      -9.107   4.865 129.303  0.00  0.00    +0.000 C 
ATOM     12  O   UNL     1      -9.124   5.533 128.261  0.00  0.00    +0.000 OA
ENDROOT
BRANCH   3  13
ATOM     13  C   UNL     1      -7.317   5.241 133.251  0.00  0.00    +0.000 A 
ATOM     14  C   UNL     1      -5.973   5.491 132.954  0.00  0.00    +0.000 A 
ATOM     15  C   UNL     1      -5.085   5.820 133.987  0.00  0.00    +0.000 A 
ATOM     16  C   UNL     1      -5.558   5.987 135.289  0.00  0.00    +0.000 A 
ATOM     17  C   UNL     1      -6.917   5.841 135.561  0.00  0.00    +0.000 A 
ATOM     18  C   UNL     1      -7.789   5.421 134.556  0.00  0.00    +0.000 A 
ENDBRANCH   3  13
BRANCH   1  21
ATOM     19  C   UNL     1     -11.859   6.708 131.085  0.00  0.00    +0.000 C 
ATOM     20  O   UNL     1     -12.074   6.104 132.134  0.00  0.00    +0.000 OA
ATOM     21  N   UNL     1     -10.801   6.396 130.268  0.00  0.00    +0.000 N 
ATOM     22  H   UNL     1     -10.720   6.786 129.340  0.00  0.00    +0.000 HD
BRANCH  19  23
ATOM     23  C   UNL     1     -12.746   7.861 130.618  0.00  0.00    +0.000 C 
BRANCH  23  24
ATOM     24  C   UNL     1     -13.105   7.683 129.136  0.00  0.00    +0.000 C 
BRANCH  24  25
ATOM     25  C   UNL     1     -12.546   8.769 128.218  0.00  0.00    +0.000 C 
BRANCH  25  27
ATOM     26  C   UNL     1     -11.141   7.662 126.351  0.00  0.00    +0.000 C 
ATOM     27  C   UNL     1     -11.176   8.375 127.676  0.00  0.00    +0.000 C 
ATOM     28  O   UNL     1     -10.129   8.617 128.276  0.00  0.00    +0.000 OA
ENDBRANCH  25  27
ENDBRANCH  24  25
ENDBRANCH  23  24
ENDBRANCH  19  23
ENDBRANCH   1  21
BRANCH  10  29
ATOM     29  C   UNL     1      -7.512   3.320 128.234  0.00  0.00    +0.000 C 
BRANCH  29  30
ATOM     30  C   UNL     1      -6.122   3.962 128.109  0.00  0.00    +0.000 C 
ATOM     31  O   UNL     1      -5.912   4.971 127.425  0.00  0.00    +0.000 OA
ATOM     32  N   UNL     1      -5.074   3.350 128.782  0.00  0.00    +0.000 N 
ATOM     33  H   UNL     1      -5.058   2.336 128.803  0.00  0.00    +0.000 HD
BRANCH  32  34
ATOM     34  C   UNL     1      -3.830   4.084 128.715  0.00  0.00    +0.000 C 
BRANCH  34  35
ATOM     35  C   UNL     1      -3.028   4.229 129.992  0.00  0.00    +0.000 C 
BRANCH  35  36
ATOM     36  C   UNL     1      -3.081   5.627 130.591  0.00  0.00    +0.000 A 
ATOM     37  C   UNL     1      -4.041   6.500 130.038  0.00  0.00    +0.000 A 
ATOM     38  C   UNL     1      -4.067   7.855 130.377  0.00  0.00    +0.000 A 
ATOM     39  C   UNL     1      -3.218   8.343 131.361  0.00  0.00    +0.000 A 
ATOM     40  C   UNL     1      -2.371   7.471 132.027  0.00  0.00    +0.000 A 
ATOM     41  C   UNL     1      -2.270   6.135 131.632  0.00  0.00    +0.000 A 
ATOM     42 CL   UNL     1      -1.079   5.259 132.529  0.00  0.00    +0.000 Cl
ENDBRANCH  35  36
ENDBRANCH  34  35
ENDBRANCH  32  34
ENDBRANCH  29  30
ENDBRANCH  10  29
TORSDOF 11
ENDMDL
MODEL 3
REMARK VINA RESULT:      -8.3      3.421      5.613
REMARK  Name = CHEMBL25067
REMARK  12 active torsions:
REMARK  status: ('A' for Active; 'I' for Inactive)
REMARK    1  A    between atoms: C_1  and  C_2
REMARK    2  A    between atoms: C_2  and  C_4
REMARK    3  A    between atoms: C_4  and  C_5
REMARK    4  A    between atoms: C_5  and  C_6
REMARK    5  A    between atoms: C_6  and  C_7
REMARK    6  A    between atoms: N_9  and  C_10
REMARK    7  A    between atoms: C_12  and  C_13
REMARK    8  A    between atoms: N_25  and  C_26
REMARK    9  A    between atoms: C_26  and  C_27
REMARK   10  A    between atoms: N_29  and  C_30
REMARK   11  A    between atoms: C_30  and  C_31
REMARK   12  A    between atoms: C_31  and  C_32
REMARK                            x       y       z     vdW  Elec       q    Type
REMARK                         _______ _______ _______ _____ _____    ______ ____
ROOT
ATOM      1  C   UNL     1      -9.342   5.554 131.107  0.00  0.00    +0.000 C 
ATOM      2  N   UNL     1      -8.087   5.996 130.492  0.00  0.00    +0.000 NA
ATOM      3  C   UNL     1      -6.987   5.820 131.154  0.00  0.00    +0.000 C 
ATOM      4  C   UNL     1      -6.885   5.181 132.508  0.00  0.00    +0.000 A 
ATOM      5  C   UNL     1      -5.911   5.675 133.399  0.00  0.00    +0.000 A 
ATOM      6  C   UNL     1      -5.698   5.072 134.639  0.00  0.00    +0.000 A 
ATOM      7  C   UNL     1      -6.506   4.019 135.037  0.00  0.00    +0.000 A 
ATOM      8  C   UNL     1      -7.519   3.569 134.195  0.00  0.00    +0.000 A 
ATOM      9  C   UNL     1      -7.661   4.070 132.887  0.00  0.00    +0.000 A 
ATOM     10  N   UNL     1      -8.485   3.348 131.967  0.00  0.00    +0.000 N 
ATOM     11  C   UNL     1      -9.370   3.994 131.097  0.00  0.00    +0.000 C 
ATOM     12  O   UNL     1     -10.148   3.350 130.381  0.00  0.00    +0.000 OA
ENDROOT
BRANCH   3  13
ATOM     13  C   UNL     1      -5.713   6.277 130.511  0.00  0.00    +0.000 A 
ATOM     14  C   UNL     1      -4.876   5.370 129.853  0.00  0.00    +0.000 A 
ATOM     15  C   UNL     1      -3.646   5.807 129.345  0.00  0.00    +0.000 A 
ATOM     16  C   UNL     1      -3.299   7.158 129.413  0.00  0.00    +0.000 A 
ATOM     17  C   UNL     1      -4.185   8.076 129.975  0.00  0.00    +0.000 A 
ATOM     18  C   UNL     1      -5.369   7.632 130.568  0.00  0.00    +0.000 A 
ENDBRANCH   3  13
BRANCH   1  21
ATOM     19  C   UNL     1     -11.637   6.417 130.882  0.00  0.00    +0.000 C 
ATOM     20  O   UNL     1     -11.821   6.347 132.096  0.00  0.00    +0.000 OA
ATOM     21  N   UNL     1     -10.435   6.089 130.308  0.00  0.00    +0.000 N 
ATOM     22  H   UNL     1     -10.338   5.998 129.306  0.00  0.00    +0.000 HD
BRANCH  19  23
ATOM     23  C   UNL     1     -12.730   6.886 129.924  0.00  0.00    +0.000 C 
BRANCH  23  24
ATOM     24  C   UNL     1     -12.658   8.410 129.748  0.00  0.00    +0.000 C 
BRANCH  24  25
ATOM     25  C   UNL     1     -12.411   8.867 128.311  0.00  0.00    +0.000 C 
BRANCH  25  27
ATOM     26  C   UNL     1     -11.095   7.577 126.497  0.00  0.00    +0.000 C 
ATOM     27  C   UNL     1     -11.076   8.343 127.792  0.00  0.00    +0.000 C 
ATOM     28  O   UNL     1     -10.014   8.524 128.388  0.00  0.00    +0.000 OA
ENDBRANCH  25  27
ENDBRANCH  24  25
ENDBRANCH  23  24
ENDBRANCH  19  23
ENDBRANCH   1  21
BRANCH  10  29
ATOM     29  C   UNL     1      -8.441   1.866 131.924  0.00  0.00    +0.000 C 
BRANCH  29  30
ATOM     30  C   UNL     1      -7.615   1.187 130.822  0.00  0.00    +0.000 C 
ATOM     31  O   UNL     1      -8.061   0.267 130.125  0.00  0.00    +0.000 OA
ATOM     32  N   UNL     1      -6.311   1.626 130.640  0.00  0.00    +0.000 N 
ATOM     33  H   UNL     1      -5.776   1.863 131.467  0.00  0.00    +0.000 HD
BRANCH  32  34
ATOM     34  C   UNL     1      -5.647   1.024 129.505  0.00  0.00    +0.000 C 
BRANCH  34  35
ATOM     35  C   UNL     1      -4.395   1.699 128.982  0.00  0.00    +0.000 C 
BRANCH  35  36
ATOM     36  C   UNL     1      -4.631   2.541 127.736  0.00  0.00    +0.000 A 
ATOM     37  C   UNL     1      -5.979   2.763 127.386  0.00  0.00    +0.000 A 
ATOM     38  C   UNL     1      -6.322   3.365 126.172  0.00  0.00    +0.000 A 
ATOM     39  C   UNL     1      -5.331   3.866 125.339  0.00  0.00    +0.000 A 
ATOM     40  C   UNL     1      -4.004   3.796 125.736  0.00  0.00    +0.000 A 
ATOM     41  C   UNL     1      -3.644   3.113 126.900  0.00  0.00    +0.000 A 
ATOM     42 CL   UNL     1      -1.933   3.062 127.144  0.00  0.00    +0.000 Cl
ENDBRANCH  35  36
ENDBRANCH  34  35
ENDBRANCH  32  34
ENDBRANCH  29  30
ENDBRANCH  10  29
TORSDOF 11
ENDMDL
MODEL 4
REMARK VINA RESULT:      -8.2      3.084      7.538
REMARK  Name = CHEMBL25067
REMARK  12 active torsions:
REMARK  status: ('A' for Active; 'I' for Inactive)
REMARK    1  A    between atoms: C_1  and  C_2
REMARK    2  A    between atoms: C_2  and  C_4
REMARK    3  A    between atoms: C_4  and  C_5
REMARK    4  A    between atoms: C_5  and  C_6
REMARK    5  A    between atoms: C_6  and  C_7
REMARK    6  A    between atoms: N_9  and  C_10
REMARK    7  A    between atoms: C_12  and  C_13
REMARK    8  A    between atoms: N_25  and  C_26
REMARK    9  A    between atoms: C_26  and  C_27
REMARK   10  A    between atoms: N_29  and  C_30
REMARK   11  A    between atoms: C_30  and  C_31
REMARK   12  A    between atoms: C_31  and  C_32
REMARK                            x       y       z     vdW  Elec       q    Type
REMARK                         _______ _______ _______ _____ _____    ______ ____
ROOT
ATOM      1  C   UNL     1      -5.665   1.366 127.636  0.00  0.00    +0.000 C 
ATOM      2  N   UNL     1      -6.104   0.361 126.664  0.00  0.00    +0.000 NA
ATOM      3  C   UNL     1      -6.815  -0.634 127.092  0.00  0.00    +0.000 C 
ATOM      4  C   UNL     1      -7.245  -0.842 128.514  0.00  0.00    +0.000 A 
ATOM      5  C   UNL     1      -7.317  -2.165 128.996  0.00  0.00    +0.000 A 
ATOM      6  C   UNL     1      -7.795  -2.440 130.277  0.00  0.00    +0.000 A 
ATOM      7  C   UNL     1      -8.131  -1.394 131.123  0.00  0.00    +0.000 A 
ATOM      8  C   UNL     1      -7.995  -0.079 130.684  0.00  0.00    +0.000 A 
ATOM      9  C   UNL     1      -7.648   0.215 129.351  0.00  0.00    +0.000 A 
ATOM     10  N   UNL     1      -7.850   1.549 128.875  0.00  0.00    +0.000 N 
ATOM     11  C   UNL     1      -6.908   2.202 128.073  0.00  0.00    +0.000 C 
ATOM     12  O   UNL     1      -7.051   3.390 127.755  0.00  0.00    +0.000 OA
ENDROOT
BRANCH   3  13
ATOM     13  C   UNL     1      -7.256  -1.652 126.085  0.00  0.00    +0.000 A 
ATOM     14  C   UNL     1      -6.323  -2.451 125.416  0.00  0.00    +0.000 A 
ATOM     15  C   UNL     1      -6.754  -3.326 124.411  0.00  0.00    +0.000 A 
ATOM     16  C   UNL     1      -8.117  -3.467 124.142  0.00  0.00    +0.000 A 
ATOM     17  C   UNL     1      -9.051  -2.747 124.886  0.00  0.00    +0.000 A 
ATOM     18  C   UNL     1      -8.622  -1.804 125.822  0.00  0.00    +0.000 A 
ENDBRANCH   3  13
BRANCH   1  21
ATOM     19  C   UNL     1      -3.694   2.840 127.694  0.00  0.00    +0.000 C 
ATOM     20  O   UNL     1      -3.545   2.654 128.900  0.00  0.00    +0.000 OA
ATOM     21  N   UNL     1      -4.684   2.215 126.978  0.00  0.00    +0.000 N 
ATOM     22  H   UNL     1      -4.899   2.489 126.030  0.00  0.00    +0.000 HD
BRANCH  19  23
ATOM     23  C   UNL     1      -2.780   3.772 126.900  0.00  0.00    +0.000 C 
BRANCH  23  24
ATOM     24  C   UNL     1      -2.470   5.031 127.722  0.00  0.00    +0.000 C 
BRANCH  24  25
ATOM     25  C   UNL     1      -3.622   6.032 127.800  0.00  0.00    +0.000 C 
BRANCH  25  27
ATOM     26  C   UNL     1      -2.570   6.363 130.140  0.00  0.00    +0.000 C 
ATOM     27  C   UNL     1      -3.667   6.708 129.168  0.00  0.00    +0.000 C 
ATOM     28  O   UNL     1      -4.549   7.504 129.487  0.00  0.00    +0.000 OA
ENDBRANCH  25  27
ENDBRANCH  24  25
ENDBRANCH  23  24
ENDBRANCH  19  23
ENDBRANCH   1  21
BRANCH  10  29
ATOM     29  C   UNL     1      -9.075   2.300 129.242  0.00  0.00    +0.000 C 
BRANCH  29  30
ATOM     30  C   UNL     1      -8.958   3.444 130.260  0.00  0.00    +0.000 C 
ATOM     31  O   UNL     1      -8.847   3.246 131.477  0.00  0.00    +0.000 OA
ATOM     32  N   UNL     1      -9.008   4.741 129.771  0.00  0.00    +0.000 N 
ATOM     33  H   UNL     1      -9.651   4.932 129.011  0.00  0.00    +0.000 HD
BRANCH  32  34
ATOM     34  C   UNL     1      -8.767   5.753 130.775  0.00  0.00    +0.000 C 
BRANCH  34  35
ATOM     35  C   UNL     1      -8.999   7.200 130.388  0.00  0.00    +0.000 C 
BRANCH  35  36
ATOM     36  C   UNL     1     -10.350   7.447 129.732  0.00  0.00    +0.000 A 
ATOM     37  C   UNL     1     -10.316   7.919 128.404  0.00  0.00    +0.000 A 
ATOM     38  C   UNL     1     -11.478   8.350 127.759  0.00  0.00    +0.000 A 
ATOM     39  C   UNL     1     -12.712   8.208 128.379  0.00  0.00    +0.000 A 
ATOM     40  C   UNL     1     -12.786   7.604 129.625  0.00  0.00    +0.000 A 
ATOM     41  C   UNL     1     -11.624   7.256 130.317  0.00  0.00    +0.000 A 
ATOM     42 CL   UNL     1     -11.948   6.617 131.891  0.00  0.00    +0.000 Cl
ENDBRANCH  35  36
ENDBRANCH  34  35
ENDBRANCH  32  34
ENDBRANCH  29  30
ENDBRANCH  10  29
TORSDOF 11
ENDMDL
MODEL 5
REMARK VINA RESULT:      -8.2      3.756      5.977
REMARK  Name = CHEMBL25067
REMARK  12 active torsions:
REMARK  status: ('A' for Active; 'I' for Inactive)
REMARK    1  A    between atoms: C_1  and  C_2
REMARK    2  A    between atoms: C_2  and  C_4
REMARK    3  A    between atoms: C_4  and  C_5
REMARK    4  A    between atoms: C_5  and  C_6
REMARK    5  A    between atoms: C_6  and  C_7
REMARK    6  A    between atoms: N_9  and  C_10
REMARK    7  A    between atoms: C_12  and  C_13
REMARK    8  A    between atoms: N_25  and  C_26
REMARK    9  A    between atoms: C_26  and  C_27
REMARK   10  A    between atoms: N_29  and  C_30
REMARK   11  A    between atoms: C_30  and  C_31
REMARK   12  A    between atoms: C_31  and  C_32
REMARK                            x       y       z     vdW  Elec       q    Type
REMARK                         _______ _______ _______ _____ _____    ______ ____
ROOT
ATOM      1  C   UNL     1      -9.524   5.817 131.152  0.00  0.00    +0.000 C 
ATOM      2  N   UNL     1      -8.246   6.228 130.562  0.00  0.00    +0.000 NA
ATOM      3  C   UNL     1      -7.155   5.764 131.084  0.00  0.00    +0.000 C 
ATOM      4  C   UNL     1      -7.085   4.820 132.248  0.00  0.00    +0.000 A 
ATOM      5  C   UNL     1      -6.015   4.965 133.153  0.00  0.00    +0.000 A 
ATOM      6  C   UNL     1      -5.835   4.068 134.206  0.00  0.00    +0.000 A 
ATOM      7  C   UNL     1      -6.765   3.061 134.415  0.00  0.00    +0.000 A 
ATOM      8  C   UNL     1      -7.867   2.952 133.571  0.00  0.00    +0.000 A 
ATOM      9  C   UNL     1      -7.992   3.759 132.423  0.00  0.00    +0.000 A 
ATOM     10  N   UNL     1      -8.949   3.381 131.428  0.00  0.00    +0.000 N 
ATOM     11  C   UNL     1      -9.770   4.318 130.794  0.00  0.00    +0.000 C 
ATOM     12  O   UNL     1     -10.661   3.963 130.010  0.00  0.00    +0.000 OA
ENDROOT
BRANCH   3  13
ATOM     13  C   UNL     1      -5.858   6.194 130.468  0.00  0.00    +0.000 A 
ATOM     14  C   UNL     1      -5.132   5.327 129.645  0.00  0.00    +0.000 A 
ATOM     15  C   UNL     1      -3.878   5.719 129.161  0.00  0.00    +0.000 A 
ATOM     16  C   UNL     1      -3.396   7.003 129.422  0.00  0.00    +0.000 A 
ATOM     17  C   UNL     1      -4.171   7.901 130.155  0.00  0.00    +0.000 A 
ATOM     18  C   UNL     1      -5.378   7.484 130.720  0.00  0.00    +0.000 A 
ENDBRANCH   3  13
BRANCH   1  21
ATOM     19  C   UNL     1     -11.760   6.843 131.222  0.00  0.00    +0.000 C 
ATOM     20  O   UNL     1     -11.979   6.376 132.338  0.00  0.00    +0.000 OA
ATOM     21  N   UNL     1     -10.563   6.657 130.577  0.00  0.00    +0.000 N 
ATOM     22  H   UNL     1     -10.446   6.906 129.605  0.00  0.00    +0.000 HD
BRANCH  19  23
ATOM     23  C   UNL     1     -12.801   7.677 130.476  0.00  0.00    +0.000 C 
BRANCH  23  24
ATOM     24  C   UNL     1     -12.976   7.144 129.047  0.00  0.00    +0.000 C 
BRANCH  24  25
ATOM     25  C   UNL     1     -12.708   8.176 127.952  0.00  0.00    +0.000 C 
BRANCH  25  27
ATOM     26  C   UNL     1     -10.897   7.430 126.263  0.00  0.00    +0.000 C 
ATOM     27  C   UNL     1     -11.241   8.161 127.533  0.00  0.00    +0.000 C 
ATOM     28  O   UNL     1     -10.357   8.715 128.188  0.00  0.00    +0.000 OA
ENDBRANCH  25  27
ENDBRANCH  24  25
ENDBRANCH  23  24
ENDBRANCH  19  23
ENDBRANCH   1  21
BRANCH  10  29
ATOM     29  C   UNL     1      -9.114   1.957 131.049  0.00  0.00    +0.000 C 
BRANCH  29  30
ATOM     30  C   UNL     1      -7.983   1.266 130.273  0.00  0.00    +0.000 C 
ATOM     31  O   UNL     1      -7.856   0.036 130.234  0.00  0.00    +0.000 OA
ATOM     32  N   UNL     1      -7.067   2.079 129.622  0.00  0.00    +0.000 N 
ATOM     33  H   UNL     1      -6.783   2.933 130.087  0.00  0.00    +0.000 HD
BRANCH  32  34
ATOM     34  C   UNL     1      -6.111   1.352 128.816  0.00  0.00    +0.000 C 
BRANCH  34  35
ATOM     35  C   UNL     1      -4.639   1.563 129.106  0.00  0.00    +0.000 C 
BRANCH  35  36
ATOM     36  C   UNL     1      -4.263   1.322 130.561  0.00  0.00    +0.000 A 
ATOM     37  C   UNL     1      -3.891   2.463 131.301  0.00  0.00    +0.000 A 
ATOM     38  C   UNL     1      -3.356   2.349 132.587  0.00  0.00    +0.000 A 
ATOM     39  C   UNL     1      -3.294   1.109 133.208  0.00  0.00    +0.000 A 
ATOM     40  C   UNL     1      -3.796  -0.007 132.557  0.00  0.00    +0.000 A 
ATOM     41  C   UNL     1      -4.245   0.080 131.237  0.00  0.00    +0.000 A 
ATOM     42 CL   UNL     1      -4.728  -1.450 130.591  0.00  0.00    +0.000 Cl
ENDBRANCH  35  36
ENDBRANCH  34  35
ENDBRANCH  32  34
ENDBRANCH  29  30
ENDBRANCH  10  29
TORSDOF 11
ENDMDL
MODEL 6
REMARK VINA RESULT:      -8.1      2.939      6.158
REMARK  Name = CHEMBL25067
REMARK  12 active torsions:
REMARK  status: ('A' for Active; 'I' for Inactive)
REMARK    1  A    between atoms: C_1  and  C_2
REMARK    2  A    between atoms: C_2  and  C_4
REMARK    3  A    between atoms: C_4  and  C_5
REMARK    4  A    between atoms: C_5  and  C_6
REMARK    5  A    between atoms: C_6  and  C_7
REMARK    6  A    between atoms: N_9  and  C_10
REMARK    7  A    between atoms: C_12  and  C_13
REMARK    8  A    between atoms: N_25  and  C_26
REMARK    9  A    between atoms: C_26  and  C_27
REMARK   10  A    between atoms: N_29  and  C_30
REMARK   11  A    between atoms: C_30  and  C_31
REMARK   12  A    between atoms: C_31  and  C_32
REMARK                            x       y       z     vdW  Elec       q    Type
REMARK                         _______ _______ _______ _____ _____    ______ ____
ROOT
ATOM      1  C   UNL     1      -7.738   0.411 130.700  0.00  0.00    +0.000 C 
ATOM      2  N   UNL     1      -7.278  -0.727 131.502  0.00  0.00    +0.000 NA
ATOM      3  C   UNL     1      -7.287  -1.902 130.955  0.00  0.00    +0.000 C 
ATOM      4  C   UNL     1      -7.720  -2.200 129.551  0.00  0.00    +0.000 A 
ATOM      5  C   UNL     1      -8.380  -3.422 129.308  0.00  0.00    +0.000 A 
ATOM      6  C   UNL     1      -8.730  -3.807 128.014  0.00  0.00    +0.000 A 
ATOM      7  C   UNL     1      -8.497  -2.943 126.955  0.00  0.00    +0.000 A 
ATOM      8  C   UNL     1      -7.912  -1.702 127.192  0.00  0.00    +0.000 A 
ATOM      9  C   UNL     1      -7.426  -1.353 128.466  0.00  0.00    +0.000 A 
ATOM     10  N   UNL     1      -6.548  -0.228 128.575  0.00  0.00    +0.000 N 
ATOM     11  C   UNL     1      -6.664   0.708 129.608  0.00  0.00    +0.000 C 
ATOM     12  O   UNL     1      -5.962   1.728 129.629  0.00  0.00    +0.000 OA
ENDROOT
BRANCH   3  13
ATOM     13  C   UNL     1      -6.814  -3.054 131.789  0.00  0.00    +0.000 A 
ATOM     14  C   UNL     1      -7.329  -3.271 133.071  0.00  0.00    +0.000 A 
ATOM     15  C   UNL     1      -6.800  -4.297 133.865  0.00  0.00    +0.000 A 
ATOM     16  C   UNL     1      -5.830  -5.156 133.345  0.00  0.00    +0.000 A 
ATOM     17  C   UNL     1      -5.397  -5.001 132.029  0.00  0.00    +0.000 A 
ATOM     18  C   UNL     1      -5.850  -3.924 131.266  0.00  0.00    +0.000 A 
ENDBRANCH   3  13
BRANCH   1  21
ATOM     19  C   UNL     1      -9.095   1.854 132.162  0.00  0.00    +0.000 C 
ATOM     20  O   UNL     1     -10.087   1.144 132.003  0.00  0.00    +0.000 OA
ATOM     21  N   UNL     1      -7.883   1.549 131.595  0.00  0.00    +0.000 N 
ATOM     22  H   UNL     1      -7.120   2.211 131.599  0.00  0.00    +0.000 HD
BRANCH  19  23
ATOM     23  C   UNL     1      -9.136   3.121 133.014  0.00  0.00    +0.000 C 
BRANCH  23  24
ATOM     24  C   UNL     1      -9.280   4.357 132.115  0.00  0.00    +0.000 C 
BRANCH  24  25
ATOM     25  C   UNL     1      -8.011   5.200 131.995  0.00  0.00    +0.000 C 
BRANCH  25  27
ATOM     26  C   UNL     1      -9.696   6.758 130.802  0.00  0.00    +0.000 C 
ATOM     27  C   UNL     1      -8.269   6.460 131.174  0.00  0.00    +0.000 C 
ATOM     28  O   UNL     1      -7.366   7.218 130.818  0.00  0.00    +0.000 OA
ENDBRANCH  25  27
ENDBRANCH  24  25
ENDBRANCH  23  24
ENDBRANCH  19  23
ENDBRANCH   1  21
BRANCH  10  29
ATOM     29  C   UNL     1      -5.485  -0.006 127.565  0.00  0.00    +0.000 C 
BRANCH  29  30
ATOM     30  C   UNL     1      -5.678   1.110 126.528  0.00  0.00    +0.000 C 
ATOM     31  O   UNL     1      -4.752   1.843 126.157  0.00  0.00    +0.000 OA
ATOM     32  N   UNL     1      -6.956   1.299 126.024  0.00  0.00    +0.000 N 
ATOM     33  H   UNL     1      -7.734   1.197 126.665  0.00  0.00    +0.000 HD
BRANCH  32  34
ATOM     34  C   UNL     1      -7.027   2.283 124.966  0.00  0.00    +0.000 C 
BRANCH  34  35
ATOM     35  C   UNL     1      -7.018   1.781 123.536  0.00  0.00    +0.000 C 
BRANCH  35  36
ATOM     36  C   UNL     1      -7.610   0.389 123.374  0.00  0.00    +0.000 A 
ATOM     37  C   UNL     1      -6.685  -0.671 123.286  0.00  0.00    +0.000 A 
ATOM     38  C   UNL     1      -7.096  -1.965 122.958  0.00  0.00    +0.000 A 
ATOM     39  C   UNL     1      -8.447  -2.256 122.830  0.00  0.00    +0.000 A 
ATOM     40  C   UNL     1      -9.385  -1.261 123.063  0.00  0.00    +0.000 A 
ATOM     41  C   UNL     1      -8.983   0.056 123.299  0.00  0.00    +0.000 A 
ATOM     42 CL   UNL     1     -10.317   1.145 123.457  0.00  0.00    +0.000 Cl
ENDBRANCH  35  36
ENDBRANCH  34  35
ENDBRANCH  32  34
ENDBRANCH  29  30
ENDBRANCH  10  29
TORSDOF 11
ENDMDL
MODEL 7
REMARK VINA RESULT:      -8.0      2.800      4.597
REMARK  Name = CHEMBL25067
REMARK  12 active torsions:
REMARK  status: ('A' for Active; 'I' for Inactive)
REMARK    1  A    between atoms: C_1  and  C_2
REMARK    2  A    between atoms: C_2  and  C_4
REMARK    3  A    between atoms: C_4  and  C_5
REMARK    4  A    between atoms: C_5  and  C_6
REMARK    5  A    between atoms: C_6  and  C_7
REMARK    6  A    between atoms: N_9  and  C_10
REMARK    7  A    between atoms: C_12  and  C_13
REMARK    8  A    between atoms: N_25  and  C_26
REMARK    9  A    between atoms: C_26  and  C_27
REMARK   10  A    between atoms: N_29  and  C_30
REMARK   11  A    between atoms: C_30  and  C_31
REMARK   12  A    between atoms: C_31  and  C_32
REMARK                            x       y       z     vdW  Elec       q    Type
REMARK                         _______ _______ _______ _____ _____    ______ ____
ROOT
ATOM      1  C   UNL     1      -9.248   4.904 131.038  0.00  0.00    +0.000 C 
ATOM      2  N   UNL     1      -8.018   5.553 130.575  0.00  0.00    +0.000 NA
ATOM      3  C   UNL     1      -6.895   5.183 131.106  0.00  0.00    +0.000 C 
ATOM      4  C   UNL     1      -6.742   4.124 132.158  0.00  0.00    +0.000 A 
ATOM      5  C   UNL     1      -5.744   4.304 133.136  0.00  0.00    +0.000 A 
ATOM      6  C   UNL     1      -5.484   3.320 134.089  0.00  0.00    +0.000 A 
ATOM      7  C   UNL     1      -6.269   2.178 134.129  0.00  0.00    +0.000 A 
ATOM      8  C   UNL     1      -7.307   2.022 133.213  0.00  0.00    +0.000 A 
ATOM      9  C   UNL     1      -7.496   2.936 132.158  0.00  0.00    +0.000 A 
ATOM     10  N   UNL     1      -8.345   2.554 131.072  0.00  0.00    +0.000 N 
ATOM     11  C   UNL     1      -9.264   3.440 130.499  0.00  0.00    +0.000 C 
ATOM     12  O   UNL     1     -10.060   3.063 129.629  0.00  0.00    +0.000 OA
ENDROOT
BRANCH   3  13
ATOM     13  C   UNL     1      -5.647   5.855 130.621  0.00  0.00    +0.000 A 
ATOM     14  C   UNL     1      -4.694   5.151 129.878  0.00  0.00    +0.000 A 
ATOM     15  C   UNL     1      -3.494   5.777 129.520  0.00  0.00    +0.000 A 
ATOM     16  C   UNL     1      -3.289   7.125 129.822  0.00  0.00    +0.000 A 
ATOM     17  C   UNL     1      -4.288   7.852 130.469  0.00  0.00    +0.000 A 
ATOM     18  C   UNL     1      -5.445   7.209 130.912  0.00  0.00    +0.000 A 
ENDBRANCH   3  13
BRANCH   1  21
ATOM     19  C   UNL     1     -11.172   6.414 131.319  0.00  0.00    +0.000 C 
ATOM     20  O   UNL     1     -10.937   6.550 132.518  0.00  0.00    +0.000 OA
ATOM     21  N   UNL     1     -10.371   5.658 130.501  0.00  0.00    +0.000 N 
ATOM     22  H   UNL     1     -10.653   5.423 129.560  0.00  0.00    +0.000 HD
BRANCH  19  23
ATOM     23  C   UNL     1     -12.368   7.088 130.647  0.00  0.00    +0.000 C 
BRANCH  23  24
ATOM     24  C   UNL     1     -12.699   6.380 129.326  0.00  0.00    +0.000 C 
BRANCH  24  25
ATOM     25  C   UNL     1     -12.901   7.321 128.140  0.00  0.00    +0.000 C 
BRANCH  25  27
ATOM     26  C   UNL     1     -10.570   8.411 127.874  0.00  0.00    +0.000 C 
ATOM     27  C   UNL     1     -11.614   7.470 127.334  0.00  0.00    +0.000 C 
ATOM     28  O   UNL     1     -11.411   6.858 126.285  0.00  0.00    +0.000 OA
ENDBRANCH  25  27
ENDBRANCH  24  25
ENDBRANCH  23  24
ENDBRANCH  19  23
ENDBRANCH   1  21
BRANCH  10  29
ATOM     29  C   UNL     1      -8.291   1.176 130.526  0.00  0.00    +0.000 C 
BRANCH  29  30
ATOM     30  C   UNL     1      -7.075   0.768 129.681  0.00  0.00    +0.000 C 
ATOM     31  O   UNL     1      -5.920   1.115 129.962  0.00  0.00    +0.000 OA
ATOM     32  N   UNL     1      -7.312   0.001 128.549  0.00  0.00    +0.000 N 
ATOM     33  H   UNL     1      -8.139   0.214 128.003  0.00  0.00    +0.000 HD
BRANCH  32  34
ATOM     34  C   UNL     1      -6.108  -0.443 127.882  0.00  0.00    +0.000 C 
BRANCH  34  35
ATOM     35  C   UNL     1      -5.997  -1.914 127.536  0.00  0.00    +0.000 C 
BRANCH  35  36
ATOM     36  C   UNL     1      -7.131  -2.422 126.657  0.00  0.00    +0.000 A 
ATOM     37  C   UNL     1      -6.967  -2.239 125.268  0.00  0.00    +0.000 A 
ATOM     38  C   UNL     1      -8.010  -2.497 124.376  0.00  0.00    +0.000 A 
ATOM     39  C   UNL     1      -9.195  -3.057 124.833  0.00  0.00    +0.000 A 
ATOM     40  C   UNL     1      -9.322  -3.388 126.173  0.00  0.00    +0.000 A 
ATOM     41  C   UNL     1      -8.323  -3.048 127.089  0.00  0.00    +0.000 A 
ATOM     42 CL   UNL     1      -8.737  -3.461 128.716  0.00  0.00    +0.000 Cl
ENDBRANCH  35  36
ENDBRANCH  34  35
ENDBRANCH  32  34
ENDBRANCH  29  30
ENDBRANCH  10  29
TORSDOF 11
ENDMDL
MODEL 8
REMARK VINA RESULT:      -7.9      3.092      6.264
REMARK  Name = CHEMBL25067
REMARK  12 active torsions:
REMARK  status: ('A' for Active; 'I' for Inactive)
REMARK    1  A    between atoms: C_1  and  C_2
REMARK    2  A    between atoms: C_2  and  C_4
REMARK    3  A    between atoms: C_4  and  C_5
REMARK    4  A    between atoms: C_5  and  C_6
REMARK    5  A    between atoms: C_6  and  C_7
REMARK    6  A    between atoms: N_9  and  C_10
REMARK    7  A    between atoms: C_12  and  C_13
REMARK    8  A    between atoms: N_25  and  C_26
REMARK    9  A    between atoms: C_26  and  C_27
REMARK   10  A    between atoms: N_29  and  C_30
REMARK   11  A    between atoms: C_30  and  C_31
REMARK   12  A    between atoms: C_31  and  C_32
REMARK                            x       y       z     vdW  Elec       q    Type
REMARK                         _______ _______ _______ _____ _____    ______ ____
ROOT
ATOM      1  C   UNL     1      -7.774   3.071 127.965  0.00  0.00    +0.000 C 
ATOM      2  N   UNL     1      -7.867   1.654 127.599  0.00  0.00    +0.000 NA
ATOM      3  C   UNL     1      -7.507   1.308 126.403  0.00  0.00    +0.000 C 
ATOM      4  C   UNL     1      -6.983   2.241 125.352  0.00  0.00    +0.000 A 
ATOM      5  C   UNL     1      -7.323   1.981 124.009  0.00  0.00    +0.000 A 
ATOM      6  C   UNL     1      -6.799   2.751 122.972  0.00  0.00    +0.000 A 
ATOM      7  C   UNL     1      -5.993   3.841 123.265  0.00  0.00    +0.000 A 
ATOM      8  C   UNL     1      -5.710   4.152 124.593  0.00  0.00    +0.000 A 
ATOM      9  C   UNL     1      -6.113   3.308 125.645  0.00  0.00    +0.000 A 
ATOM     10  N   UNL     1      -5.517   3.493 126.932  0.00  0.00    +0.000 N 
ATOM     11  C   UNL     1      -6.265   3.442 128.113  0.00  0.00    +0.000 C 
ATOM     12  O   UNL     1      -5.752   3.704 129.208  0.00  0.00    +0.000 OA
ENDROOT
BRANCH   3  13
ATOM     13  C   UNL     1      -7.608  -0.144 126.046  0.00  0.00    +0.000 A 
ATOM     14  C   UNL     1      -6.458  -0.927 125.892  0.00  0.00    +0.000 A 
ATOM     15  C   UNL     1      -6.578  -2.255 125.464  0.00  0.00    +0.000 A 
ATOM     16  C   UNL     1      -7.841  -2.822 125.281  0.00  0.00    +0.000 A 
ATOM     17  C   UNL     1      -8.985  -2.068 125.539  0.00  0.00    +0.000 A 
ATOM     18  C   UNL     1      -8.873  -0.718 125.873  0.00  0.00    +0.000 A 
ENDBRANCH   3  13
BRANCH   1  21
ATOM     19  C   UNL     1      -8.923   4.475 129.628  0.00  0.00    +0.000 C 
ATOM     20  O   UNL     1      -8.835   5.467 128.906  0.00  0.00    +0.000 OA
ATOM     21  N   UNL     1      -8.468   3.243 129.233  0.00  0.00    +0.000 N 
ATOM     22  H   UNL     1      -8.400   2.474 129.884  0.00  0.00    +0.000 HD
BRANCH  19  23
ATOM     23  C   UNL     1      -9.558   4.541 131.016  0.00  0.00    +0.000 C 
BRANCH  23  24
ATOM     24  C   UNL     1      -9.989   5.980 131.332  0.00  0.00    +0.000 C 
BRANCH  24  25
ATOM     25  C   UNL     1     -11.497   6.216 131.261  0.00  0.00    +0.000 C 
BRANCH  25  27
ATOM     26  C   UNL     1     -11.657   8.086 129.481  0.00  0.00    +0.000 C 
ATOM     27  C   UNL     1     -11.917   6.653 129.860  0.00  0.00    +0.000 C 
ATOM     28  O   UNL     1     -12.447   5.886 129.056  0.00  0.00    +0.000 OA
ENDBRANCH  25  27
ENDBRANCH  24  25
ENDBRANCH  23  24
ENDBRANCH  19  23
ENDBRANCH   1  21
BRANCH  10  29
ATOM     29  C   UNL     1      -4.065   3.771 127.053  0.00  0.00    +0.000 C 
BRANCH  29  30
ATOM     30  C   UNL     1      -3.621   5.146 127.575  0.00  0.00    +0.000 C 
ATOM     31  O   UNL     1      -4.195   6.196 127.260  0.00  0.00    +0.000 OA
ATOM     32  N   UNL     1      -2.515   5.185 128.411  0.00  0.00    +0.000 N 
ATOM     33  H   UNL     1      -1.746   4.558 128.202  0.00  0.00    +0.000 HD
BRANCH  32  34
ATOM     34  C   UNL     1      -2.240   6.496 128.955  0.00  0.00    +0.000 C 
BRANCH  34  35
ATOM     35  C   UNL     1      -2.327   6.667 130.458  0.00  0.00    +0.000 C 
BRANCH  35  36
ATOM     36  C   UNL     1      -3.703   6.353 131.030  0.00  0.00    +0.000 A 
ATOM     37  C   UNL     1      -4.777   7.099 130.502  0.00  0.00    +0.000 A 
ATOM     38  C   UNL     1      -6.052   7.031 131.068  0.00  0.00    +0.000 A 
ATOM     39  C   UNL     1      -6.313   6.129 132.090  0.00  0.00    +0.000 A 
ATOM     40  C   UNL     1      -5.309   5.275 132.521  0.00  0.00    +0.000 A 
ATOM     41  C   UNL     1      -4.008   5.401 132.029  0.00  0.00    +0.000 A 
ATOM     42 CL   UNL     1      -2.899   4.307 132.781  0.00  0.00    +0.000 Cl
ENDBRANCH  35  36
ENDBRANCH  34  35
ENDBRANCH  32  34
ENDBRANCH  29  30
ENDBRANCH  10  29
TORSDOF 11
ENDMDL
MODEL 9
REMARK VINA RESULT:      -7.8      1.811      2.113
REMARK  Name = CHEMBL25067
REMARK  12 active torsions:
REMARK  status: ('A' for Active; 'I' for Inactive)
REMARK    1  A    between atoms: C_1  and  C_2
REMARK    2  A    between atoms: C_2  and  C_4
REMARK    3  A    between atoms: C_4  and  C_5
REMARK    4  A    between atoms: C_5  and  C_6
REMARK    5  A    between atoms: C_6  and  C_7
REMARK    6  A    between atoms: N_9  and  C_10
REMARK    7  A    between atoms: C_12  and  C_13
REMARK    8  A    between atoms: N_25  and  C_26
REMARK    9  A    between atoms: C_26  and  C_27
REMARK   10  A    between atoms: N_29  and  C_30
REMARK   11  A    between atoms: C_30  and  C_31
REMARK   12  A    between atoms: C_31  and  C_32
REMARK                            x       y       z     vdW  Elec       q    Type
REMARK                         _______ _______ _______ _____ _____    ______ ____
ROOT
ATOM      1  C   UNL     1      -8.205   4.805 129.430  0.00  0.00    +0.000 C 
ATOM      2  N   UNL     1      -8.301   4.106 128.145  0.00  0.00    +0.000 NA
ATOM      3  C   UNL     1      -7.206   3.876 127.492  0.00  0.00    +0.000 C 
ATOM      4  C   UNL     1      -5.829   4.256 127.949  0.00  0.00    +0.000 A 
ATOM      5  C   UNL     1      -4.893   4.649 126.971  0.00  0.00    +0.000 A 
ATOM      6  C   UNL     1      -3.569   4.928 127.312  0.00  0.00    +0.000 A 
ATOM      7  C   UNL     1      -3.182   4.896 128.643  0.00  0.00    +0.000 A 
ATOM      8  C   UNL     1      -4.117   4.581 129.627  0.00  0.00    +0.000 A 
ATOM      9  C   UNL     1      -5.418   4.161 129.292  0.00  0.00    +0.000 A 
ATOM     10  N   UNL     1      -6.213   3.536 130.305  0.00  0.00    +0.000 N 
ATOM     11  C   UNL     1      -7.570   3.831 130.472  0.00  0.00    +0.000 C 
ATOM     12  O   UNL     1      -8.217   3.358 131.416  0.00  0.00    +0.000 OA
ENDROOT
BRANCH   3  13
ATOM     13  C   UNL     1      -7.322   3.161 126.180  0.00  0.00    +0.000 A 
ATOM     14  C   UNL     1      -6.757   1.894 126.001  0.00  0.00    +0.000 A 
ATOM     15  C   UNL     1      -6.798   1.290 124.738  0.00  0.00    +0.000 A 
ATOM     16  C   UNL     1      -7.478   1.908 123.687  0.00  0.00    +0.000 A 
ATOM     17  C   UNL     1      -8.131   3.121 123.899  0.00  0.00    +0.000 A 
ATOM     18  C   UNL     1      -8.014   3.773 125.128  0.00  0.00    +0.000 A 
ENDBRANCH   3  13
BRANCH   1  21
ATOM     19  C   UNL     1      -9.900   6.485 130.032  0.00  0.00    +0.000 C 
ATOM     20  O   UNL     1      -9.117   7.408 129.811  0.00  0.00    +0.000 OA
ATOM     21  N   UNL     1      -9.554   5.173 129.832  0.00  0.00    +0.000 N 
ATOM     22  H   UNL     1     -10.140   4.419 130.162  0.00  0.00    +0.000 HD
BRANCH  19  23
ATOM     23  C   UNL     1     -11.321   6.734 130.535  0.00  0.00    +0.000 C 
BRANCH  23  24
ATOM     24  C   UNL     1     -12.341   6.224 129.507  0.00  0.00    +0.000 C 
BRANCH  24  25
ATOM     25  C   UNL     1     -13.323   7.285 129.013  0.00  0.00    +0.000 C 
BRANCH  25  27
ATOM     26  C   UNL     1     -12.983   9.833 129.294  0.00  0.00    +0.000 C 
ATOM     27  C   UNL     1     -12.591   8.557 128.599  0.00  0.00    +0.000 C 
ATOM     28  O   UNL     1     -11.713   8.568 127.736  0.00  0.00    +0.000 OA
ENDBRANCH  25  27
ENDBRANCH  24  25
ENDBRANCH  23  24
ENDBRANCH  19  23
ENDBRANCH   1  21
BRANCH  10  29
ATOM     29  C   UNL     1      -5.605   2.557 131.238  0.00  0.00    +0.000 C 
BRANCH  29  30
ATOM     30  C   UNL     1      -5.825   1.059 130.977  0.00  0.00    +0.000 C 
ATOM     31  O   UNL     1      -6.351   0.308 131.808  0.00  0.00    +0.000 OA
ATOM     32  N   UNL     1      -5.383   0.551 129.764  0.00  0.00    +0.000 N 
ATOM     33  H   UNL     1      -4.509   0.908 129.396  0.00  0.00    +0.000 HD
BRANCH  32  34
ATOM     34  C   UNL     1      -5.739  -0.834 129.548  0.00  0.00    +0.000 C 
BRANCH  34  35
ATOM     35  C   UNL     1      -5.662  -1.368 128.132  0.00  0.00    +0.000 C 
BRANCH  35  36
ATOM     36  C   UNL     1      -6.880  -2.185 127.722  0.00  0.00    +0.000 A 
ATOM     37  C   UNL     1      -7.464  -1.845 126.484  0.00  0.00    +0.000 A 
ATOM     38  C   UNL     1      -8.683  -2.397 126.084  0.00  0.00    +0.000 A 
ATOM     39  C   UNL     1      -9.284  -3.387 126.849  0.00  0.00    +0.000 A 
ATOM     40  C   UNL     1      -8.650  -3.847 127.992  0.00  0.00    +0.000 A 
ATOM     41  C   UNL     1      -7.480  -3.237 128.451  0.00  0.00    +0.000 A 
ATOM     42 CL   UNL     1      -6.921  -3.901 129.948  0.00  0.00    +0.000 Cl
ENDBRANCH  35  36
ENDBRANCH  34  35
ENDBRANCH  32  34
ENDBRANCH  29  30
ENDBRANCH  10  29
TORSDOF 11
ENDMDL
