MODEL 1
REMARK VINA RESULT:     -11.7      0.000      0.000
REMARK  Name = CHEMBL31651
REMARK  7 active torsions:
REMARK  status: ('A' for Active; 'I' for Inactive)
REMARK    1  A    between atoms: C_2  and  C_3
REMARK    2  A    between atoms: C_3  and  N_4
REMARK    3  A    between atoms: C_6  and  C_7
REMARK    4  A    between atoms: N_15  and  C_16
REMARK    5  A    between atoms: C_16  and  C_17
REMARK    6  A    between atoms: C_21  and  C_22
REMARK    7  A    between atoms: C_27  and  N_28
REMARK                            x       y       z     vdW  Elec       q    Type
REMARK                         _______ _______ _______ _____ _____    ______ ____
ROOT
ATOM      1  C   UNL     1      -6.164   4.758 132.094  0.00  0.00    +0.000 A 
ATOM      2  C   UNL     1      -5.939   6.045 132.578  0.00  0.00    +0.000 A 
ATOM      3  C   UNL     1      -4.723   6.441 131.971  0.00  0.00    +0.000 A 
ATOM      4  C   UNL     1      -4.316   6.569 130.610  0.00  0.00    +0.000 A 
ATOM      5  C   UNL     1      -2.983   6.538 130.161  0.00  0.00    +0.000 A 
ATOM      6  C   UNL     1      -2.014   6.438 131.148  0.00  0.00    +0.000 A 
ATOM      7  C   UNL     1      -2.438   5.950 132.419  0.00  0.00    +0.000 A 
ATOM      8  C   UNL     1      -3.834   5.564 132.579  0.00  0.00    +0.000 A 
ATOM      9  O   UNL     1      -4.718   4.284 132.075  0.00  0.00    +0.000 OA
ENDROOT
BRANCH   5  10
ATOM     10  C   UNL     1      -2.653   6.437 128.687  0.00  0.00    +0.000 C 
ATOM     11  O   UNL     1      -1.876   7.269 128.215  0.00  0.00    +0.000 OA
ATOM     12  N   UNL     1      -3.174   5.332 127.933  0.00  0.00    +0.000 N 
ATOM     13  C   UNL     1      -2.302   4.260 127.430  0.00  0.00    +0.000 C 
ATOM     14  C   UNL     1      -2.798   3.680 126.070  0.00  0.00    +0.000 C 
ATOM     15  C   UNL     1      -4.443   2.869 126.133  0.00  0.00    +0.000 C 
ATOM     16  C   UNL     1      -5.149   4.406 126.620  0.00  0.00    +0.000 C 
ATOM     17  C   UNL     1      -4.589   4.955 127.956  0.00  0.00    +0.000 C 
BRANCH  15  18
ATOM     18  N   UNL     1      -4.886   1.036 126.007  0.00  0.00    +0.000 N 
ATOM     19  C   UNL     1      -5.301   1.256 127.344  0.00  0.00    +0.000 C 
ATOM     20  O   UNL     1      -4.639   1.688 128.325  0.00  0.00    +0.000 OA
ATOM     21  O   UNL     1      -6.615   1.263 127.465  0.00  0.00    +0.000 OA
ATOM     22  C   UNL     1      -6.735  -0.044 127.859  0.00  0.00    +0.000 C 
ATOM     23  C   UNL     1      -7.132  -0.458 126.509  0.00  0.00    +0.000 A 
ATOM     24  C   UNL     1      -8.462  -1.134 126.520  0.00  0.00    +0.000 A 
ATOM     25  C   UNL     1      -8.843  -2.298 125.925  0.00  0.00    +0.000 A 
ATOM     26  C   UNL     1      -7.753  -2.837 125.314  0.00  0.00    +0.000 A 
ATOM     27 CL   UNL     1      -8.166  -4.503 124.796  0.00  0.00    +0.000 Cl
ATOM     28  C   UNL     1      -6.342  -1.955 125.151  0.00  0.00    +0.000 A 
ATOM     29  C   UNL     1      -6.050  -0.397 125.635  0.00  0.00    +0.000 A 
ENDBRANCH  15  18
ENDBRANCH   5  10
BRANCH   1  30
ATOM     30  C   UNL     1      -7.531   3.985 132.349  0.00  0.00    +0.000 C 
BRANCH  30  33
ATOM     31  O   UNL     1      -9.872   3.236 129.631  0.00  0.00    +0.000 OA
ATOM     32  C   UNL     1      -9.164   3.948 130.353  0.00  0.00    +0.000 C 
ATOM     33  N   UNL     1      -8.376   3.326 131.343  0.00  0.00    +0.000 N 
ATOM     34  H   UNL     1      -8.446   2.316 131.324  0.00  0.00    +0.000 HD
BRANCH  32  35
ATOM     35  C   UNL     1      -9.170   5.509 130.183  0.00  0.00    +0.000 C 
BRANCH  35  36
ATOM     36  N   UNL     1     -10.518   6.141 130.272  0.00  0.00    +0.000 N 
ATOM     37  C   UNL     1     -11.135   6.636 129.125  0.00  0.00    +0.000 A 
ATOM     38  C   UNL     1     -12.186   7.478 129.190  0.00  0.00    +0.000 A 
ATOM     39  C   UNL     1     -12.805   7.731 130.479  0.00  0.00    +0.000 A 
ATOM     40  C   UNL     1     -12.338   7.134 131.582  0.00  0.00    +0.000 A 
ATOM     41  C   UNL     1     -11.048   6.388 131.541  0.00  0.00    +0.000 A 
ATOM     42  O   UNL     1     -10.525   6.035 132.594  0.00  0.00    +0.000 OA
BRANCH  38  43
ATOM     43  C   UNL     1     -12.769   8.177 127.994  0.00  0.00    +0.000 C 
ATOM     44  F   UNL     1     -11.825   8.475 127.066  0.00  0.00    +0.000 F 
ATOM     45  F   UNL     1     -13.701   7.409 127.370  0.00  0.00    +0.000 F 
ATOM     46  F   UNL     1     -13.381   9.343 128.323  0.00  0.00    +0.000 F 
ENDBRANCH  38  43
ENDBRANCH  35  36
ENDBRANCH  32  35
ENDBRANCH  30  33
ENDBRANCH   1  30
TORSDOF 7
ENDMDL
MODEL 2
REMARK VINA RESULT:     -11.7      4.517      8.951
REMARK  Name = CHEMBL31651
REMARK  7 active torsions:
REMARK  status: ('A' for Active; 'I' for Inactive)
REMARK    1  A    between atoms: C_2  and  C_3
REMARK    2  A    between atoms: C_3  and  N_4
REMARK    3  A    between atoms: C_6  and  C_7
REMARK    4  A    between atoms: N_15  and  C_16
REMARK    5  A    between atoms: C_16  and  C_17
REMARK    6  A    between atoms: C_21  and  C_22
REMARK    7  A    between atoms: C_27  and  N_28
REMARK                            x       y       z     vdW  Elec       q    Type
REMARK                         _______ _______ _______ _____ _____    ______ ____
ROOT
ATOM      1  C   UNL     1      -7.822  -2.969 128.017  0.00  0.00    +0.000 A 
ATOM      2  C   UNL     1      -8.618  -3.003 129.160  0.00  0.00    +0.000 A 
ATOM      3  C   UNL     1      -7.761  -2.562 130.198  0.00  0.00    +0.000 A 
ATOM      4  C   UNL     1      -7.021  -1.360 130.398  0.00  0.00    +0.000 A 
ATOM      5  C   UNL     1      -5.890  -1.237 131.225  0.00  0.00    +0.000 A 
ATOM      6  C   UNL     1      -5.534  -2.374 131.935  0.00  0.00    +0.000 A 
ATOM      7  C   UNL     1      -6.037  -3.618 131.452  0.00  0.00    +0.000 A 
ATOM      8  C   UNL     1      -6.851  -3.611 130.244  0.00  0.00    +0.000 A 
ATOM      9  O   UNL     1      -6.516  -3.419 128.656  0.00  0.00    +0.000 OA
ENDROOT
BRANCH   5  10
ATOM     10  C   UNL     1      -5.023   0.003 131.193  0.00  0.00    +0.000 C 
ATOM     11  O   UNL     1      -3.801  -0.151 131.221  0.00  0.00    +0.000 OA
ATOM     12  N   UNL     1      -5.651   1.284 131.036  0.00  0.00    +0.000 N 
ATOM     13  C   UNL     1      -5.506   2.069 129.800  0.00  0.00    +0.000 C 
ATOM     14  C   UNL     1      -5.504   3.605 130.069  0.00  0.00    +0.000 C 
ATOM     15  C   UNL     1      -7.059   4.263 130.787  0.00  0.00    +0.000 C 
ATOM     16  C   UNL     1      -6.810   3.234 132.193  0.00  0.00    +0.000 C 
ATOM     17  C   UNL     1      -6.779   1.720 131.861  0.00  0.00    +0.000 C 
BRANCH  15  18
ATOM     18  N   UNL     1      -8.385   5.351 129.993  0.00  0.00    +0.000 N 
ATOM     19  C   UNL     1      -9.167   4.186 130.192  0.00  0.00    +0.000 C 
ATOM     20  O   UNL     1      -8.971   3.012 129.779  0.00  0.00    +0.000 OA
ATOM     21  O   UNL     1     -10.046   4.334 131.165  0.00  0.00    +0.000 OA
ATOM     22  C   UNL     1     -11.106   4.659 130.361  0.00  0.00    +0.000 C 
ATOM     23  C   UNL     1     -10.944   6.088 130.654  0.00  0.00    +0.000 A 
ATOM     24  C   UNL     1     -12.193   6.666 131.230  0.00  0.00    +0.000 A 
ATOM     25  C   UNL     1     -12.845   7.814 130.898  0.00  0.00    +0.000 A 
ATOM     26  C   UNL     1     -12.188   8.385 129.852  0.00  0.00    +0.000 A 
ATOM     27 CL   UNL     1     -13.203   9.720 129.213  0.00  0.00    +0.000 Cl
ATOM     28  C   UNL     1     -10.690   7.821 129.372  0.00  0.00    +0.000 A 
ATOM     29  C   UNL     1      -9.801   6.592 130.040  0.00  0.00    +0.000 A 
ENDBRANCH  15  18
ENDBRANCH   5  10
BRANCH   1  30
ATOM     30  C   UNL     1      -8.423  -3.191 126.560  0.00  0.00    +0.000 C 
BRANCH  30  33
ATOM     31  O   UNL     1      -6.551  -2.404 123.510  0.00  0.00    +0.000 OA
ATOM     32  C   UNL     1      -7.083  -2.178 124.604  0.00  0.00    +0.000 C 
ATOM     33  N   UNL     1      -7.677  -3.253 125.296  0.00  0.00    +0.000 N 
ATOM     34  H   UNL     1      -7.561  -4.139 124.820  0.00  0.00    +0.000 HD
BRANCH  32  35
ATOM     35  C   UNL     1      -7.114  -0.721 125.188  0.00  0.00    +0.000 C 
BRANCH  35  36
ATOM     36  N   UNL     1      -7.817   0.279 124.335  0.00  0.00    +0.000 N 
ATOM     37  C   UNL     1      -7.094   1.079 123.453  0.00  0.00    +0.000 A 
ATOM     38  C   UNL     1      -7.624   2.188 122.899  0.00  0.00    +0.000 A 
ATOM     39  C   UNL     1      -9.039   2.457 123.083  0.00  0.00    +0.000 A 
ATOM     40  C   UNL     1      -9.802   1.612 123.787  0.00  0.00    +0.000 A 
ATOM     41  C   UNL     1      -9.172   0.517 124.579  0.00  0.00    +0.000 A 
ATOM     42  O   UNL     1      -9.854  -0.109 125.385  0.00  0.00    +0.000 OA
BRANCH  38  43
ATOM     43  C   UNL     1      -6.833   3.176 122.090  0.00  0.00    +0.000 C 
ATOM     44  F   UNL     1      -6.241   4.117 122.869  0.00  0.00    +0.000 F 
ATOM     45  F   UNL     1      -5.839   2.569 121.391  0.00  0.00    +0.000 F 
ATOM     46  F   UNL     1      -7.599   3.839 121.186  0.00  0.00    +0.000 F 
ENDBRANCH  38  43
ENDBRANCH  35  36
ENDBRANCH  32  35
ENDBRANCH  30  33
ENDBRANCH   1  30
TORSDOF 7
ENDMDL
MODEL 3
REMARK VINA RESULT:     -11.5      5.284      9.382
REMARK  Name = CHEMBL31651
REMARK  7 active torsions:
REMARK  status: ('A' for Active; 'I' for Inactive)
REMARK    1  A    between atoms: C_2  and  C_3
REMARK    2  A    between atoms: C_3  and  N_4
REMARK    3  A    between atoms: C_6  and  C_7
REMARK    4  A    between atoms: N_15  and  C_16
REMARK    5  A    between atoms: C_16  and  C_17
REMARK    6  A    between atoms: C_21  and  C_22
REMARK    7  A    between atoms: C_27  and  N_28
REMARK                            x       y       z     vdW  Elec       q    Type
REMARK                         _______ _______ _______ _____ _____    ______ ____
ROOT
ATOM      1  C   UNL     1      -7.709   1.426 124.497  0.00  0.00    +0.000 A 
ATOM      2  C   UNL     1      -8.979   1.373 125.068  0.00  0.00    +0.000 A 
ATOM      3  C   UNL     1      -8.952   0.211 125.877  0.00  0.00    +0.000 A 
ATOM      4  C   UNL     1      -8.127  -0.190 126.969  0.00  0.00    +0.000 A 
ATOM      5  C   UNL     1      -7.920  -1.520 127.377  0.00  0.00    +0.000 A 
ATOM      6  C   UNL     1      -8.638  -2.484 126.685  0.00  0.00    +0.000 A 
ATOM      7  C   UNL     1      -9.144  -2.113 125.405  0.00  0.00    +0.000 A 
ATOM      8  C   UNL     1      -8.847  -0.777 124.906  0.00  0.00    +0.000 A 
ATOM      9  O   UNL     1      -7.503  -0.069 124.300  0.00  0.00    +0.000 OA
ENDROOT
BRANCH   5  10
ATOM     10  C   UNL     1      -6.847  -1.876 128.383  0.00  0.00    +0.000 C 
ATOM     11  O   UNL     1      -6.277  -2.961 128.254  0.00  0.00    +0.000 OA
ATOM     12  N   UNL     1      -6.476  -0.907 129.375  0.00  0.00    +0.000 N 
ATOM     13  C   UNL     1      -5.168  -0.236 129.347  0.00  0.00    +0.000 C 
ATOM     14  C   UNL     1      -4.634   0.083 130.778  0.00  0.00    +0.000 C 
ATOM     15  C   UNL     1      -5.667   1.251 131.743  0.00  0.00    +0.000 C 
ATOM     16  C   UNL     1      -6.997   0.101 131.654  0.00  0.00    +0.000 C 
ATOM     17  C   UNL     1      -7.458  -0.210 130.208  0.00  0.00    +0.000 C 
BRANCH  15  18
ATOM     18  N   UNL     1      -5.321   3.044 132.231  0.00  0.00    +0.000 N 
ATOM     19  C   UNL     1      -4.666   2.406 133.314  0.00  0.00    +0.000 C 
ATOM     20  O   UNL     1      -5.127   1.592 134.158  0.00  0.00    +0.000 OA
ATOM     21  O   UNL     1      -3.353   2.487 133.222  0.00  0.00    +0.000 OA
ATOM     22  C   UNL     1      -3.211   3.573 134.044  0.00  0.00    +0.000 C 
ATOM     23  C   UNL     1      -3.077   4.477 132.895  0.00  0.00    +0.000 A 
ATOM     24  C   UNL     1      -1.792   5.233 132.949  0.00  0.00    +0.000 A 
ATOM     25  C   UNL     1      -1.565   6.563 132.771  0.00  0.00    +0.000 A 
ATOM     26  C   UNL     1      -2.766   7.173 132.574  0.00  0.00    +0.000 A 
ATOM     27 CL   UNL     1      -2.513   8.947 132.646  0.00  0.00    +0.000 Cl
ATOM     28  C   UNL     1      -4.151   6.272 132.318  0.00  0.00    +0.000 A 
ATOM     29  C   UNL     1      -4.295   4.623 132.236  0.00  0.00    +0.000 A 
ENDBRANCH  15  18
ENDBRANCH   5  10
BRANCH   1  30
ATOM     30  C   UNL     1      -7.208   2.685 123.663  0.00  0.00    +0.000 C 
BRANCH  30  33
ATOM     31  O   UNL     1      -6.333   5.931 125.123  0.00  0.00    +0.000 OA
ATOM     32  C   UNL     1      -6.145   4.763 124.760  0.00  0.00    +0.000 C 
ATOM     33  N   UNL     1      -7.193   4.088 124.102  0.00  0.00    +0.000 N 
ATOM     34  H   UNL     1      -8.006   4.673 123.954  0.00  0.00    +0.000 HD
BRANCH  32  35
ATOM     35  C   UNL     1      -4.778   4.049 125.055  0.00  0.00    +0.000 C 
BRANCH  35  36
ATOM     36  N   UNL     1      -4.337   4.107 126.478  0.00  0.00    +0.000 N 
ATOM     37  C   UNL     1      -3.868   5.303 127.016  0.00  0.00    +0.000 A 
ATOM     38  C   UNL     1      -3.178   5.340 128.174  0.00  0.00    +0.000 A 
ATOM     39  C   UNL     1      -3.079   4.131 128.972  0.00  0.00    +0.000 A 
ATOM     40  C   UNL     1      -3.667   3.001 128.562  0.00  0.00    +0.000 A 
ATOM     41  C   UNL     1      -4.231   2.907 127.185  0.00  0.00    +0.000 A 
ATOM     42  O   UNL     1      -4.568   1.811 126.748  0.00  0.00    +0.000 OA
BRANCH  38  43
ATOM     43  C   UNL     1      -2.499   6.573 128.702  0.00  0.00    +0.000 C 
ATOM     44  F   UNL     1      -1.550   6.278 129.625  0.00  0.00    +0.000 F 
ATOM     45  F   UNL     1      -1.877   7.264 127.711  0.00  0.00    +0.000 F 
ATOM     46  F   UNL     1      -3.369   7.432 129.291  0.00  0.00    +0.000 F 
ENDBRANCH  38  43
ENDBRANCH  35  36
ENDBRANCH  32  35
ENDBRANCH  30  33
ENDBRANCH   1  30
TORSDOF 7
ENDMDL
MODEL 4
REMARK VINA RESULT:     -11.4      4.549      7.041
REMARK  Name = CHEMBL31651
REMARK  7 active torsions:
REMARK  status: ('A' for Active; 'I' for Inactive)
REMARK    1  A    between atoms: C_2  and  C_3
REMARK    2  A    between atoms: C_3  and  N_4
REMARK    3  A    between atoms: C_6  and  C_7
REMARK    4  A    between atoms: N_15  and  C_16
REMARK    5  A    between atoms: C_16  and  C_17
REMARK    6  A    between atoms: C_21  and  C_22
REMARK    7  A    between atoms: C_27  and  N_28
REMARK                            x       y       z     vdW  Elec       q    Type
REMARK                         _______ _______ _______ _____ _____    ______ ____
ROOT
ATOM      1  C   UNL     1      -9.499   1.809 131.265  0.00  0.00    +0.000 A 
ATOM      2  C   UNL     1      -8.128   2.054 131.304  0.00  0.00    +0.000 A 
ATOM      3  C   UNL     1      -7.541   0.833 130.894  0.00  0.00    +0.000 A 
ATOM      4  C   UNL     1      -7.661   0.051 129.707  0.00  0.00    +0.000 A 
ATOM      5  C   UNL     1      -7.382  -1.325 129.616  0.00  0.00    +0.000 A 
ATOM      6  C   UNL     1      -6.895  -1.920 130.770  0.00  0.00    +0.000 A 
ATOM      7  C   UNL     1      -7.131  -1.234 131.997  0.00  0.00    +0.000 A 
ATOM      8  C   UNL     1      -7.887   0.010 131.958  0.00  0.00    +0.000 A 
ATOM      9  O   UNL     1      -9.469   0.365 131.747  0.00  0.00    +0.000 OA
ENDROOT
BRANCH   5  10
ATOM     10  C   UNL     1      -7.765  -2.126 128.391  0.00  0.00    +0.000 C 
ATOM     11  O   UNL     1      -8.273  -3.235 128.566  0.00  0.00    +0.000 OA
ATOM     12  N   UNL     1      -7.613  -1.527 127.095  0.00  0.00    +0.000 N 
ATOM     13  C   UNL     1      -8.776  -1.144 126.280  0.00  0.00    +0.000 C 
ATOM     14  C   UNL     1      -8.508  -1.304 124.752  0.00  0.00    +0.000 C 
ATOM     15  C   UNL     1      -7.176  -0.232 124.087  0.00  0.00    +0.000 C 
ATOM     16  C   UNL     1      -6.035  -1.036 125.158  0.00  0.00    +0.000 C 
ATOM     17  C   UNL     1      -6.373  -0.879 126.663  0.00  0.00    +0.000 C 
BRANCH  15  18
ATOM     18  N   UNL     1      -7.299   1.278 122.956  0.00  0.00    +0.000 N 
ATOM     19  C   UNL     1      -7.115   1.957 124.186  0.00  0.00    +0.000 C 
ATOM     20  O   UNL     1      -7.797   1.894 125.243  0.00  0.00    +0.000 OA
ATOM     21  O   UNL     1      -5.915   2.496 124.285  0.00  0.00    +0.000 OA
ATOM     22  C   UNL     1      -6.282   3.753 123.881  0.00  0.00    +0.000 C 
ATOM     23  C   UNL     1      -5.766   3.513 122.528  0.00  0.00    +0.000 A 
ATOM     24  C   UNL     1      -4.738   4.527 122.154  0.00  0.00    +0.000 A 
ATOM     25  C   UNL     1      -4.618   5.254 121.009  0.00  0.00    +0.000 A 
ATOM     26  C   UNL     1      -5.674   4.951 120.206  0.00  0.00    +0.000 A 
ATOM     27 CL   UNL     1      -5.695   6.117 118.842  0.00  0.00    +0.000 Cl
ATOM     28  C   UNL     1      -6.685   3.670 120.568  0.00  0.00    +0.000 A 
ATOM     29  C   UNL     1      -6.578   2.615 121.842  0.00  0.00    +0.000 A 
ENDBRANCH  15  18
ENDBRANCH   5  10
BRANCH   1  30
ATOM     30  C   UNL     1     -10.572   2.969 131.454  0.00  0.00    +0.000 C 
BRANCH  30  33
ATOM     31  O   UNL     1     -12.022   5.657 129.430  0.00  0.00    +0.000 OA
ATOM     32  C   UNL     1     -11.397   5.161 130.375  0.00  0.00    +0.000 C 
ATOM     33  N   UNL     1     -11.211   3.764 130.396  0.00  0.00    +0.000 N 
ATOM     34  H   UNL     1     -11.590   3.304 129.577  0.00  0.00    +0.000 HD
BRANCH  32  35
ATOM     35  C   UNL     1     -10.850   6.070 131.532  0.00  0.00    +0.000 C 
BRANCH  35  36
ATOM     36  N   UNL     1      -9.371   6.028 131.714  0.00  0.00    +0.000 N 
ATOM     37  C   UNL     1      -8.819   5.389 132.822  0.00  0.00    +0.000 A 
ATOM     38  C   UNL     1      -7.538   5.586 133.192  0.00  0.00    +0.000 A 
ATOM     39  C   UNL     1      -6.660   6.337 132.313  0.00  0.00    +0.000 A 
ATOM     40  C   UNL     1      -7.118   6.823 131.153  0.00  0.00    +0.000 A 
ATOM     41  C   UNL     1      -8.580   6.797 130.856  0.00  0.00    +0.000 A 
ATOM     42  O   UNL     1      -9.008   7.434 129.899  0.00  0.00    +0.000 OA
BRANCH  38  43
ATOM     43  C   UNL     1      -6.951   5.065 134.474  0.00  0.00    +0.000 C 
ATOM     44  F   UNL     1      -6.394   3.837 134.320  0.00  0.00    +0.000 F 
ATOM     45  F   UNL     1      -5.971   5.881 134.943  0.00  0.00    +0.000 F 
ATOM     46  F   UNL     1      -7.876   4.957 135.462  0.00  0.00    +0.000 F 
ENDBRANCH  38  43
ENDBRANCH  35  36
ENDBRANCH  32  35
ENDBRANCH  30  33
ENDBRANCH   1  30
TORSDOF 7
ENDMDL
MODEL 5
REMARK VINA RESULT:     -11.4      2.832      3.905
REMARK  Name = CHEMBL31651
REMARK  7 active torsions:
REMARK  status: ('A' for Active; 'I' for Inactive)
REMARK    1  A    between atoms: C_2  and  C_3
REMARK    2  A    between atoms: C_3  and  N_4
REMARK    3  A    between atoms: C_6  and  C_7
REMARK    4  A    between atoms: N_15  and  C_16
REMARK    5  A    between atoms: C_16  and  C_17
REMARK    6  A    between atoms: C_21  and  C_22
REMARK    7  A    between atoms: C_27  and  N_28
REMARK                            x       y       z     vdW  Elec       q    Type
REMARK                         _______ _______ _______ _____ _____    ______ ____
ROOT
ATOM      1  C   UNL     1      -7.675   3.868 133.613  0.00  0.00    +0.000 A 
ATOM      2  C   UNL     1      -7.839   4.465 134.861  0.00  0.00    +0.000 A 
ATOM      3  C   UNL     1      -6.551   4.953 135.190  0.00  0.00    +0.000 A 
ATOM      4  C   UNL     1      -5.669   5.870 134.545  0.00  0.00    +0.000 A 
ATOM      5  C   UNL     1      -4.277   5.920 134.738  0.00  0.00    +0.000 A 
ATOM      6  C   UNL     1      -3.765   5.041 135.680  0.00  0.00    +0.000 A 
ATOM      7  C   UNL     1      -4.577   3.920 136.023  0.00  0.00    +0.000 A 
ATOM      8  C   UNL     1      -5.855   3.760 135.343  0.00  0.00    +0.000 A 
ATOM      9  O   UNL     1      -6.284   3.291 133.837  0.00  0.00    +0.000 OA
ENDROOT
BRANCH   5  10
ATOM     10  C   UNL     1      -3.388   6.753 133.840  0.00  0.00    +0.000 C 
ATOM     11  O   UNL     1      -2.528   7.455 134.376  0.00  0.00    +0.000 OA
ATOM     12  N   UNL     1      -3.519   6.620 132.417  0.00  0.00    +0.000 N 
ATOM     13  C   UNL     1      -2.470   5.989 131.601  0.00  0.00    +0.000 C 
ATOM     14  C   UNL     1      -2.363   6.621 130.179  0.00  0.00    +0.000 C 
ATOM     15  C   UNL     1      -3.859   6.427 129.136  0.00  0.00    +0.000 C 
ATOM     16  C   UNL     1      -4.771   7.352 130.324  0.00  0.00    +0.000 C 
ATOM     17  C   UNL     1      -4.809   6.697 131.729  0.00  0.00    +0.000 C 
BRANCH  15  18
ATOM     18  N   UNL     1      -4.131   5.344 127.611  0.00  0.00    +0.000 N 
ATOM     19  C   UNL     1      -4.799   4.532 128.562  0.00  0.00    +0.000 C 
ATOM     20  O   UNL     1      -4.362   4.031 129.631  0.00  0.00    +0.000 OA
ATOM     21  O   UNL     1      -6.109   4.560 128.411  0.00  0.00    +0.000 OA
ATOM     22  C   UNL     1      -6.200   3.411 127.671  0.00  0.00    +0.000 C 
ATOM     23  C   UNL     1      -6.311   4.175 126.423  0.00  0.00    +0.000 A 
ATOM     24  C   UNL     1      -7.565   3.834 125.690  0.00  0.00    +0.000 A 
ATOM     25  C   UNL     1      -7.742   3.538 124.373  0.00  0.00    +0.000 A 
ATOM     26  C   UNL     1      -6.520   3.540 123.773  0.00  0.00    +0.000 A 
ATOM     27 CL   UNL     1      -6.704   2.856 122.125  0.00  0.00    +0.000 Cl
ATOM     28  C   UNL     1      -5.175   4.123 124.574  0.00  0.00    +0.000 A 
ATOM     29  C   UNL     1      -5.096   4.771 126.098  0.00  0.00    +0.000 A 
ENDBRANCH  15  18
ENDBRANCH   5  10
BRANCH   1  30
ATOM     30  C   UNL     1      -8.910   3.356 132.751  0.00  0.00    +0.000 C 
BRANCH  30  33
ATOM     31  O   UNL     1      -9.097   3.571 129.097  0.00  0.00    +0.000 OA
ATOM     32  C   UNL     1      -9.030   3.999 130.256  0.00  0.00    +0.000 C 
ATOM     33  N   UNL     1      -8.923   3.068 131.310  0.00  0.00    +0.000 N 
ATOM     34  H   UNL     1      -8.867   2.110 130.984  0.00  0.00    +0.000 HD
BRANCH  32  35
ATOM     35  C   UNL     1      -9.091   5.542 130.540  0.00  0.00    +0.000 C 
BRANCH  35  36
ATOM     36  N   UNL     1     -10.459   6.132 130.491  0.00  0.00    +0.000 N 
ATOM     37  C   UNL     1     -11.019   6.502 129.271  0.00  0.00    +0.000 A 
ATOM     38  C   UNL     1     -12.097   7.309 129.198  0.00  0.00    +0.000 A 
ATOM     39  C   UNL     1     -12.801   7.653 130.420  0.00  0.00    +0.000 A 
ATOM     40  C   UNL     1     -12.386   7.172 131.598  0.00  0.00    +0.000 A 
ATOM     41  C   UNL     1     -11.074   6.471 131.700  0.00  0.00    +0.000 A 
ATOM     42  O   UNL     1     -10.607   6.230 132.809  0.00  0.00    +0.000 OA
BRANCH  38  43
ATOM     43  C   UNL     1     -12.625   7.880 127.912  0.00  0.00    +0.000 C 
ATOM     44  F   UNL     1     -13.881   7.445 127.638  0.00  0.00    +0.000 F 
ATOM     45  F   UNL     1     -12.684   9.237 127.954  0.00  0.00    +0.000 F 
ATOM     46  F   UNL     1     -11.853   7.555 126.844  0.00  0.00    +0.000 F 
ENDBRANCH  38  43
ENDBRANCH  35  36
ENDBRANCH  32  35
ENDBRANCH  30  33
ENDBRANCH   1  30
TORSDOF 7
ENDMDL
MODEL 6
REMARK VINA RESULT:     -11.3      5.899      8.574
REMARK  Name = CHEMBL31651
REMARK  7 active torsions:
REMARK  status: ('A' for Active; 'I' for Inactive)
REMARK    1  A    between atoms: C_2  and  C_3
REMARK    2  A    between atoms: C_3  and  N_4
REMARK    3  A    between atoms: C_6  and  C_7
REMARK    4  A    between atoms: N_15  and  C_16
REMARK    5  A    between atoms: C_16  and  C_17
REMARK    6  A    between atoms: C_21  and  C_22
REMARK    7  A    between atoms: C_27  and  N_28
REMARK                            x       y       z     vdW  Elec       q    Type
REMARK                         _______ _______ _______ _____ _____    ______ ____
ROOT
ATOM      1  C   UNL     1      -6.733  -1.768 129.874  0.00  0.00    +0.000 A 
ATOM      2  C   UNL     1      -7.865  -1.093 130.325  0.00  0.00    +0.000 A 
ATOM      3  C   UNL     1      -7.352  -0.027 131.103  0.00  0.00    +0.000 A 
ATOM      4  C   UNL     1      -6.472   1.054 130.804  0.00  0.00    +0.000 A 
ATOM      5  C   UNL     1      -5.709   1.760 131.753  0.00  0.00    +0.000 A 
ATOM      6  C   UNL     1      -5.902   1.393 133.076  0.00  0.00    +0.000 A 
ATOM      7  C   UNL     1      -6.478   0.111 133.312  0.00  0.00    +0.000 A 
ATOM      8  C   UNL     1      -6.788  -0.728 132.162  0.00  0.00    +0.000 A 
ATOM      9  O   UNL     1      -5.879  -1.606 131.124  0.00  0.00    +0.000 OA
ENDROOT
BRANCH   5  10
ATOM     10  C   UNL     1      -4.624   2.725 131.329  0.00  0.00    +0.000 C 
ATOM     11  O   UNL     1      -3.757   3.014 132.156  0.00  0.00    +0.000 OA
ATOM     12  N   UNL     1      -4.594   3.183 129.969  0.00  0.00    +0.000 N 
ATOM     13  C   UNL     1      -3.538   2.763 129.035  0.00  0.00    +0.000 C 
ATOM     14  C   UNL     1      -3.182   3.876 128.002  0.00  0.00    +0.000 C 
ATOM     15  C   UNL     1      -4.552   4.348 126.877  0.00  0.00    +0.000 C 
ATOM     16  C   UNL     1      -5.484   4.866 128.278  0.00  0.00    +0.000 C 
ATOM     17  C   UNL     1      -5.772   3.728 129.291  0.00  0.00    +0.000 C 
BRANCH  15  18
ATOM     18  N   UNL     1      -4.764   4.008 125.030  0.00  0.00    +0.000 N 
ATOM     19  C   UNL     1      -5.390   2.837 125.528  0.00  0.00    +0.000 C 
ATOM     20  O   UNL     1      -4.929   1.949 126.292  0.00  0.00    +0.000 OA
ATOM     21  O   UNL     1      -6.700   2.866 125.372  0.00  0.00    +0.000 OA
ATOM     22  C   UNL     1      -6.729   2.140 124.211  0.00  0.00    +0.000 C 
ATOM     23  C   UNL     1      -6.878   3.357 123.405  0.00  0.00    +0.000 A 
ATOM     24  C   UNL     1      -8.111   3.303 122.567  0.00  0.00    +0.000 A 
ATOM     25  C   UNL     1      -8.269   3.589 121.246  0.00  0.00    +0.000 A 
ATOM     26  C   UNL     1      -7.049   3.905 120.733  0.00  0.00    +0.000 A 
ATOM     27 CL   UNL     1      -7.193   3.981 118.947  0.00  0.00    +0.000 Cl
ATOM     28  C   UNL     1      -5.737   4.152 121.738  0.00  0.00    +0.000 A 
ATOM     29  C   UNL     1      -5.694   4.091 123.394  0.00  0.00    +0.000 A 
ENDBRANCH  15  18
ENDBRANCH   5  10
BRANCH   1  30
ATOM     30  C   UNL     1      -6.816  -2.929 128.789  0.00  0.00    +0.000 C 
BRANCH  30  33
ATOM     31  O   UNL     1      -9.720  -3.475 126.622  0.00  0.00    +0.000 OA
ATOM     32  C   UNL     1      -8.659  -2.952 126.986  0.00  0.00    +0.000 C 
ATOM     33  N   UNL     1      -8.029  -3.451 128.144  0.00  0.00    +0.000 N 
ATOM     34  H   UNL     1      -8.513  -4.246 128.544  0.00  0.00    +0.000 HD
BRANCH  32  35
ATOM     35  C   UNL     1      -8.052  -1.745 126.187  0.00  0.00    +0.000 C 
BRANCH  35  36
ATOM     36  N   UNL     1      -7.455  -2.106 124.869  0.00  0.00    +0.000 N 
ATOM     37  C   UNL     1      -6.385  -2.995 124.806  0.00  0.00    +0.000 A 
ATOM     38  C   UNL     1      -5.622  -3.113 123.700  0.00  0.00    +0.000 A 
ATOM     39  C   UNL     1      -6.034  -2.431 122.486  0.00  0.00    +0.000 A 
ATOM     40  C   UNL     1      -7.156  -1.702 122.468  0.00  0.00    +0.000 A 
ATOM     41  C   UNL     1      -7.869  -1.394 123.741  0.00  0.00    +0.000 A 
ATOM     42  O   UNL     1      -8.763  -0.552 123.739  0.00  0.00    +0.000 OA
BRANCH  38  43
ATOM     43  C   UNL     1      -4.355  -3.919 123.643  0.00  0.00    +0.000 C 
ATOM     44  F   UNL     1      -3.307  -3.193 123.178  0.00  0.00    +0.000 F 
ATOM     45  F   UNL     1      -3.997  -4.376 124.872  0.00  0.00    +0.000 F 
ATOM     46  F   UNL     1      -4.468  -5.007 122.839  0.00  0.00    +0.000 F 
ENDBRANCH  38  43
ENDBRANCH  35  36
ENDBRANCH  32  35
ENDBRANCH  30  33
ENDBRANCH   1  30
TORSDOF 7
ENDMDL
MODEL 7
REMARK VINA RESULT:     -11.3      4.493      7.264
REMARK  Name = CHEMBL31651
REMARK  7 active torsions:
REMARK  status: ('A' for Active; 'I' for Inactive)
REMARK    1  A    between atoms: C_2  and  C_3
REMARK    2  A    between atoms: C_3  and  N_4
REMARK    3  A    between atoms: C_6  and  C_7
REMARK    4  A    between atoms: N_15  and  C_16
REMARK    5  A    between atoms: C_16  and  C_17
REMARK    6  A    between atoms: C_21  and  C_22
REMARK    7  A    between atoms: C_27  and  N_28
REMARK                            x       y       z     vdW  Elec       q    Type
REMARK                         _______ _______ _______ _____ _____    ______ ____
ROOT
ATOM      1  C   UNL     1      -5.351   5.593 134.001  0.00  0.00    +0.000 A 
ATOM      2  C   UNL     1      -6.188   5.406 135.100  0.00  0.00    +0.000 A 
ATOM      3  C   UNL     1      -7.108   4.416 134.676  0.00  0.00    +0.000 A 
ATOM      4  C   UNL     1      -6.944   3.079 134.208  0.00  0.00    +0.000 A 
ATOM      5  C   UNL     1      -7.875   2.382 133.417  0.00  0.00    +0.000 A 
ATOM      6  C   UNL     1      -9.059   3.051 133.146  0.00  0.00    +0.000 A 
ATOM      7  C   UNL     1      -9.045   4.469 133.298  0.00  0.00    +0.000 A 
ATOM      8  C   UNL     1      -7.797   5.110 133.690  0.00  0.00    +0.000 A 
ATOM      9  O   UNL     1      -6.398   5.433 132.908  0.00  0.00    +0.000 OA
ENDROOT
BRANCH   5  10
ATOM     10  C   UNL     1      -7.521   1.064 132.764  0.00  0.00    +0.000 C 
ATOM     11  O   UNL     1      -7.545   0.051 133.465  0.00  0.00    +0.000 OA
ATOM     12  N   UNL     1      -7.270   1.035 131.351  0.00  0.00    +0.000 N 
ATOM     13  C   UNL     1      -8.200   0.387 130.414  0.00  0.00    +0.000 C 
ATOM     14  C   UNL     1      -7.466  -0.252 129.195  0.00  0.00    +0.000 C 
ATOM     15  C   UNL     1      -6.576   0.940 128.121  0.00  0.00    +0.000 C 
ATOM     16  C   UNL     1      -5.561   1.372 129.494  0.00  0.00    +0.000 C 
ATOM     17  C   UNL     1      -6.348   1.962 130.691  0.00  0.00    +0.000 C 
BRANCH  15  18
ATOM     18  N   UNL     1      -6.989   1.527 126.373  0.00  0.00    +0.000 N 
ATOM     19  C   UNL     1      -7.112   2.771 127.041  0.00  0.00    +0.000 C 
ATOM     20  O   UNL     1      -7.850   3.086 128.011  0.00  0.00    +0.000 OA
ATOM     21  O   UNL     1      -6.116   3.588 126.762  0.00  0.00    +0.000 OA
ATOM     22  C   UNL     1      -6.765   4.286 125.778  0.00  0.00    +0.000 C 
ATOM     23  C   UNL     1      -6.078   3.525 124.728  0.00  0.00    +0.000 A 
ATOM     24  C   UNL     1      -5.327   4.429 123.808  0.00  0.00    +0.000 A 
ATOM     25  C   UNL     1      -5.298   4.444 122.447  0.00  0.00    +0.000 A 
ATOM     26  C   UNL     1      -6.153   3.486 121.996  0.00  0.00    +0.000 A 
ATOM     27 CL   UNL     1      -6.355   3.702 120.227  0.00  0.00    +0.000 Cl
ATOM     28  C   UNL     1      -6.814   2.366 123.046  0.00  0.00    +0.000 A 
ATOM     29  C   UNL     1      -6.550   2.216 124.676  0.00  0.00    +0.000 A 
ENDBRANCH  15  18
ENDBRANCH   5  10
BRANCH   1  30
ATOM     30  C   UNL     1      -4.030   6.476 134.084  0.00  0.00    +0.000 C 
BRANCH  30  33
ATOM     31  O   UNL     1      -1.100   4.896 132.551  0.00  0.00    +0.000 OA
ATOM     32  C   UNL     1      -2.296   5.186 132.677  0.00  0.00    +0.000 C 
ATOM     33  N   UNL     1      -2.668   6.066 133.713  0.00  0.00    +0.000 N 
ATOM     34  H   UNL     1      -1.874   6.414 134.237  0.00  0.00    +0.000 HD
BRANCH  32  35
ATOM     35  C   UNL     1      -3.371   4.561 131.717  0.00  0.00    +0.000 C 
BRANCH  35  36
ATOM     36  N   UNL     1      -3.268   4.997 130.296  0.00  0.00    +0.000 N 
ATOM     37  C   UNL     1      -3.178   4.050 129.278  0.00  0.00    +0.000 A 
ATOM     38  C   UNL     1      -2.776   4.379 128.033  0.00  0.00    +0.000 A 
ATOM     39  C   UNL     1      -2.608   5.781 127.697  0.00  0.00    +0.000 A 
ATOM     40  C   UNL     1      -2.852   6.730 128.609  0.00  0.00    +0.000 A 
ATOM     41  C   UNL     1      -3.076   6.357 130.035  0.00  0.00    +0.000 A 
ATOM     42  O   UNL     1      -3.082   7.236 130.892  0.00  0.00    +0.000 OA
BRANCH  38  43
ATOM     43  C   UNL     1      -2.490   3.371 126.956  0.00  0.00    +0.000 C 
ATOM     44  F   UNL     1      -3.308   2.291 127.036  0.00  0.00    +0.000 F 
ATOM     45  F   UNL     1      -2.665   3.901 125.717  0.00  0.00    +0.000 F 
ATOM     46  F   UNL     1      -1.216   2.905 127.006  0.00  0.00    +0.000 F 
ENDBRANCH  38  43
ENDBRANCH  35  36
ENDBRANCH  32  35
ENDBRANCH  30  33
ENDBRANCH   1  30
TORSDOF 7
ENDMDL
MODEL 8
REMARK VINA RESULT:     -11.1      1.669      2.069
REMARK  Name = CHEMBL31651
REMARK  7 active torsions:
REMARK  status: ('A' for Active; 'I' for Inactive)
REMARK    1  A    between atoms: C_2  and  C_3
REMARK    2  A    between atoms: C_3  and  N_4
REMARK    3  A    between atoms: C_6  and  C_7
REMARK    4  A    between atoms: N_15  and  C_16
REMARK    5  A    between atoms: C_16  and  C_17
REMARK    6  A    between atoms: C_21  and  C_22
REMARK    7  A    between atoms: C_27  and  N_28
REMARK                            x       y       z     vdW  Elec       q    Type
REMARK                         _______ _______ _______ _____ _____    ______ ____
ROOT
ATOM      1  C   UNL     1      -5.959   4.573 133.003  0.00  0.00    +0.000 A 
ATOM      2  C   UNL     1      -5.406   5.759 133.483  0.00  0.00    +0.000 A 
ATOM      3  C   UNL     1      -4.466   6.135 132.492  0.00  0.00    +0.000 A 
ATOM      4  C   UNL     1      -4.588   6.417 131.100  0.00  0.00    +0.000 A 
ATOM      5  C   UNL     1      -3.537   6.340 130.167  0.00  0.00    +0.000 A 
ATOM      6  C   UNL     1      -2.290   6.026 130.685  0.00  0.00    +0.000 A 
ATOM      7  C   UNL     1      -2.264   5.403 131.968  0.00  0.00    +0.000 A 
ATOM      8  C   UNL     1      -3.534   5.113 132.620  0.00  0.00    +0.000 A 
ATOM      9  O   UNL     1      -4.699   3.991 132.377  0.00  0.00    +0.000 OA
ENDROOT
BRANCH   5  10
ATOM     10  C   UNL     1      -3.800   6.417 128.679  0.00  0.00    +0.000 C 
ATOM     11  O   UNL     1      -3.441   7.435 128.084  0.00  0.00    +0.000 OA
ATOM     12  N   UNL     1      -4.362   5.276 128.013  0.00  0.00    +0.000 N 
ATOM     13  C   UNL     1      -3.575   4.468 127.068  0.00  0.00    +0.000 C 
ATOM     14  C   UNL     1      -4.450   3.883 125.916  0.00  0.00    +0.000 C 
ATOM     15  C   UNL     1      -5.755   2.714 126.458  0.00  0.00    +0.000 C 
ATOM     16  C   UNL     1      -6.485   4.012 127.398  0.00  0.00    +0.000 C 
ATOM     17  C   UNL     1      -5.556   4.583 128.500  0.00  0.00    +0.000 C 
BRANCH  15  18
ATOM     18  N   UNL     1      -5.864   0.841 126.230  0.00  0.00    +0.000 N 
ATOM     19  C   UNL     1      -7.043   1.202 125.530  0.00  0.00    +0.000 C 
ATOM     20  O   UNL     1      -8.041   1.855 125.933  0.00  0.00    +0.000 OA
ATOM     21  O   UNL     1      -6.914   1.057 124.225  0.00  0.00    +0.000 OA
ATOM     22  C   UNL     1      -7.496  -0.180 124.153  0.00  0.00    +0.000 C 
ATOM     23  C   UNL     1      -6.186  -0.838 124.083  0.00  0.00    +0.000 A 
ATOM     24  C   UNL     1      -6.064  -1.670 122.851  0.00  0.00    +0.000 A 
ATOM     25  C   UNL     1      -5.616  -2.948 122.714  0.00  0.00    +0.000 A 
ATOM     26  C   UNL     1      -5.320  -3.427 123.953  0.00  0.00    +0.000 A 
ATOM     27 CL   UNL     1      -5.026  -5.191 123.818  0.00  0.00    +0.000 Cl
ATOM     28  C   UNL     1      -5.274  -2.406 125.276  0.00  0.00    +0.000 A 
ATOM     29  C   UNL     1      -5.531  -0.769 125.310  0.00  0.00    +0.000 A 
ENDBRANCH  15  18
ENDBRANCH   5  10
BRANCH   1  30
ATOM     30  C   UNL     1      -7.216   3.885 133.693  0.00  0.00    +0.000 C 
BRANCH  30  33
ATOM     31  O   UNL     1     -10.056   3.051 131.532  0.00  0.00    +0.000 OA
ATOM     32  C   UNL     1      -9.090   3.713 131.929  0.00  0.00    +0.000 C 
ATOM     33  N   UNL     1      -8.342   3.224 133.019  0.00  0.00    +0.000 N 
ATOM     34  H   UNL     1      -8.668   2.321 133.345  0.00  0.00    +0.000 HD
BRANCH  32  35
ATOM     35  C   UNL     1      -8.728   5.080 131.246  0.00  0.00    +0.000 C 
BRANCH  35  36
ATOM     36  N   UNL     1      -9.887   5.811 130.660  0.00  0.00    +0.000 N 
ATOM     37  C   UNL     1      -9.981   5.984 129.280  0.00  0.00    +0.000 A 
ATOM     38  C   UNL     1     -10.821   6.884 128.731  0.00  0.00    +0.000 A 
ATOM     39  C   UNL     1     -11.781   7.561 129.585  0.00  0.00    +0.000 A 
ATOM     40  C   UNL     1     -11.830   7.290 130.895  0.00  0.00    +0.000 A 
ATOM     41  C   UNL     1     -10.760   6.469 131.530  0.00  0.00    +0.000 A 
ATOM     42  O   UNL     1     -10.696   6.410 132.754  0.00  0.00    +0.000 OA
BRANCH  38  43
ATOM     43  C   UNL     1     -10.830   7.234 127.270  0.00  0.00    +0.000 C 
ATOM     44  F   UNL     1     -10.678   8.567 127.062  0.00  0.00    +0.000 F 
ATOM     45  F   UNL     1      -9.818   6.619 126.603  0.00  0.00    +0.000 F 
ATOM     46  F   UNL     1     -11.984   6.868 126.655  0.00  0.00    +0.000 F 
ENDBRANCH  38  43
ENDBRANCH  35  36
ENDBRANCH  32  35
ENDBRANCH  30  33
ENDBRANCH   1  30
TORSDOF 7
ENDMDL
MODEL 9
REMARK VINA RESULT:     -11.0      5.102      9.622
REMARK  Name = CHEMBL31651
REMARK  7 active torsions:
REMARK  status: ('A' for Active; 'I' for Inactive)
REMARK    1  A    between atoms: C_2  and  C_3
REMARK    2  A    between atoms: C_3  and  N_4
REMARK    3  A    between atoms: C_6  and  C_7
REMARK    4  A    between atoms: N_15  and  C_16
REMARK    5  A    between atoms: C_16  and  C_17
REMARK    6  A    between atoms: C_21  and  C_22
REMARK    7  A    between atoms: C_27  and  N_28
REMARK                            x       y       z     vdW  Elec       q    Type
REMARK                         _______ _______ _______ _____ _____    ______ ____
ROOT
ATOM      1  C   UNL     1      -7.490  -2.828 130.545  0.00  0.00    +0.000 A 
ATOM      2  C   UNL     1      -6.493  -3.144 129.623  0.00  0.00    +0.000 A 
ATOM      3  C   UNL     1      -6.877  -2.461 128.443  0.00  0.00    +0.000 A 
ATOM      4  C   UNL     1      -7.112  -1.085 128.153  0.00  0.00    +0.000 A 
ATOM      5  C   UNL     1      -7.902  -0.608 127.091  0.00  0.00    +0.000 A 
ATOM      6  C   UNL     1      -8.422  -1.574 126.244  0.00  0.00    +0.000 A 
ATOM      7  C   UNL     1      -8.486  -2.906 126.749  0.00  0.00    +0.000 A 
ATOM      8  C   UNL     1      -8.038  -3.149 128.114  0.00  0.00    +0.000 A 
ATOM      9  O   UNL     1      -8.672  -2.829 129.586  0.00  0.00    +0.000 OA
ENDROOT
BRANCH   5  10
ATOM     10  C   UNL     1      -8.297   0.850 126.998  0.00  0.00    +0.000 C 
ATOM     11  O   UNL     1      -9.472   1.110 126.730  0.00  0.00    +0.000 OA
ATOM     12  N   UNL     1      -7.323   1.855 127.318  0.00  0.00    +0.000 N 
ATOM     13  C   UNL     1      -7.436   2.682 128.529  0.00  0.00    +0.000 C 
ATOM     14  C   UNL     1      -6.876   4.122 128.318  0.00  0.00    +0.000 C 
ATOM     15  C   UNL     1      -5.083   4.204 127.937  0.00  0.00    +0.000 C 
ATOM     16  C   UNL     1      -5.382   3.271 126.474  0.00  0.00    +0.000 C 
ATOM     17  C   UNL     1      -5.977   1.865 126.742  0.00  0.00    +0.000 C 
BRANCH  15  18
ATOM     18  N   UNL     1      -3.652   4.815 129.009  0.00  0.00    +0.000 N 
ATOM     19  C   UNL     1      -4.043   6.061 128.460  0.00  0.00    +0.000 C 
ATOM     20  O   UNL     1      -4.131   6.410 127.253  0.00  0.00    +0.000 OA
ATOM     21  O   UNL     1      -4.647   6.830 129.346  0.00  0.00    +0.000 OA
ATOM     22  C   UNL     1      -3.541   7.561 129.689  0.00  0.00    +0.000 C 
ATOM     23  C   UNL     1      -3.345   6.770 130.910  0.00  0.00    +0.000 A 
ATOM     24  C   UNL     1      -3.348   7.639 132.122  0.00  0.00    +0.000 A 
ATOM     25  C   UNL     1      -2.482   7.657 133.173  0.00  0.00    +0.000 A 
ATOM     26  C   UNL     1      -1.504   6.743 132.929  0.00  0.00    +0.000 A 
ATOM     27 CL   UNL     1      -0.205   6.973 134.144  0.00  0.00    +0.000 Cl
ATOM     28  C   UNL     1      -1.646   5.654 131.669  0.00  0.00    +0.000 A 
ATOM     29  C   UNL     1      -2.903   5.487 130.602  0.00  0.00    +0.000 A 
ENDBRANCH  15  18
ENDBRANCH   5  10
BRANCH   1  30
ATOM     30  C   UNL     1      -7.371  -3.212 132.085  0.00  0.00    +0.000 C 
BRANCH  30  33
ATOM     31  O   UNL     1      -6.712  -1.200 135.075  0.00  0.00    +0.000 OA
ATOM     32  C   UNL     1      -6.433  -1.927 134.114  0.00  0.00    +0.000 C 
ATOM     33  N   UNL     1      -7.468  -2.300 133.233  0.00  0.00    +0.000 N 
ATOM     34  H   UNL     1      -8.358  -1.878 133.471  0.00  0.00    +0.000 HD
BRANCH  32  35
ATOM     35  C   UNL     1      -4.964  -2.439 133.903  0.00  0.00    +0.000 C 
BRANCH  35  36
ATOM     36  N   UNL     1      -4.291  -1.918 132.679  0.00  0.00    +0.000 N 
ATOM     37  C   UNL     1      -4.444  -0.583 132.311  0.00  0.00    +0.000 A 
ATOM     38  C   UNL     1      -4.125  -0.144 131.076  0.00  0.00    +0.000 A 
ATOM     39  C   UNL     1      -3.436  -1.043 130.168  0.00  0.00    +0.000 A 
ATOM     40  C   UNL     1      -3.121  -2.285 130.554  0.00  0.00    +0.000 A 
ATOM     41  C   UNL     1      -3.671  -2.835 131.827  0.00  0.00    +0.000 A 
ATOM     42  O   UNL     1      -3.556  -4.034 132.061  0.00  0.00    +0.000 OA
BRANCH  38  43
ATOM     43  C   UNL     1      -4.438   1.237 130.576  0.00  0.00    +0.000 C 
ATOM     44  F   UNL     1      -4.145   1.383 129.259  0.00  0.00    +0.000 F 
ATOM     45  F   UNL     1      -5.757   1.533 130.715  0.00  0.00    +0.000 F 
ATOM     46  F   UNL     1      -3.749   2.199 131.242  0.00  0.00    +0.000 F 
ENDBRANCH  38  43
ENDBRANCH  35  36
ENDBRANCH  32  35
ENDBRANCH  30  33
ENDBRANCH   1  30
TORSDOF 7
ENDMDL
