MODEL 1
REMARK VINA RESULT:      -8.3      0.000      0.000
REMARK  Name = CHEMBL550244
REMARK  9 active torsions:
REMARK  status: ('A' for Active; 'I' for Inactive)
REMARK    1  A    between atoms: C_1  and  O_2
REMARK    2  A    between atoms: O_2  and  C_3
REMARK    3  A    between atoms: C_6  and  N_7
REMARK    4  A    between atoms: C_8  and  C_9
REMARK    5  A    between atoms: C_12  and  C_13
REMARK    6  A    between atoms: C_16  and  O_17
REMARK    7  A    between atoms: O_17  and  C_18
REMARK    8  A    between atoms: C_19  and  C_20
REMARK    9  A    between atoms: C_24  and  C_25
REMARK                            x       y       z     vdW  Elec       q    Type
REMARK                         _______ _______ _______ _____ _____    ______ ____
ROOT
ATOM      1  C   UNL     1      -6.778   5.783 131.499  0.00  0.00    +0.000 A 
ATOM      2  C   UNL     1      -7.271   6.949 130.915  0.00  0.00    +0.000 A 
ATOM      3  N   UNL     1      -8.432   6.998 130.217  0.00  0.00    +0.000 NA
ATOM      4  C   UNL     1      -9.067   5.816 130.044  0.00  0.00    +0.000 A 
ATOM      5  C   UNL     1      -8.556   4.639 130.585  0.00  0.00    +0.000 A 
ATOM      6  N   UNL     1      -7.420   4.600 131.339  0.00  0.00    +0.000 NA
ENDROOT
BRANCH   1  12
ATOM      7  N   UNL     1      -4.299   5.410 131.943  0.00  0.00    +0.000 N 
ATOM      8  C   UNL     1      -3.537   5.441 133.108  0.00  0.00    +0.000 A 
ATOM      9  C   UNL     1      -2.067   5.274 133.261  0.00  0.00    +0.000 C 
ATOM     10  N   UNL     1      -4.316   5.781 134.119  0.00  0.00    +0.000 NA
ATOM     11  N   UNL     1      -5.576   6.001 133.645  0.00  0.00    +0.000 NA
ATOM     12  C   UNL     1      -5.585   5.782 132.339  0.00  0.00    +0.000 A 
BRANCH   7  16
ATOM     13  C   UNL     1      -3.025   4.423 128.088  0.00  0.00    +0.000 A 
ATOM     14  C   UNL     1      -3.417   3.396 128.934  0.00  0.00    +0.000 A 
ATOM     15  C   UNL     1      -3.863   3.712 130.221  0.00  0.00    +0.000 A 
ATOM     16  C   UNL     1      -3.903   5.049 130.626  0.00  0.00    +0.000 A 
ATOM     17  C   UNL     1      -3.434   6.006 129.737  0.00  0.00    +0.000 A 
ATOM     18  N   UNL     1      -2.994   5.715 128.484  0.00  0.00    +0.000 NA
BRANCH  13  20
ATOM     19  C   UNL     1      -1.746   3.035 126.702  0.00  0.00    +0.000 C 
ATOM     20  O   UNL     1      -2.572   4.193 126.814  0.00  0.00    +0.000 OA
ENDBRANCH  13  20
ENDBRANCH   7  16
ENDBRANCH   1  12
BRANCH   4  21
ATOM     21  O   UNL     1     -10.230   5.726 129.283  0.00  0.00    +0.000 OA
BRANCH  21  22
ATOM     22  C   UNL     1     -11.135   6.773 129.327  0.00  0.00    +0.000 A 
ATOM     23  C   UNL     1     -11.815   7.142 130.506  0.00  0.00    +0.000 A 
ATOM     24  C   UNL     1     -11.665   6.428 131.820  0.00  0.00    +0.000 C 
ATOM     25  C   UNL     1     -12.696   8.238 130.470  0.00  0.00    +0.000 A 
ATOM     26  C   UNL     1     -12.870   8.985 129.309  0.00  0.00    +0.000 A 
ATOM     27  C   UNL     1     -12.151   8.656 128.165  0.00  0.00    +0.000 A 
ATOM     28  C   UNL     1     -11.273   7.560 128.161  0.00  0.00    +0.000 A 
ATOM     29  C   UNL     1     -10.503   7.262 126.905  0.00  0.00    +0.000 C 
ENDBRANCH  21  22
ENDBRANCH   4  21
TORSDOF 5
ENDMDL
MODEL 2
REMARK VINA RESULT:      -8.1      5.517      7.676
REMARK  Name = CHEMBL550244
REMARK  9 active torsions:
REMARK  status: ('A' for Active; 'I' for Inactive)
REMARK    1  A    between atoms: C_1  and  O_2
REMARK    2  A    between atoms: O_2  and  C_3
REMARK    3  A    between atoms: C_6  and  N_7
REMARK    4  A    between atoms: C_8  and  C_9
REMARK    5  A    between atoms: C_12  and  C_13
REMARK    6  A    between atoms: C_16  and  O_17
REMARK    7  A    between atoms: O_17  and  C_18
REMARK    8  A    between atoms: C_19  and  C_20
REMARK    9  A    between atoms: C_24  and  C_25
REMARK                            x       y       z     vdW  Elec       q    Type
REMARK                         _______ _______ _______ _____ _____    ______ ____
ROOT
ATOM      1  C   UNL     1      -6.776   3.842 125.562  0.00  0.00    +0.000 A 
ATOM      2  C   UNL     1      -7.878   4.509 126.095  0.00  0.00    +0.000 A 
ATOM      3  N   UNL     1      -8.246   4.414 127.397  0.00  0.00    +0.000 NA
ATOM      4  C   UNL     1      -7.520   3.561 128.155  0.00  0.00    +0.000 A 
ATOM      5  C   UNL     1      -6.446   2.855 127.617  0.00  0.00    +0.000 A 
ATOM      6  N   UNL     1      -6.039   2.997 126.323  0.00  0.00    +0.000 NA
ENDROOT
BRANCH   1  12
ATOM      7  N   UNL     1      -6.643   3.238 123.092  0.00  0.00    +0.000 N 
ATOM      8  C   UNL     1      -5.896   3.754 122.036  0.00  0.00    +0.000 A 
ATOM      9  C   UNL     1      -5.935   3.376 120.598  0.00  0.00    +0.000 C 
ATOM     10  N   UNL     1      -5.186   4.777 122.476  0.00  0.00    +0.000 NA
ATOM     11  N   UNL     1      -5.464   4.966 123.797  0.00  0.00    +0.000 NA
ATOM     12  C   UNL     1      -6.337   4.050 124.186  0.00  0.00    +0.000 A 
BRANCH   7  16
ATOM     13  C   UNL     1      -9.130  -0.116 123.240  0.00  0.00    +0.000 A 
ATOM     14  C   UNL     1      -9.717   1.130 123.075  0.00  0.00    +0.000 A 
ATOM     15  C   UNL     1      -8.896   2.260 123.006  0.00  0.00    +0.000 A 
ATOM     16  C   UNL     1      -7.510   2.111 123.105  0.00  0.00    +0.000 A 
ATOM     17  C   UNL     1      -7.014   0.835 123.331  0.00  0.00    +0.000 A 
ATOM     18  N   UNL     1      -7.797  -0.273 123.404  0.00  0.00    +0.000 NA
BRANCH  13  20
ATOM     19  C   UNL     1      -9.076  -2.457 123.310  0.00  0.00    +0.000 C 
ATOM     20  O   UNL     1      -9.867  -1.270 123.322  0.00  0.00    +0.000 OA
ENDBRANCH  13  20
ENDBRANCH   7  16
ENDBRANCH   1  12
BRANCH   4  21
ATOM     21  O   UNL     1      -7.846   3.322 129.488  0.00  0.00    +0.000 OA
BRANCH  21  22
ATOM     22  C   UNL     1      -8.332   4.372 130.250  0.00  0.00    +0.000 A 
ATOM     23  C   UNL     1      -9.676   4.451 130.668  0.00  0.00    +0.000 A 
ATOM     24  C   UNL     1     -10.728   3.439 130.308  0.00  0.00    +0.000 C 
ATOM     25  C   UNL     1     -10.080   5.538 131.464  0.00  0.00    +0.000 A 
ATOM     26  C   UNL     1      -9.169   6.503 131.880  0.00  0.00    +0.000 A 
ATOM     27  C   UNL     1      -7.831   6.390 131.518  0.00  0.00    +0.000 A 
ATOM     28  C   UNL     1      -7.396   5.325 130.712  0.00  0.00    +0.000 A 
ATOM     29  C   UNL     1      -5.936   5.236 130.368  0.00  0.00    +0.000 C 
ENDBRANCH  21  22
ENDBRANCH   4  21
TORSDOF 5
ENDMDL
MODEL 3
REMARK VINA RESULT:      -8.0      4.680      6.089
REMARK  Name = CHEMBL550244
REMARK  9 active torsions:
REMARK  status: ('A' for Active; 'I' for Inactive)
REMARK    1  A    between atoms: C_1  and  O_2
REMARK    2  A    between atoms: O_2  and  C_3
REMARK    3  A    between atoms: C_6  and  N_7
REMARK    4  A    between atoms: C_8  and  C_9
REMARK    5  A    between atoms: C_12  and  C_13
REMARK    6  A    between atoms: C_16  and  O_17
REMARK    7  A    between atoms: O_17  and  C_18
REMARK    8  A    between atoms: C_19  and  C_20
REMARK    9  A    between atoms: C_24  and  C_25
REMARK                            x       y       z     vdW  Elec       q    Type
REMARK                         _______ _______ _______ _____ _____    ______ ____
ROOT
ATOM      1  C   UNL     1      -8.209   2.347 128.555  0.00  0.00    +0.000 A 
ATOM      2  C   UNL     1      -7.387   3.377 128.102  0.00  0.00    +0.000 A 
ATOM      3  N   UNL     1      -7.546   4.672 128.471  0.00  0.00    +0.000 NA
ATOM      4  C   UNL     1      -8.613   4.935 129.260  0.00  0.00    +0.000 A 
ATOM      5  C   UNL     1      -9.466   3.916 129.679  0.00  0.00    +0.000 A 
ATOM      6  N   UNL     1      -9.271   2.605 129.357  0.00  0.00    +0.000 NA
ENDROOT
BRANCH   1  12
ATOM      7  N   UNL     1      -8.047   0.363 126.968  0.00  0.00    +0.000 N 
ATOM      8  C   UNL     1      -7.840  -0.998 127.181  0.00  0.00    +0.000 A 
ATOM      9  C   UNL     1      -7.692  -2.084 126.175  0.00  0.00    +0.000 C 
ATOM     10  N   UNL     1      -7.656  -1.205 128.472  0.00  0.00    +0.000 NA
ATOM     11  N   UNL     1      -7.712  -0.006 129.119  0.00  0.00    +0.000 NA
ATOM     12  C   UNL     1      -7.948   0.948 128.231  0.00  0.00    +0.000 A 
BRANCH   7  16
ATOM     13  C   UNL     1      -8.799   2.292 123.339  0.00  0.00    +0.000 A 
ATOM     14  C   UNL     1      -9.870   1.729 124.018  0.00  0.00    +0.000 A 
ATOM     15  C   UNL     1      -9.636   1.096 125.243  0.00  0.00    +0.000 A 
ATOM     16  C   UNL     1      -8.336   1.042 125.753  0.00  0.00    +0.000 A 
ATOM     17  C   UNL     1      -7.317   1.576 124.977  0.00  0.00    +0.000 A 
ATOM     18  N   UNL     1      -7.527   2.192 123.784  0.00  0.00    +0.000 NA
BRANCH  13  20
ATOM     19  C   UNL     1      -7.725   3.434 121.599  0.00  0.00    +0.000 C 
ATOM     20  O   UNL     1      -8.947   2.925 122.131  0.00  0.00    +0.000 OA
ENDBRANCH  13  20
ENDBRANCH   7  16
ENDBRANCH   1  12
BRANCH   4  21
ATOM     21  O   UNL     1      -8.923   6.236 129.646  0.00  0.00    +0.000 OA
BRANCH  21  22
ATOM     22  C   UNL     1     -10.235   6.536 129.974  0.00  0.00    +0.000 A 
ATOM     23  C   UNL     1     -10.723   6.472 131.294  0.00  0.00    +0.000 A 
ATOM     24  C   UNL     1      -9.898   6.041 132.475  0.00  0.00    +0.000 C 
ATOM     25  C   UNL     1     -12.063   6.820 131.544  0.00  0.00    +0.000 A 
ATOM     26  C   UNL     1     -12.894   7.268 130.521  0.00  0.00    +0.000 A 
ATOM     27  C   UNL     1     -12.391   7.390 129.230  0.00  0.00    +0.000 A 
ATOM     28  C   UNL     1     -11.062   7.037 128.942  0.00  0.00    +0.000 A 
ATOM     29  C   UNL     1     -10.563   7.209 127.536  0.00  0.00    +0.000 C 
ENDBRANCH  21  22
ENDBRANCH   4  21
TORSDOF 5
ENDMDL
MODEL 4
REMARK VINA RESULT:      -7.8      5.754      8.368
REMARK  Name = CHEMBL550244
REMARK  9 active torsions:
REMARK  status: ('A' for Active; 'I' for Inactive)
REMARK    1  A    between atoms: C_1  and  O_2
REMARK    2  A    between atoms: O_2  and  C_3
REMARK    3  A    between atoms: C_6  and  N_7
REMARK    4  A    between atoms: C_8  and  C_9
REMARK    5  A    between atoms: C_12  and  C_13
REMARK    6  A    between atoms: C_16  and  O_17
REMARK    7  A    between atoms: O_17  and  C_18
REMARK    8  A    between atoms: C_19  and  C_20
REMARK    9  A    between atoms: C_24  and  C_25
REMARK                            x       y       z     vdW  Elec       q    Type
REMARK                         _______ _______ _______ _____ _____    ______ ____
ROOT
ATOM      1  C   UNL     1      -7.834   2.518 127.725  0.00  0.00    +0.000 A 
ATOM      2  C   UNL     1      -6.503   2.211 127.451  0.00  0.00    +0.000 A 
ATOM      3  N   UNL     1      -6.113   1.056 126.857  0.00  0.00    +0.000 NA
ATOM      4  C   UNL     1      -7.094   0.160 126.607  0.00  0.00    +0.000 A 
ATOM      5  C   UNL     1      -8.422   0.440 126.922  0.00  0.00    +0.000 A 
ATOM      6  N   UNL     1      -8.822   1.627 127.463  0.00  0.00    +0.000 NA
ENDROOT
BRANCH   1  12
ATOM      7  N   UNL     1      -8.360   4.144 129.612  0.00  0.00    +0.000 N 
ATOM      8  C   UNL     1      -8.895   5.430 129.624  0.00  0.00    +0.000 A 
ATOM      9  C   UNL     1      -9.106   6.338 130.784  0.00  0.00    +0.000 C 
ATOM     10  N   UNL     1      -9.094   5.821 128.378  0.00  0.00    +0.000 NA
ATOM     11  N   UNL     1      -8.680   4.831 127.538  0.00  0.00    +0.000 NA
ATOM     12  C   UNL     1      -8.237   3.814 128.261  0.00  0.00    +0.000 A 
BRANCH   7  16
ATOM     13  C   UNL     1      -7.347   1.777 132.902  0.00  0.00    +0.000 A 
ATOM     14  C   UNL     1      -8.643   1.701 132.412  0.00  0.00    +0.000 A 
ATOM     15  C   UNL     1      -8.991   2.473 131.300  0.00  0.00    +0.000 A 
ATOM     16  C   UNL     1      -8.033   3.303 130.710  0.00  0.00    +0.000 A 
ATOM     17  C   UNL     1      -6.781   3.364 131.304  0.00  0.00    +0.000 A 
ATOM     18  N   UNL     1      -6.427   2.622 132.387  0.00  0.00    +0.000 NA
BRANCH  13  20
ATOM     19  C   UNL     1      -6.316  -0.188 133.652  0.00  0.00    +0.000 C 
ATOM     20  O   UNL     1      -6.931   1.055 133.991  0.00  0.00    +0.000 OA
ENDBRANCH  13  20
ENDBRANCH   7  16
ENDBRANCH   1  12
BRANCH   4  21
ATOM     21  O   UNL     1      -6.809  -1.092 126.067  0.00  0.00    +0.000 OA
BRANCH  21  22
ATOM     22  C   UNL     1      -7.678  -1.623 125.129  0.00  0.00    +0.000 A 
ATOM     23  C   UNL     1      -7.710  -1.188 123.789  0.00  0.00    +0.000 A 
ATOM     24  C   UNL     1      -6.843  -0.088 123.242  0.00  0.00    +0.000 C 
ATOM     25  C   UNL     1      -8.604  -1.802 122.893  0.00  0.00    +0.000 A 
ATOM     26  C   UNL     1      -9.419  -2.856 123.297  0.00  0.00    +0.000 A 
ATOM     27  C   UNL     1      -9.341  -3.324 124.604  0.00  0.00    +0.000 A 
ATOM     28  C   UNL     1      -8.469  -2.725 125.529  0.00  0.00    +0.000 A 
ATOM     29  C   UNL     1      -8.406  -3.284 126.922  0.00  0.00    +0.000 C 
ENDBRANCH  21  22
ENDBRANCH   4  21
TORSDOF 5
ENDMDL
MODEL 5
REMARK VINA RESULT:      -7.6      5.962      9.200
REMARK  Name = CHEMBL550244
REMARK  9 active torsions:
REMARK  status: ('A' for Active; 'I' for Inactive)
REMARK    1  A    between atoms: C_1  and  O_2
REMARK    2  A    between atoms: O_2  and  C_3
REMARK    3  A    between atoms: C_6  and  N_7
REMARK    4  A    between atoms: C_8  and  C_9
REMARK    5  A    between atoms: C_12  and  C_13
REMARK    6  A    between atoms: C_16  and  O_17
REMARK    7  A    between atoms: O_17  and  C_18
REMARK    8  A    between atoms: C_19  and  C_20
REMARK    9  A    between atoms: C_24  and  C_25
REMARK                            x       y       z     vdW  Elec       q    Type
REMARK                         _______ _______ _______ _____ _____    ______ ____
ROOT
ATOM      1  C   UNL     1      -7.050   1.615 126.031  0.00  0.00    +0.000 A 
ATOM      2  C   UNL     1      -7.240   1.784 127.402  0.00  0.00    +0.000 A 
ATOM      3  N   UNL     1      -6.226   2.024 128.269  0.00  0.00    +0.000 NA
ATOM      4  C   UNL     1      -4.981   2.016 127.738  0.00  0.00    +0.000 A 
ATOM      5  C   UNL     1      -4.781   1.801 126.377  0.00  0.00    +0.000 A 
ATOM      6  N   UNL     1      -5.805   1.620 125.495  0.00  0.00    +0.000 NA
ENDROOT
BRANCH   1  12
ATOM      7  N   UNL     1      -8.382   0.403 124.231  0.00  0.00    +0.000 N 
ATOM      8  C   UNL     1      -9.486   0.774 123.468  0.00  0.00    +0.000 A 
ATOM      9  C   UNL     1     -10.245  -0.037 122.477  0.00  0.00    +0.000 C 
ATOM     10  N   UNL     1      -9.882   1.976 123.845  0.00  0.00    +0.000 NA
ATOM     11  N   UNL     1      -9.078   2.402 124.861  0.00  0.00    +0.000 NA
ATOM     12  C   UNL     1      -8.170   1.470 125.106  0.00  0.00    +0.000 A 
BRANCH   7  16
ATOM     13  C   UNL     1      -6.173  -3.136 123.999  0.00  0.00    +0.000 A 
ATOM     14  C   UNL     1      -6.001  -2.187 123.002  0.00  0.00    +0.000 A 
ATOM     15  C   UNL     1      -6.720  -0.990 123.076  0.00  0.00    +0.000 A 
ATOM     16  C   UNL     1      -7.593  -0.777 124.146  0.00  0.00    +0.000 A 
ATOM     17  C   UNL     1      -7.750  -1.805 125.064  0.00  0.00    +0.000 A 
ATOM     18  N   UNL     1      -7.061  -2.975 125.005  0.00  0.00    +0.000 NA
BRANCH  13  20
ATOM     19  C   UNL     1      -4.147  -4.233 123.575  0.00  0.00    +0.000 C 
ATOM     20  O   UNL     1      -5.507  -4.335 123.994  0.00  0.00    +0.000 OA
ENDBRANCH  13  20
ENDBRANCH   7  16
ENDBRANCH   1  12
BRANCH   4  21
ATOM     21  O   UNL     1      -3.853   2.177 128.540  0.00  0.00    +0.000 OA
BRANCH  21  22
ATOM     22  C   UNL     1      -3.558   3.441 129.022  0.00  0.00    +0.000 A 
ATOM     23  C   UNL     1      -3.942   3.875 130.307  0.00  0.00    +0.000 A 
ATOM     24  C   UNL     1      -4.738   3.040 131.272  0.00  0.00    +0.000 C 
ATOM     25  C   UNL     1      -3.577   5.166 130.729  0.00  0.00    +0.000 A 
ATOM     26  C   UNL     1      -2.806   5.997 129.921  0.00  0.00    +0.000 A 
ATOM     27  C   UNL     1      -2.376   5.543 128.679  0.00  0.00    +0.000 A 
ATOM     28  C   UNL     1      -2.735   4.265 128.219  0.00  0.00    +0.000 A 
ATOM     29  C   UNL     1      -2.225   3.814 126.880  0.00  0.00    +0.000 C 
ENDBRANCH  21  22
ENDBRANCH   4  21
TORSDOF 5
ENDMDL
MODEL 6
REMARK VINA RESULT:      -7.6      4.402      5.960
REMARK  Name = CHEMBL550244
REMARK  9 active torsions:
REMARK  status: ('A' for Active; 'I' for Inactive)
REMARK    1  A    between atoms: C_1  and  O_2
REMARK    2  A    between atoms: O_2  and  C_3
REMARK    3  A    between atoms: C_6  and  N_7
REMARK    4  A    between atoms: C_8  and  C_9
REMARK    5  A    between atoms: C_12  and  C_13
REMARK    6  A    between atoms: C_16  and  O_17
REMARK    7  A    between atoms: O_17  and  C_18
REMARK    8  A    between atoms: C_19  and  C_20
REMARK    9  A    between atoms: C_24  and  C_25
REMARK                            x       y       z     vdW  Elec       q    Type
REMARK                         _______ _______ _______ _____ _____    ______ ____
ROOT
ATOM      1  C   UNL     1      -7.991   2.524 129.003  0.00  0.00    +0.000 A 
ATOM      2  C   UNL     1      -6.985   3.488 128.960  0.00  0.00    +0.000 A 
ATOM      3  N   UNL     1      -7.183   4.785 129.300  0.00  0.00    +0.000 NA
ATOM      4  C   UNL     1      -8.453   5.125 129.620  0.00  0.00    +0.000 A 
ATOM      5  C   UNL     1      -9.473   4.176 129.620  0.00  0.00    +0.000 A 
ATOM      6  N   UNL     1      -9.262   2.859 129.337  0.00  0.00    +0.000 NA
ENDROOT
BRANCH   1  12
ATOM      7  N   UNL     1      -7.780   0.484 127.495  0.00  0.00    +0.000 N 
ATOM      8  C   UNL     1      -7.588  -0.869 127.764  0.00  0.00    +0.000 A 
ATOM      9  C   UNL     1      -7.408  -1.991 126.804  0.00  0.00    +0.000 C 
ATOM     10  N   UNL     1      -7.454  -1.030 129.068  0.00  0.00    +0.000 NA
ATOM     11  N   UNL     1      -7.528   0.191 129.669  0.00  0.00    +0.000 NA
ATOM     12  C   UNL     1      -7.725   1.113 128.740  0.00  0.00    +0.000 A 
BRANCH   7  16
ATOM     13  C   UNL     1      -8.579   2.427 123.884  0.00  0.00    +0.000 A 
ATOM     14  C   UNL     1      -7.260   2.336 124.303  0.00  0.00    +0.000 A 
ATOM     15  C   UNL     1      -6.975   1.672 125.500  0.00  0.00    +0.000 A 
ATOM     16  C   UNL     1      -8.020   1.120 126.247  0.00  0.00    +0.000 A 
ATOM     17  C   UNL     1      -9.314   1.313 125.784  0.00  0.00    +0.000 A 
ATOM     18  N   UNL     1      -9.608   1.958 124.625  0.00  0.00    +0.000 NA
BRANCH  13  20
ATOM     19  C   UNL     1      -7.839   3.342 121.859  0.00  0.00    +0.000 C 
ATOM     20  O   UNL     1      -8.939   3.066 122.725  0.00  0.00    +0.000 OA
ENDBRANCH  13  20
ENDBRANCH   7  16
ENDBRANCH   1  12
BRANCH   4  21
ATOM     21  O   UNL     1      -8.795   6.442 129.916  0.00  0.00    +0.000 OA
BRANCH  21  22
ATOM     22  C   UNL     1     -10.131   6.751 130.112  0.00  0.00    +0.000 A 
ATOM     23  C   UNL     1     -10.987   7.131 129.059  0.00  0.00    +0.000 A 
ATOM     24  C   UNL     1     -10.546   7.277 127.629  0.00  0.00    +0.000 C 
ATOM     25  C   UNL     1     -12.339   7.401 129.342  0.00  0.00    +0.000 A 
ATOM     26  C   UNL     1     -12.848   7.254 130.628  0.00  0.00    +0.000 A 
ATOM     27  C   UNL     1     -12.016   6.819 131.654  0.00  0.00    +0.000 A 
ATOM     28  C   UNL     1     -10.657   6.554 131.410  0.00  0.00    +0.000 A 
ATOM     29  C   UNL     1      -9.806   6.065 132.547  0.00  0.00    +0.000 C 
ENDBRANCH  21  22
ENDBRANCH   4  21
TORSDOF 5
ENDMDL
MODEL 7
REMARK VINA RESULT:      -7.5      5.313      8.102
REMARK  Name = CHEMBL550244
REMARK  9 active torsions:
REMARK  status: ('A' for Active; 'I' for Inactive)
REMARK    1  A    between atoms: C_1  and  O_2
REMARK    2  A    between atoms: O_2  and  C_3
REMARK    3  A    between atoms: C_6  and  N_7
REMARK    4  A    between atoms: C_8  and  C_9
REMARK    5  A    between atoms: C_12  and  C_13
REMARK    6  A    between atoms: C_16  and  O_17
REMARK    7  A    between atoms: O_17  and  C_18
REMARK    8  A    between atoms: C_19  and  C_20
REMARK    9  A    between atoms: C_24  and  C_25
REMARK                            x       y       z     vdW  Elec       q    Type
REMARK                         _______ _______ _______ _____ _____    ______ ____
ROOT
ATOM      1  C   UNL     1      -7.884   2.910 128.177  0.00  0.00    +0.000 A 
ATOM      2  C   UNL     1      -6.542   2.566 128.025  0.00  0.00    +0.000 A 
ATOM      3  N   UNL     1      -6.132   1.404 127.458  0.00  0.00    +0.000 NA
ATOM      4  C   UNL     1      -7.111   0.540 127.107  0.00  0.00    +0.000 A 
ATOM      5  C   UNL     1      -8.453   0.857 127.300  0.00  0.00    +0.000 A 
ATOM      6  N   UNL     1      -8.868   2.050 127.814  0.00  0.00    +0.000 NA
ENDROOT
BRANCH   1  12
ATOM      7  N   UNL     1      -8.357   4.590 130.030  0.00  0.00    +0.000 N 
ATOM      8  C   UNL     1      -8.931   5.859 130.026  0.00  0.00    +0.000 A 
ATOM      9  C   UNL     1      -9.107   6.803 131.162  0.00  0.00    +0.000 C 
ATOM     10  N   UNL     1      -9.210   6.196 128.780  0.00  0.00    +0.000 NA
ATOM     11  N   UNL     1      -8.811   5.188 127.954  0.00  0.00    +0.000 NA
ATOM     12  C   UNL     1      -8.297   4.213 128.688  0.00  0.00    +0.000 A 
BRANCH   7  16
ATOM     13  C   UNL     1      -7.094   2.380 133.344  0.00  0.00    +0.000 A 
ATOM     14  C   UNL     1      -8.406   2.233 132.917  0.00  0.00    +0.000 A 
ATOM     15  C   UNL     1      -8.838   2.952 131.799  0.00  0.00    +0.000 A 
ATOM     16  C   UNL     1      -7.945   3.801 131.139  0.00  0.00    +0.000 A 
ATOM     17  C   UNL     1      -6.670   3.934 131.671  0.00  0.00    +0.000 A 
ATOM     18  N   UNL     1      -6.235   3.245 132.759  0.00  0.00    +0.000 NA
BRANCH  13  20
ATOM     19  C   UNL     1      -6.102   0.409 134.131  0.00  0.00    +0.000 C 
ATOM     20  O   UNL     1      -6.598   1.713 134.434  0.00  0.00    +0.000 OA
ENDBRANCH  13  20
ENDBRANCH   7  16
ENDBRANCH   1  12
BRANCH   4  21
ATOM     21  O   UNL     1      -6.813  -0.715 126.583  0.00  0.00    +0.000 OA
BRANCH  21  22
ATOM     22  C   UNL     1      -7.581  -1.798 126.978  0.00  0.00    +0.000 A 
ATOM     23  C   UNL     1      -8.566  -2.374 126.152  0.00  0.00    +0.000 A 
ATOM     24  C   UNL     1      -8.918  -1.863 124.782  0.00  0.00    +0.000 C 
ATOM     25  C   UNL     1      -9.282  -3.491 126.620  0.00  0.00    +0.000 A 
ATOM     26  C   UNL     1      -9.000  -4.059 127.859  0.00  0.00    +0.000 A 
ATOM     27  C   UNL     1      -7.985  -3.527 128.645  0.00  0.00    +0.000 A 
ATOM     28  C   UNL     1      -7.260  -2.403 128.215  0.00  0.00    +0.000 A 
ATOM     29  C   UNL     1      -6.157  -1.881 129.093  0.00  0.00    +0.000 C 
ENDBRANCH  21  22
ENDBRANCH   4  21
TORSDOF 5
ENDMDL
MODEL 8
REMARK VINA RESULT:      -7.5      6.116      8.396
REMARK  Name = CHEMBL550244
REMARK  9 active torsions:
REMARK  status: ('A' for Active; 'I' for Inactive)
REMARK    1  A    between atoms: C_1  and  O_2
REMARK    2  A    between atoms: O_2  and  C_3
REMARK    3  A    between atoms: C_6  and  N_7
REMARK    4  A    between atoms: C_8  and  C_9
REMARK    5  A    between atoms: C_12  and  C_13
REMARK    6  A    between atoms: C_16  and  O_17
REMARK    7  A    between atoms: O_17  and  C_18
REMARK    8  A    between atoms: C_19  and  C_20
REMARK    9  A    between atoms: C_24  and  C_25
REMARK                            x       y       z     vdW  Elec       q    Type
REMARK                         _______ _______ _______ _____ _____    ______ ____
ROOT
ATOM      1  C   UNL     1      -7.736   2.720 126.779  0.00  0.00    +0.000 A 
ATOM      2  C   UNL     1      -6.537   2.656 126.071  0.00  0.00    +0.000 A 
ATOM      3  N   UNL     1      -6.371   1.904 124.955  0.00  0.00    +0.000 NA
ATOM      4  C   UNL     1      -7.429   1.141 124.595  0.00  0.00    +0.000 A 
ATOM      5  C   UNL     1      -8.614   1.164 125.326  0.00  0.00    +0.000 A 
ATOM      6  N   UNL     1      -8.801   1.966 126.413  0.00  0.00    +0.000 NA
ENDROOT
BRANCH   1  12
ATOM      7  N   UNL     1      -7.843   3.278 129.261  0.00  0.00    +0.000 N 
ATOM      8  C   UNL     1      -8.222   4.426 129.952  0.00  0.00    +0.000 A 
ATOM      9  C   UNL     1      -8.188   4.683 131.417  0.00  0.00    +0.000 C 
ATOM     10  N   UNL     1      -8.523   5.370 129.078  0.00  0.00    +0.000 NA
ATOM     11  N   UNL     1      -8.327   4.880 127.821  0.00  0.00    +0.000 NA
ATOM     12  C   UNL     1      -7.920   3.623 127.911  0.00  0.00    +0.000 A 
BRANCH   7  16
ATOM     13  C   UNL     1      -6.708  -0.411 130.862  0.00  0.00    +0.000 A 
ATOM     14  C   UNL     1      -8.062  -0.127 130.760  0.00  0.00    +0.000 A 
ATOM     15  C   UNL     1      -8.457   1.096 130.210  0.00  0.00    +0.000 A 
ATOM     16  C   UNL     1      -7.486   2.003 129.778  0.00  0.00    +0.000 A 
ATOM     17  C   UNL     1      -6.155   1.662 129.974  0.00  0.00    +0.000 A 
ATOM     18  N   UNL     1      -5.753   0.480 130.510  0.00  0.00    +0.000 NA
BRANCH  13  20
ATOM     19  C   UNL     1      -7.011  -2.728 131.021  0.00  0.00    +0.000 C 
ATOM     20  O   UNL     1      -6.242  -1.585 131.394  0.00  0.00    +0.000 OA
ENDBRANCH  13  20
ENDBRANCH   7  16
ENDBRANCH   1  12
BRANCH   4  21
ATOM     21  O   UNL     1      -7.356   0.271 123.510  0.00  0.00    +0.000 OA
BRANCH  21  22
ATOM     22  C   UNL     1      -7.680  -1.061 123.705  0.00  0.00    +0.000 A 
ATOM     23  C   UNL     1      -6.879  -1.937 124.464  0.00  0.00    +0.000 A 
ATOM     24  C   UNL     1      -5.579  -1.541 125.108  0.00  0.00    +0.000 C 
ATOM     25  C   UNL     1      -7.297  -3.269 124.636  0.00  0.00    +0.000 A 
ATOM     26  C   UNL     1      -8.506  -3.718 124.111  0.00  0.00    +0.000 A 
ATOM     27  C   UNL     1      -9.324  -2.835 123.416  0.00  0.00    +0.000 A 
ATOM     28  C   UNL     1      -8.931  -1.501 123.213  0.00  0.00    +0.000 A 
ATOM     29  C   UNL     1      -9.862  -0.583 122.474  0.00  0.00    +0.000 C 
ENDBRANCH  21  22
ENDBRANCH   4  21
TORSDOF 5
ENDMDL
MODEL 9
REMARK VINA RESULT:      -7.3      5.269      8.013
REMARK  Name = CHEMBL550244
REMARK  9 active torsions:
REMARK  status: ('A' for Active; 'I' for Inactive)
REMARK    1  A    between atoms: C_1  and  O_2
REMARK    2  A    between atoms: O_2  and  C_3
REMARK    3  A    between atoms: C_6  and  N_7
REMARK    4  A    between atoms: C_8  and  C_9
REMARK    5  A    between atoms: C_12  and  C_13
REMARK    6  A    between atoms: C_16  and  O_17
REMARK    7  A    between atoms: O_17  and  C_18
REMARK    8  A    between atoms: C_19  and  C_20
REMARK    9  A    between atoms: C_24  and  C_25
REMARK                            x       y       z     vdW  Elec       q    Type
REMARK                         _______ _______ _______ _____ _____    ______ ____
ROOT
ATOM      1  C   UNL     1      -4.895   2.530 126.257  0.00  0.00    +0.000 A 
ATOM      2  C   UNL     1      -4.995   1.151 126.428  0.00  0.00    +0.000 A 
ATOM      3  N   UNL     1      -5.770   0.359 125.646  0.00  0.00    +0.000 NA
ATOM      4  C   UNL     1      -6.518   0.997 124.717  0.00  0.00    +0.000 A 
ATOM      5  C   UNL     1      -6.459   2.381 124.573  0.00  0.00    +0.000 A 
ATOM      6  N   UNL     1      -5.634   3.171 125.318  0.00  0.00    +0.000 NA
ENDROOT
BRANCH   1  12
ATOM      7  N   UNL     1      -4.204   3.864 128.313  0.00  0.00    +0.000 N 
ATOM      8  C   UNL     1      -3.103   4.671 128.584  0.00  0.00    +0.000 A 
ATOM      9  C   UNL     1      -2.748   5.364 129.852  0.00  0.00    +0.000 C 
ATOM     10  N   UNL     1      -2.290   4.648 127.543  0.00  0.00    +0.000 NA
ATOM     11  N   UNL     1      -2.817   3.822 126.595  0.00  0.00    +0.000 NA
ATOM     12  C   UNL     1      -3.969   3.343 127.040  0.00  0.00    +0.000 A 
BRANCH   7  16
ATOM     13  C   UNL     1      -7.660   3.174 130.557  0.00  0.00    +0.000 A 
ATOM     14  C   UNL     1      -6.589   2.309 130.719  0.00  0.00    +0.000 A 
ATOM     15  C   UNL     1      -5.419   2.537 129.988  0.00  0.00    +0.000 A 
ATOM     16  C   UNL     1      -5.355   3.626 129.113  0.00  0.00    +0.000 A 
ATOM     17  C   UNL     1      -6.495   4.403 128.968  0.00  0.00    +0.000 A 
ATOM     18  N   UNL     1      -7.641   4.193 129.669  0.00  0.00    +0.000 NA
BRANCH  13  20
ATOM     19  C   UNL     1      -9.995   3.339 130.459  0.00  0.00    +0.000 C 
ATOM     20  O   UNL     1      -8.842   3.014 131.234  0.00  0.00    +0.000 OA
ENDBRANCH  13  20
ENDBRANCH   7  16
ENDBRANCH   1  12
BRANCH   4  21
ATOM     21  O   UNL     1      -7.409   0.301 123.903  0.00  0.00    +0.000 OA
BRANCH  21  22
ATOM     22  C   UNL     1      -7.863  -0.937 124.326  0.00  0.00    +0.000 A 
ATOM     23  C   UNL     1      -8.903  -1.086 125.265  0.00  0.00    +0.000 A 
ATOM     24  C   UNL     1      -9.602   0.065 125.935  0.00  0.00    +0.000 C 
ATOM     25  C   UNL     1      -9.324  -2.381 125.618  0.00  0.00    +0.000 A 
ATOM     26  C   UNL     1      -8.764  -3.508 125.022  0.00  0.00    +0.000 A 
ATOM     27  C   UNL     1      -7.782  -3.356 124.050  0.00  0.00    +0.000 A 
ATOM     28  C   UNL     1      -7.328  -2.078 123.684  0.00  0.00    +0.000 A 
ATOM     29  C   UNL     1      -6.281  -1.968 122.612  0.00  0.00    +0.000 C 
ENDBRANCH  21  22
ENDBRANCH   4  21
TORSDOF 5
ENDMDL
