MODEL 1
REMARK VINA RESULT:      -9.9      0.000      0.000
REMARK  Name = CHEMBL2017868
REMARK  10 active torsions:
REMARK  status: ('A' for Active; 'I' for Inactive)
REMARK    1  A    between atoms: C_1  and  S_2
REMARK    2  A    between atoms: S_2  and  N_5
REMARK    3  A    between atoms: C_8  and  O_9
REMARK    4  A    between atoms: O_9  and  C_10
REMARK    5  A    between atoms: C_13  and  C_14
REMARK    6  A    between atoms: C_14  and  C_15
REMARK    7  A    between atoms: C_20  and  N_21
REMARK    8  A    between atoms: C_34  and  O_35
REMARK    9  A    between atoms: O_35  and  C_36
REMARK   10  A    between atoms: C_36  and  C_37
REMARK                            x       y       z     vdW  Elec       q    Type
REMARK                         _______ _______ _______ _____ _____    ______ ____
ROOT
ATOM      1  C   UNL     1      -5.049  -0.430 129.262  0.00  0.00    +0.000 A 
ATOM      2  C   UNL     1      -5.304  -1.140 130.421  0.00  0.00    +0.000 A 
ATOM      3  C   UNL     1      -5.127  -0.513 131.684  0.00  0.00    +0.000 A 
ATOM      4  C   UNL     1      -4.534   0.771 131.813  0.00  0.00    +0.000 A 
ATOM      5  C   UNL     1      -4.328   1.455 130.626  0.00  0.00    +0.000 A 
ATOM      6  C   UNL     1      -4.589   0.853 129.421  0.00  0.00    +0.000 A 
ENDROOT
BRANCH   1   7
ATOM      7  O   UNL     1      -5.482  -0.857 128.038  0.00  0.00    +0.000 OA
BRANCH   7  11
ATOM      8  N   UNL     1      -7.847  -1.082 125.276  0.00  0.00    +0.000 NA
ATOM      9  C   UNL     1      -8.206  -0.541 126.602  0.00  0.00    +0.000 C 
ATOM     10  C   UNL     1      -7.281   0.621 126.977  0.00  0.00    +0.000 C 
ATOM     11  C   UNL     1      -5.822   0.160 127.061  0.00  0.00    +0.000 C 
ATOM     12  C   UNL     1      -5.466  -0.393 125.675  0.00  0.00    +0.000 C 
ATOM     13  C   UNL     1      -6.420  -1.499 125.234  0.00  0.00    +0.000 C 
BRANCH   8  15
ATOM     14  C   UNL     1      -7.844  -3.708 124.424  0.00  0.00    +0.000 C 
ATOM     15  S   UNL     1      -8.936  -2.302 124.717  0.00  0.00    +0.000 S 
ATOM     16  O   UNL     1      -9.460  -1.870 123.440  0.00  0.00    +0.000 OA
ATOM     17  O   UNL     1      -9.825  -2.641 125.809  0.00  0.00    +0.000 OA
ENDBRANCH   8  15
ENDBRANCH   7  11
ENDBRANCH   1   7
BRANCH   4  18
ATOM     18  C   UNL     1      -4.141   1.339 133.199  0.00  0.00    +0.000 C 
BRANCH  18  19
ATOM     19  C   UNL     1      -5.231   2.096 134.077  0.00  0.00    +0.000 C 
ATOM     20  O   UNL     1      -5.371   1.991 135.290  0.00  0.00    +0.000 OA
ATOM     21  N   UNL     1      -6.178   2.963 133.533  0.00  0.00    +0.000 N 
ATOM     22  C   UNL     1      -6.520   4.199 134.237  0.00  0.00    +0.000 C 
ATOM     23  C   UNL     1      -8.039   4.416 134.660  0.00  0.00    +0.000 C 
ATOM     24  C   UNL     1      -9.382   4.566 133.263  0.00  0.00    +0.000 C 
ATOM     25  C   UNL     1      -8.707   2.816 132.896  0.00  0.00    +0.000 C 
ATOM     26  C   UNL     1      -7.138   2.591 132.524  0.00  0.00    +0.000 C 
BRANCH  24  27
ATOM     27  N   UNL     1     -10.482   6.044 132.592  0.00  0.00    +0.000 N 
ATOM     28  C   UNL     1      -9.239   5.929 131.882  0.00  0.00    +0.000 C 
ATOM     29  O   UNL     1      -8.150   6.387 132.173  0.00  0.00    +0.000 OA
ATOM     30  C   UNL     1      -9.991   5.515 130.747  0.00  0.00    +0.000 C 
ATOM     31  C   UNL     1      -9.515   7.025 130.413  0.00  0.00    +0.000 C 
ATOM     32  C   UNL     1     -10.775   7.194 129.847  0.00  0.00    +0.000 A 
ATOM     33  C   UNL     1     -10.688   7.643 128.287  0.00  0.00    +0.000 A 
ATOM     34  C   UNL     1     -11.634   8.300 127.575  0.00  0.00    +0.000 A 
ATOM     35  C   UNL     1     -12.651   8.472 128.476  0.00  0.00    +0.000 A 
ATOM     36  C   UNL     1     -12.576   7.935 130.172  0.00  0.00    +0.000 A 
ATOM     37  C   UNL     1     -11.485   7.052 131.113  0.00  0.00    +0.000 A 
ENDBRANCH  24  27
ENDBRANCH  18  19
ENDBRANCH   4  18
BRANCH   5  38
ATOM     38  O   UNL     1      -4.082   2.784 130.629  0.00  0.00    +0.000 OA
BRANCH  38  39
ATOM     39  C   UNL     1      -4.477   3.644 129.572  0.00  0.00    +0.000 C 
BRANCH  39  40
ATOM     40  C   UNL     1      -3.476   4.741 129.336  0.00  0.00    +0.000 C 
ATOM     41  C   UNL     1      -2.675   4.759 128.263  0.00  0.00    +0.000 C 
ATOM     42  I   UNL     1      -2.696   3.289 126.813  0.00  0.00    +0.000 I 
ENDBRANCH  39  40
ENDBRANCH  38  39
ENDBRANCH   5  38
TORSDOF 9
ENDMDL
MODEL 2
REMARK VINA RESULT:      -9.6      2.691      4.004
REMARK  Name = CHEMBL2017868
REMARK  10 active torsions:
REMARK  status: ('A' for Active; 'I' for Inactive)
REMARK    1  A    between atoms: C_1  and  S_2
REMARK    2  A    between atoms: S_2  and  N_5
REMARK    3  A    between atoms: C_8  and  O_9
REMARK    4  A    between atoms: O_9  and  C_10
REMARK    5  A    between atoms: C_13  and  C_14
REMARK    6  A    between atoms: C_14  and  C_15
REMARK    7  A    between atoms: C_20  and  N_21
REMARK    8  A    between atoms: C_34  and  O_35
REMARK    9  A    between atoms: O_35  and  C_36
REMARK   10  A    between atoms: C_36  and  C_37
REMARK                            x       y       z     vdW  Elec       q    Type
REMARK                         _______ _______ _______ _____ _____    ______ ____
ROOT
ATOM      1  C   UNL     1      -6.518  -0.559 127.941  0.00  0.00    +0.000 A 
ATOM      2  C   UNL     1      -5.966   0.447 128.712  0.00  0.00    +0.000 A 
ATOM      3  C   UNL     1      -5.873   0.284 130.121  0.00  0.00    +0.000 A 
ATOM      4  C   UNL     1      -6.482  -0.808 130.797  0.00  0.00    +0.000 A 
ATOM      5  C   UNL     1      -6.992  -1.804 129.982  0.00  0.00    +0.000 A 
ATOM      6  C   UNL     1      -6.990  -1.657 128.617  0.00  0.00    +0.000 A 
ENDROOT
BRANCH   1   7
ATOM      7  O   UNL     1      -6.363  -0.603 126.584  0.00  0.00    +0.000 OA
BRANCH   7  11
ATOM      8  N   UNL     1      -8.336   1.497 124.356  0.00  0.00    +0.000 NA
ATOM      9  C   UNL     1      -7.214   0.659 123.890  0.00  0.00    +0.000 C 
ATOM     10  C   UNL     1      -7.442  -0.806 124.273  0.00  0.00    +0.000 C 
ATOM     11  C   UNL     1      -7.522  -0.973 125.794  0.00  0.00    +0.000 C 
ATOM     12  C   UNL     1      -8.696  -0.100 126.259  0.00  0.00    +0.000 C 
ATOM     13  C   UNL     1      -8.541   1.354 125.822  0.00  0.00    +0.000 C 
BRANCH   8  15
ATOM     14  C   UNL     1      -6.443   3.401 123.712  0.00  0.00    +0.000 C 
ATOM     15  S   UNL     1      -8.225   3.142 123.836  0.00  0.00    +0.000 S 
ATOM     16  O   UNL     1      -8.723   3.975 124.908  0.00  0.00    +0.000 OA
ATOM     17  O   UNL     1      -8.787   3.228 122.504  0.00  0.00    +0.000 OA
ENDBRANCH   8  15
ENDBRANCH   7  11
ENDBRANCH   1   7
BRANCH   4  18
ATOM     18  C   UNL     1      -6.567  -0.849 132.342  0.00  0.00    +0.000 C 
BRANCH  18  19
ATOM     19  C   UNL     1      -6.771   0.503 133.156  0.00  0.00    +0.000 C 
ATOM     20  O   UNL     1      -6.394   0.711 134.303  0.00  0.00    +0.000 OA
ATOM     21  N   UNL     1      -7.438   1.612 132.635  0.00  0.00    +0.000 N 
ATOM     22  C   UNL     1      -6.925   2.957 132.896  0.00  0.00    +0.000 C 
ATOM     23  C   UNL     1      -7.886   3.987 133.637  0.00  0.00    +0.000 C 
ATOM     24  C   UNL     1      -9.528   4.532 132.750  0.00  0.00    +0.000 C 
ATOM     25  C   UNL     1      -9.823   2.648 132.879  0.00  0.00    +0.000 C 
ATOM     26  C   UNL     1      -8.803   1.595 132.170  0.00  0.00    +0.000 C 
BRANCH  24  27
ATOM     27  N   UNL     1     -10.137   6.208 131.936  0.00  0.00    +0.000 N 
ATOM     28  C   UNL     1      -9.815   5.214 130.951  0.00  0.00    +0.000 C 
ATOM     29  O   UNL     1      -8.733   4.944 130.466  0.00  0.00    +0.000 OA
ATOM     30  C   UNL     1     -11.205   5.146 130.650  0.00  0.00    +0.000 C 
ATOM     31  C   UNL     1     -10.538   5.935 129.404  0.00  0.00    +0.000 C 
ATOM     32  C   UNL     1     -11.677   6.735 129.427  0.00  0.00    +0.000 A 
ATOM     33  C   UNL     1     -12.460   6.721 128.003  0.00  0.00    +0.000 A 
ATOM     34  C   UNL     1     -13.303   7.669 127.528  0.00  0.00    +0.000 A 
ATOM     35  C   UNL     1     -13.329   8.604 128.529  0.00  0.00    +0.000 A 
ATOM     36  C   UNL     1     -12.383   8.477 130.032  0.00  0.00    +0.000 A 
ATOM     37  C   UNL     1     -11.381   7.311 130.734  0.00  0.00    +0.000 A 
ENDBRANCH  24  27
ENDBRANCH  18  19
ENDBRANCH   4  18
BRANCH   5  38
ATOM     38  O   UNL     1      -7.295  -3.021 130.485  0.00  0.00    +0.000 OA
BRANCH  38  39
ATOM     39  C   UNL     1      -6.465  -4.157 130.310  0.00  0.00    +0.000 C 
BRANCH  39  40
ATOM     40  C   UNL     1      -5.478  -4.311 131.434  0.00  0.00    +0.000 C 
ATOM     41  C   UNL     1      -4.187  -3.975 131.303  0.00  0.00    +0.000 C 
ATOM     42  I   UNL     1      -3.388  -3.224 129.553  0.00  0.00    +0.000 I 
ENDBRANCH  39  40
ENDBRANCH  38  39
ENDBRANCH   5  38
TORSDOF 9
ENDMDL
MODEL 3
REMARK VINA RESULT:      -9.6      2.755      7.960
REMARK  Name = CHEMBL2017868
REMARK  10 active torsions:
REMARK  status: ('A' for Active; 'I' for Inactive)
REMARK    1  A    between atoms: C_1  and  S_2
REMARK    2  A    between atoms: S_2  and  N_5
REMARK    3  A    between atoms: C_8  and  O_9
REMARK    4  A    between atoms: O_9  and  C_10
REMARK    5  A    between atoms: C_13  and  C_14
REMARK    6  A    between atoms: C_14  and  C_15
REMARK    7  A    between atoms: C_20  and  N_21
REMARK    8  A    between atoms: C_34  and  O_35
REMARK    9  A    between atoms: O_35  and  C_36
REMARK   10  A    between atoms: C_36  and  C_37
REMARK                            x       y       z     vdW  Elec       q    Type
REMARK                         _______ _______ _______ _____ _____    ______ ____
ROOT
ATOM      1  C   UNL     1      -8.939   5.728 132.720  0.00  0.00    +0.000 A 
ATOM      2  C   UNL     1      -8.967   4.725 133.672  0.00  0.00    +0.000 A 
ATOM      3  C   UNL     1      -7.747   4.183 134.160  0.00  0.00    +0.000 A 
ATOM      4  C   UNL     1      -6.491   4.513 133.585  0.00  0.00    +0.000 A 
ATOM      5  C   UNL     1      -6.510   5.544 132.661  0.00  0.00    +0.000 A 
ATOM      6  C   UNL     1      -7.699   6.108 132.271  0.00  0.00    +0.000 A 
ENDROOT
BRANCH   1   7
ATOM      7  O   UNL     1     -10.036   6.492 132.437  0.00  0.00    +0.000 OA
BRANCH   7  11
ATOM      8  N   UNL     1     -11.303   6.560 129.023  0.00  0.00    +0.000 NA
ATOM      9  C   UNL     1     -10.387   5.515 129.521  0.00  0.00    +0.000 C 
ATOM     10  C   UNL     1     -10.984   4.819 130.749  0.00  0.00    +0.000 C 
ATOM     11  C   UNL     1     -11.198   5.813 131.896  0.00  0.00    +0.000 C 
ATOM     12  C   UNL     1     -12.154   6.887 131.361  0.00  0.00    +0.000 C 
ATOM     13  C   UNL     1     -11.627   7.545 130.089  0.00  0.00    +0.000 C 
BRANCH   8  15
ATOM     14  C   UNL     1     -12.226   7.181 126.496  0.00  0.00    +0.000 C 
ATOM     15  S   UNL     1     -10.767   7.294 127.551  0.00  0.00    +0.000 S 
ATOM     16  O   UNL     1      -9.741   6.444 126.987  0.00  0.00    +0.000 OA
ATOM     17  O   UNL     1     -10.509   8.693 127.818  0.00  0.00    +0.000 OA
ENDBRANCH   8  15
ENDBRANCH   7  11
ENDBRANCH   1   7
BRANCH   4  18
ATOM     18  C   UNL     1      -5.204   3.746 133.975  0.00  0.00    +0.000 C 
BRANCH  18  19
ATOM     19  C   UNL     1      -5.147   2.165 133.805  0.00  0.00    +0.000 C 
ATOM     20  O   UNL     1      -4.526   1.390 134.523  0.00  0.00    +0.000 OA
ATOM     21  N   UNL     1      -5.802   1.486 132.777  0.00  0.00    +0.000 N 
ATOM     22  C   UNL     1      -6.468   0.214 133.056  0.00  0.00    +0.000 C 
ATOM     23  C   UNL     1      -5.992  -1.068 132.241  0.00  0.00    +0.000 C 
ATOM     24  C   UNL     1      -6.245  -1.091 130.314  0.00  0.00    +0.000 C 
ATOM     25  C   UNL     1      -5.111   0.438 130.487  0.00  0.00    +0.000 C 
ATOM     26  C   UNL     1      -5.576   1.722 131.373  0.00  0.00    +0.000 C 
BRANCH  24  27
ATOM     27  N   UNL     1      -7.424  -2.097 129.113  0.00  0.00    +0.000 N 
ATOM     28  C   UNL     1      -7.360  -0.704 128.767  0.00  0.00    +0.000 C 
ATOM     29  O   UNL     1      -8.004   0.223 129.218  0.00  0.00    +0.000 OA
ATOM     30  C   UNL     1      -6.661  -1.088 127.588  0.00  0.00    +0.000 C 
ATOM     31  C   UNL     1      -8.143  -0.673 127.087  0.00  0.00    +0.000 C 
ATOM     32  C   UNL     1      -8.040  -1.747 126.207  0.00  0.00    +0.000 A 
ATOM     33  C   UNL     1      -8.225  -1.287 124.659  0.00  0.00    +0.000 A 
ATOM     34  C   UNL     1      -8.616  -2.062 123.620  0.00  0.00    +0.000 A 
ATOM     35  C   UNL     1      -8.799  -3.294 124.191  0.00  0.00    +0.000 A 
ATOM     36  C   UNL     1      -8.573  -3.627 125.926  0.00  0.00    +0.000 A 
ATOM     37  C   UNL     1      -8.020  -2.754 127.263  0.00  0.00    +0.000 A 
ENDBRANCH  24  27
ENDBRANCH  18  19
ENDBRANCH   4  18
BRANCH   5  38
ATOM     38  O   UNL     1      -5.367   6.163 132.292  0.00  0.00    +0.000 OA
BRANCH  38  39
ATOM     39  C   UNL     1      -5.245   6.907 131.091  0.00  0.00    +0.000 C 
BRANCH  39  40
ATOM     40  C   UNL     1      -3.875   7.508 130.938  0.00  0.00    +0.000 C 
ATOM     41  C   UNL     1      -2.917   6.925 130.204  0.00  0.00    +0.000 C 
ATOM     42  I   UNL     1      -3.188   5.137 129.208  0.00  0.00    +0.000 I 
ENDBRANCH  39  40
ENDBRANCH  38  39
ENDBRANCH   5  38
TORSDOF 9
ENDMDL
MODEL 4
REMARK VINA RESULT:      -9.6      1.788      2.858
REMARK  Name = CHEMBL2017868
REMARK  10 active torsions:
REMARK  status: ('A' for Active; 'I' for Inactive)
REMARK    1  A    between atoms: C_1  and  S_2
REMARK    2  A    between atoms: S_2  and  N_5
REMARK    3  A    between atoms: C_8  and  O_9
REMARK    4  A    between atoms: O_9  and  C_10
REMARK    5  A    between atoms: C_13  and  C_14
REMARK    6  A    between atoms: C_14  and  C_15
REMARK    7  A    between atoms: C_20  and  N_21
REMARK    8  A    between atoms: C_34  and  O_35
REMARK    9  A    between atoms: O_35  and  C_36
REMARK   10  A    between atoms: C_36  and  C_37
REMARK                            x       y       z     vdW  Elec       q    Type
REMARK                         _______ _______ _______ _____ _____    ______ ____
ROOT
ATOM      1  C   UNL     1      -5.744   0.205 128.805  0.00  0.00    +0.000 A 
ATOM      2  C   UNL     1      -4.783   1.149 129.117  0.00  0.00    +0.000 A 
ATOM      3  C   UNL     1      -4.292   1.239 130.448  0.00  0.00    +0.000 A 
ATOM      4  C   UNL     1      -4.871   0.506 131.518  0.00  0.00    +0.000 A 
ATOM      5  C   UNL     1      -5.804  -0.448 131.151  0.00  0.00    +0.000 A 
ATOM      6  C   UNL     1      -6.198  -0.570 129.842  0.00  0.00    +0.000 A 
ENDROOT
BRANCH   1   7
ATOM      7  O   UNL     1      -6.033  -0.138 127.514  0.00  0.00    +0.000 OA
BRANCH   7  11
ATOM      8  N   UNL     1      -8.096  -0.920 124.616  0.00  0.00    +0.000 NA
ATOM      9  C   UNL     1      -8.604  -0.964 126.001  0.00  0.00    +0.000 C 
ATOM     10  C   UNL     1      -8.399   0.387 126.692  0.00  0.00    +0.000 C 
ATOM     11  C   UNL     1      -6.910   0.746 126.771  0.00  0.00    +0.000 C 
ATOM     12  C   UNL     1      -6.403   0.793 125.324  0.00  0.00    +0.000 C 
ATOM     13  C   UNL     1      -6.666  -0.513 124.579  0.00  0.00    +0.000 C 
BRANCH   8  15
ATOM     14  C   UNL     1      -7.191  -3.515 124.360  0.00  0.00    +0.000 C 
ATOM     15  S   UNL     1      -8.423  -2.363 123.721  0.00  0.00    +0.000 S 
ATOM     16  O   UNL     1      -8.109  -2.098 122.333  0.00  0.00    +0.000 OA
ATOM     17  O   UNL     1      -9.733  -2.842 124.108  0.00  0.00    +0.000 OA
ENDBRANCH   8  15
ENDBRANCH   7  11
ENDBRANCH   1   7
BRANCH   4  18
ATOM     18  C   UNL     1      -4.476   0.786 132.989  0.00  0.00    +0.000 C 
BRANCH  18  19
ATOM     19  C   UNL     1      -5.435   1.662 133.908  0.00  0.00    +0.000 C 
ATOM     20  O   UNL     1      -5.497   1.609 135.131  0.00  0.00    +0.000 OA
ATOM     21  N   UNL     1      -6.342   2.589 133.396  0.00  0.00    +0.000 N 
ATOM     22  C   UNL     1      -6.530   3.873 134.074  0.00  0.00    +0.000 C 
ATOM     23  C   UNL     1      -7.992   4.233 134.589  0.00  0.00    +0.000 C 
ATOM     24  C   UNL     1      -9.412   4.452 133.280  0.00  0.00    +0.000 C 
ATOM     25  C   UNL     1      -8.913   2.639 132.937  0.00  0.00    +0.000 C 
ATOM     26  C   UNL     1      -7.398   2.268 132.469  0.00  0.00    +0.000 C 
BRANCH  24  27
ATOM     27  N   UNL     1     -10.430   5.996 132.628  0.00  0.00    +0.000 N 
ATOM     28  C   UNL     1      -9.188   5.830 131.926  0.00  0.00    +0.000 C 
ATOM     29  O   UNL     1      -8.080   6.226 132.233  0.00  0.00    +0.000 OA
ATOM     30  C   UNL     1      -9.951   5.476 130.778  0.00  0.00    +0.000 C 
ATOM     31  C   UNL     1      -9.395   6.966 130.475  0.00  0.00    +0.000 C 
ATOM     32  C   UNL     1     -10.640   7.209 129.902  0.00  0.00    +0.000 A 
ATOM     33  C   UNL     1     -10.516   7.680 128.352  0.00  0.00    +0.000 A 
ATOM     34  C   UNL     1     -11.421   8.397 127.644  0.00  0.00    +0.000 A 
ATOM     35  C   UNL     1     -12.436   8.605 128.541  0.00  0.00    +0.000 A 
ATOM     36  C   UNL     1     -12.404   8.034 130.227  0.00  0.00    +0.000 A 
ATOM     37  C   UNL     1     -11.367   7.080 131.160  0.00  0.00    +0.000 A 
ENDBRANCH  24  27
ENDBRANCH  18  19
ENDBRANCH   4  18
BRANCH   5  38
ATOM     38  O   UNL     1      -6.180  -1.416 132.017  0.00  0.00    +0.000 OA
BRANCH  38  39
ATOM     39  C   UNL     1      -5.453  -2.621 132.190  0.00  0.00    +0.000 C 
BRANCH  39  40
ATOM     40  C   UNL     1      -6.026  -3.746 131.374  0.00  0.00    +0.000 C 
ATOM     41  C   UNL     1      -5.420  -4.211 130.273  0.00  0.00    +0.000 C 
ATOM     42  I   UNL     1      -3.646  -3.441 129.550  0.00  0.00    +0.000 I 
ENDBRANCH  39  40
ENDBRANCH  38  39
ENDBRANCH   5  38
TORSDOF 9
ENDMDL
MODEL 5
REMARK VINA RESULT:      -9.5      2.371      3.114
REMARK  Name = CHEMBL2017868
REMARK  10 active torsions:
REMARK  status: ('A' for Active; 'I' for Inactive)
REMARK    1  A    between atoms: C_1  and  S_2
REMARK    2  A    between atoms: S_2  and  N_5
REMARK    3  A    between atoms: C_8  and  O_9
REMARK    4  A    between atoms: O_9  and  C_10
REMARK    5  A    between atoms: C_13  and  C_14
REMARK    6  A    between atoms: C_14  and  C_15
REMARK    7  A    between atoms: C_20  and  N_21
REMARK    8  A    between atoms: C_34  and  O_35
REMARK    9  A    between atoms: O_35  and  C_36
REMARK   10  A    between atoms: C_36  and  C_37
REMARK                            x       y       z     vdW  Elec       q    Type
REMARK                         _______ _______ _______ _____ _____    ______ ____
ROOT
ATOM      1  C   UNL     1      -6.950  -1.478 127.326  0.00  0.00    +0.000 A 
ATOM      2  C   UNL     1      -7.733  -2.305 128.110  0.00  0.00    +0.000 A 
ATOM      3  C   UNL     1      -7.604  -2.262 129.525  0.00  0.00    +0.000 A 
ATOM      4  C   UNL     1      -6.578  -1.518 130.168  0.00  0.00    +0.000 A 
ATOM      5  C   UNL     1      -5.844  -0.681 129.345  0.00  0.00    +0.000 A 
ATOM      6  C   UNL     1      -6.049  -0.682 127.988  0.00  0.00    +0.000 A 
ENDROOT
BRANCH   1   7
ATOM      7  O   UNL     1      -7.230  -1.248 126.008  0.00  0.00    +0.000 OA
BRANCH   7  11
ATOM      8  N   UNL     1      -8.879   1.352 124.060  0.00  0.00    +0.000 NA
ATOM      9  C   UNL     1      -8.353   0.109 123.463  0.00  0.00    +0.000 C 
ATOM     10  C   UNL     1      -8.973  -1.117 124.139  0.00  0.00    +0.000 C 
ATOM     11  C   UNL     1      -8.629  -1.157 125.632  0.00  0.00    +0.000 C 
ATOM     12  C   UNL     1      -9.187   0.138 126.236  0.00  0.00    +0.000 C 
ATOM     13  C   UNL     1      -8.651   1.381 125.530  0.00  0.00    +0.000 C 
BRANCH   8  15
ATOM     14  C   UNL     1      -6.613   2.399 122.880  0.00  0.00    +0.000 C 
ATOM     15  S   UNL     1      -8.336   2.782 123.254  0.00  0.00    +0.000 S 
ATOM     16  O   UNL     1      -8.356   3.862 124.217  0.00  0.00    +0.000 OA
ATOM     17  O   UNL     1      -9.057   2.889 122.002  0.00  0.00    +0.000 OA
ENDBRANCH   8  15
ENDBRANCH   7  11
ENDBRANCH   1   7
BRANCH   4  18
ATOM     18  C   UNL     1      -6.312  -1.663 131.686  0.00  0.00    +0.000 C 
BRANCH  18  19
ATOM     19  C   UNL     1      -6.871  -0.564 132.692  0.00  0.00    +0.000 C 
ATOM     20  O   UNL     1      -6.906  -0.664 133.913  0.00  0.00    +0.000 OA
ATOM     21  N   UNL     1      -7.412   0.650 132.268  0.00  0.00    +0.000 N 
ATOM     22  C   UNL     1      -7.115   1.876 133.010  0.00  0.00    +0.000 C 
ATOM     23  C   UNL     1      -8.339   2.692 133.617  0.00  0.00    +0.000 C 
ATOM     24  C   UNL     1      -9.636   3.468 132.395  0.00  0.00    +0.000 C 
ATOM     25  C   UNL     1      -9.816   1.618 131.947  0.00  0.00    +0.000 C 
ATOM     26  C   UNL     1      -8.545   0.771 131.385  0.00  0.00    +0.000 C 
BRANCH  24  27
ATOM     27  N   UNL     1     -10.069   5.305 131.865  0.00  0.00    +0.000 N 
ATOM     28  C   UNL     1      -9.194   4.663 130.925  0.00  0.00    +0.000 C 
ATOM     29  O   UNL     1      -7.982   4.567 130.954  0.00  0.00    +0.000 OA
ATOM     30  C   UNL     1     -10.275   4.673 129.999  0.00  0.00    +0.000 C 
ATOM     31  C   UNL     1      -9.254   5.813 129.472  0.00  0.00    +0.000 C 
ATOM     32  C   UNL     1     -10.392   6.554 129.166  0.00  0.00    +0.000 A 
ATOM     33  C   UNL     1     -10.447   6.966 127.595  0.00  0.00    +0.000 A 
ATOM     34  C   UNL     1     -11.124   8.003 127.049  0.00  0.00    +0.000 A 
ATOM     35  C   UNL     1     -11.737   8.588 128.125  0.00  0.00    +0.000 A 
ATOM     36  C   UNL     1     -11.552   8.019 129.802  0.00  0.00    +0.000 A 
ATOM     37  C   UNL     1     -10.802   6.707 130.558  0.00  0.00    +0.000 A 
ENDBRANCH  24  27
ENDBRANCH  18  19
ENDBRANCH   4  18
BRANCH   5  38
ATOM     38  O   UNL     1      -5.076   0.301 129.867  0.00  0.00    +0.000 OA
BRANCH  38  39
ATOM     39  C   UNL     1      -5.259   1.672 129.553  0.00  0.00    +0.000 C 
BRANCH  39  40
ATOM     40  C   UNL     1      -3.948   2.386 129.365  0.00  0.00    +0.000 C 
ATOM     41  C   UNL     1      -3.579   2.902 128.185  0.00  0.00    +0.000 C 
ATOM     42  I   UNL     1      -4.740   2.775 126.483  0.00  0.00    +0.000 I 
ENDBRANCH  39  40
ENDBRANCH  38  39
ENDBRANCH   5  38
TORSDOF 9
ENDMDL
MODEL 6
REMARK VINA RESULT:      -9.5      2.705      4.182
REMARK  Name = CHEMBL2017868
REMARK  10 active torsions:
REMARK  status: ('A' for Active; 'I' for Inactive)
REMARK    1  A    between atoms: C_1  and  S_2
REMARK    2  A    between atoms: S_2  and  N_5
REMARK    3  A    between atoms: C_8  and  O_9
REMARK    4  A    between atoms: O_9  and  C_10
REMARK    5  A    between atoms: C_13  and  C_14
REMARK    6  A    between atoms: C_14  and  C_15
REMARK    7  A    between atoms: C_20  and  N_21
REMARK    8  A    between atoms: C_34  and  O_35
REMARK    9  A    between atoms: O_35  and  C_36
REMARK   10  A    between atoms: C_36  and  C_37
REMARK                            x       y       z     vdW  Elec       q    Type
REMARK                         _______ _______ _______ _____ _____    ______ ____
ROOT
ATOM      1  C   UNL     1      -6.146  -1.843 126.989  0.00  0.00    +0.000 A 
ATOM      2  C   UNL     1      -5.644  -0.555 126.977  0.00  0.00    +0.000 A 
ATOM      3  C   UNL     1      -5.021  -0.031 128.142  0.00  0.00    +0.000 A 
ATOM      4  C   UNL     1      -5.040  -0.721 129.384  0.00  0.00    +0.000 A 
ATOM      5  C   UNL     1      -5.522  -2.018 129.338  0.00  0.00    +0.000 A 
ATOM      6  C   UNL     1      -6.041  -2.527 128.174  0.00  0.00    +0.000 A 
ENDROOT
BRANCH   1   7
ATOM      7  O   UNL     1      -6.474  -2.506 125.840  0.00  0.00    +0.000 OA
BRANCH   7  11
ATOM      8  N   UNL     1      -9.342  -1.032 124.147  0.00  0.00    +0.000 NA
ATOM      9  C   UNL     1      -8.448  -2.018 123.507  0.00  0.00    +0.000 C 
ATOM     10  C   UNL     1      -8.386  -3.304 124.338  0.00  0.00    +0.000 C 
ATOM     11  C   UNL     1      -7.823  -3.030 125.737  0.00  0.00    +0.000 C 
ATOM     12  C   UNL     1      -8.766  -2.008 126.386  0.00  0.00    +0.000 C 
ATOM     13  C   UNL     1      -8.916  -0.745 125.542  0.00  0.00    +0.000 C 
BRANCH   8  15
ATOM     14  C   UNL     1     -10.363   1.524 124.363  0.00  0.00    +0.000 C 
ATOM     15  S   UNL     1      -9.581   0.393 123.195  0.00  0.00    +0.000 S 
ATOM     16  O   UNL     1     -10.546   0.075 122.166  0.00  0.00    +0.000 OA
ATOM     17  O   UNL     1      -8.278   0.925 122.855  0.00  0.00    +0.000 OA
ENDBRANCH   8  15
ENDBRANCH   7  11
ENDBRANCH   1   7
BRANCH   4  18
ATOM     18  C   UNL     1      -4.560  -0.039 130.688  0.00  0.00    +0.000 C 
BRANCH  18  19
ATOM     19  C   UNL     1      -5.622   0.372 131.799  0.00  0.00    +0.000 C 
ATOM     20  O   UNL     1      -5.848  -0.243 132.835  0.00  0.00    +0.000 OA
ATOM     21  N   UNL     1      -6.442   1.495 131.690  0.00  0.00    +0.000 N 
ATOM     22  C   UNL     1      -6.704   2.321 132.870  0.00  0.00    +0.000 C 
ATOM     23  C   UNL     1      -8.217   2.504 133.326  0.00  0.00    +0.000 C 
ATOM     24  C   UNL     1      -9.447   3.414 132.128  0.00  0.00    +0.000 C 
ATOM     25  C   UNL     1      -8.927   1.943 131.024  0.00  0.00    +0.000 C 
ATOM     26  C   UNL     1      -7.369   1.724 130.609  0.00  0.00    +0.000 C 
BRANCH  24  27
ATOM     27  N   UNL     1     -10.350   5.154 132.177  0.00  0.00    +0.000 N 
ATOM     28  C   UNL     1      -9.363   5.085 131.136  0.00  0.00    +0.000 C 
ATOM     29  O   UNL     1      -8.167   5.293 131.205  0.00  0.00    +0.000 OA
ATOM     30  C   UNL     1     -10.434   5.118 130.198  0.00  0.00    +0.000 C 
ATOM     31  C   UNL     1      -9.753   6.585 130.117  0.00  0.00    +0.000 C 
ATOM     32  C   UNL     1     -11.050   7.074 129.993  0.00  0.00    +0.000 A 
ATOM     33  C   UNL     1     -11.249   7.936 128.630  0.00  0.00    +0.000 A 
ATOM     34  C   UNL     1     -12.183   8.889 128.398  0.00  0.00    +0.000 A 
ATOM     35  C   UNL     1     -12.898   8.926 129.566  0.00  0.00    +0.000 A 
ATOM     36  C   UNL     1     -12.531   7.919 130.987  0.00  0.00    +0.000 A 
ATOM     37  C   UNL     1     -11.450   6.667 131.336  0.00  0.00    +0.000 A 
ENDBRANCH  24  27
ENDBRANCH  18  19
ENDBRANCH   4  18
BRANCH   5  38
ATOM     38  O   UNL     1      -5.295  -2.876 130.357  0.00  0.00    +0.000 OA
BRANCH  38  39
ATOM     39  C   UNL     1      -6.095  -4.023 130.593  0.00  0.00    +0.000 C 
BRANCH  39  40
ATOM     40  C   UNL     1      -5.363  -5.063 131.396  0.00  0.00    +0.000 C 
ATOM     41  C   UNL     1      -5.426  -5.106 132.734  0.00  0.00    +0.000 C 
ATOM     42  I   UNL     1      -6.509  -3.757 133.859  0.00  0.00    +0.000 I 
ENDBRANCH  39  40
ENDBRANCH  38  39
ENDBRANCH   5  38
TORSDOF 9
ENDMDL
MODEL 7
REMARK VINA RESULT:      -9.4      5.161      8.569
REMARK  Name = CHEMBL2017868
REMARK  10 active torsions:
REMARK  status: ('A' for Active; 'I' for Inactive)
REMARK    1  A    between atoms: C_1  and  S_2
REMARK    2  A    between atoms: S_2  and  N_5
REMARK    3  A    between atoms: C_8  and  O_9
REMARK    4  A    between atoms: O_9  and  C_10
REMARK    5  A    between atoms: C_13  and  C_14
REMARK    6  A    between atoms: C_14  and  C_15
REMARK    7  A    between atoms: C_20  and  N_21
REMARK    8  A    between atoms: C_34  and  O_35
REMARK    9  A    between atoms: O_35  and  C_36
REMARK   10  A    between atoms: C_36  and  C_37
REMARK                            x       y       z     vdW  Elec       q    Type
REMARK                         _______ _______ _______ _____ _____    ______ ____
ROOT
ATOM      1  C   UNL     1      -9.014   3.705 131.843  0.00  0.00    +0.000 A 
ATOM      2  C   UNL     1      -8.712   3.552 133.184  0.00  0.00    +0.000 A 
ATOM      3  C   UNL     1      -7.442   3.038 133.565  0.00  0.00    +0.000 A 
ATOM      4  C   UNL     1      -6.523   2.516 132.616  0.00  0.00    +0.000 A 
ATOM      5  C   UNL     1      -6.855   2.723 131.288  0.00  0.00    +0.000 A 
ATOM      6  C   UNL     1      -8.053   3.300 130.951  0.00  0.00    +0.000 A 
ENDROOT
BRANCH   1   7
ATOM      7  O   UNL     1     -10.070   4.462 131.419  0.00  0.00    +0.000 OA
BRANCH   7  11
ATOM      8  N   UNL     1     -11.170   7.490 129.720  0.00  0.00    +0.000 NA
ATOM      9  C   UNL     1     -12.079   6.631 130.505  0.00  0.00    +0.000 C 
ATOM     10  C   UNL     1     -11.565   6.473 131.939  0.00  0.00    +0.000 C 
ATOM     11  C   UNL     1     -10.186   5.803 131.959  0.00  0.00    +0.000 C 
ATOM     12  C   UNL     1      -9.256   6.712 131.145  0.00  0.00    +0.000 C 
ATOM     13  C   UNL     1      -9.782   6.958 129.733  0.00  0.00    +0.000 C 
BRANCH   8  15
ATOM     14  C   UNL     1     -13.128   8.967 128.451  0.00  0.00    +0.000 C 
ATOM     15  S   UNL     1     -11.758   7.837 128.131  0.00  0.00    +0.000 S 
ATOM     16  O   UNL     1     -12.306   6.612 127.590  0.00  0.00    +0.000 OA
ATOM     17  O   UNL     1     -10.726   8.566 127.423  0.00  0.00    +0.000 OA
ENDBRANCH   8  15
ENDBRANCH   7  11
ENDBRANCH   1   7
BRANCH   4  18
ATOM     18  C   UNL     1      -5.250   1.757 133.065  0.00  0.00    +0.000 C 
BRANCH  18  19
ATOM     19  C   UNL     1      -3.854   2.519 133.109  0.00  0.00    +0.000 C 
ATOM     20  O   UNL     1      -2.751   1.988 133.173  0.00  0.00    +0.000 OA
ATOM     21  N   UNL     1      -3.746   3.910 133.101  0.00  0.00    +0.000 N 
ATOM     22  C   UNL     1      -2.691   4.551 132.316  0.00  0.00    +0.000 C 
ATOM     23  C   UNL     1      -1.652   5.479 133.087  0.00  0.00    +0.000 C 
ATOM     24  C   UNL     1      -2.308   7.090 133.954  0.00  0.00    +0.000 C 
ATOM     25  C   UNL     1      -3.323   5.766 134.889  0.00  0.00    +0.000 C 
ATOM     26  C   UNL     1      -4.338   4.778 134.088  0.00  0.00    +0.000 C 
BRANCH  24  27
ATOM     27  N   UNL     1      -2.105   9.005 133.589  0.00  0.00    +0.000 N 
ATOM     28  C   UNL     1      -1.261   8.567 134.665  0.00  0.00    +0.000 C 
ATOM     29  O   UNL     1      -1.530   8.446 135.845  0.00  0.00    +0.000 OA
ATOM     30  C   UNL     1      -0.148   8.796 133.809  0.00  0.00    +0.000 C 
ATOM     31  C   UNL     1      -0.112  10.005 134.884  0.00  0.00    +0.000 C 
ATOM     32  C   UNL     1       0.267  10.814 133.816  0.00  0.00    +0.000 A 
ATOM     33  C   UNL     1       1.686  11.557 134.087  0.00  0.00    +0.000 A 
ATOM     34  C   UNL     1       2.130  12.700 133.512  0.00  0.00    +0.000 A 
ATOM     35  C   UNL     1       1.112  13.048 132.665  0.00  0.00    +0.000 A 
ATOM     36  C   UNL     1      -0.403  12.127 132.503  0.00  0.00    +0.000 A 
ATOM     37  C   UNL     1      -1.003  10.669 133.113  0.00  0.00    +0.000 A 
ENDBRANCH  24  27
ENDBRANCH  18  19
ENDBRANCH   4  18
BRANCH   5  38
ATOM     38  O   UNL     1      -5.931   2.571 130.313  0.00  0.00    +0.000 OA
BRANCH  38  39
ATOM     39  C   UNL     1      -5.183   3.654 129.783  0.00  0.00    +0.000 C 
BRANCH  39  40
ATOM     40  C   UNL     1      -3.920   3.190 129.112  0.00  0.00    +0.000 C 
ATOM     41  C   UNL     1      -3.043   4.047 128.570  0.00  0.00    +0.000 C 
ATOM     42  I   UNL     1      -3.315   6.093 128.570  0.00  0.00    +0.000 I 
ENDBRANCH  39  40
ENDBRANCH  38  39
ENDBRANCH   5  38
TORSDOF 9
ENDMDL
MODEL 8
REMARK VINA RESULT:      -9.2      3.356      8.539
REMARK  Name = CHEMBL2017868
REMARK  10 active torsions:
REMARK  status: ('A' for Active; 'I' for Inactive)
REMARK    1  A    between atoms: C_1  and  S_2
REMARK    2  A    between atoms: S_2  and  N_5
REMARK    3  A    between atoms: C_8  and  O_9
REMARK    4  A    between atoms: O_9  and  C_10
REMARK    5  A    between atoms: C_13  and  C_14
REMARK    6  A    between atoms: C_14  and  C_15
REMARK    7  A    between atoms: C_20  and  N_21
REMARK    8  A    between atoms: C_34  and  O_35
REMARK    9  A    between atoms: O_35  and  C_36
REMARK   10  A    between atoms: C_36  and  C_37
REMARK                            x       y       z     vdW  Elec       q    Type
REMARK                         _______ _______ _______ _____ _____    ______ ____
ROOT
ATOM      1  C   UNL     1      -8.768   4.015 131.612  0.00  0.00    +0.000 A 
ATOM      2  C   UNL     1      -9.256   2.995 132.408  0.00  0.00    +0.000 A 
ATOM      3  C   UNL     1      -8.405   2.383 133.368  0.00  0.00    +0.000 A 
ATOM      4  C   UNL     1      -7.013   2.662 133.431  0.00  0.00    +0.000 A 
ATOM      5  C   UNL     1      -6.580   3.712 132.639  0.00  0.00    +0.000 A 
ATOM      6  C   UNL     1      -7.446   4.342 131.782  0.00  0.00    +0.000 A 
ENDROOT
BRANCH   1   7
ATOM      7  O   UNL     1      -9.594   4.839 130.900  0.00  0.00    +0.000 OA
BRANCH   7  11
ATOM      8  N   UNL     1     -11.561   7.544 129.459  0.00  0.00    +0.000 NA
ATOM      9  C   UNL     1     -12.133   6.522 130.358  0.00  0.00    +0.000 C 
ATOM     10  C   UNL     1     -11.377   6.494 131.690  0.00  0.00    +0.000 C 
ATOM     11  C   UNL     1      -9.903   6.132 131.480  0.00  0.00    +0.000 C 
ATOM     12  C   UNL     1      -9.326   7.206 130.549  0.00  0.00    +0.000 C 
ATOM     13  C   UNL     1     -10.108   7.318 129.243  0.00  0.00    +0.000 C 
BRANCH   8  15
ATOM     14  C   UNL     1     -11.149   7.946 126.759  0.00  0.00    +0.000 C 
ATOM     15  S   UNL     1     -12.452   7.739 127.990  0.00  0.00    +0.000 S 
ATOM     16  O   UNL     1     -13.182   8.984 128.082  0.00  0.00    +0.000 OA
ATOM     17  O   UNL     1     -13.138   6.493 127.716  0.00  0.00    +0.000 OA
ENDBRANCH   8  15
ENDBRANCH   7  11
ENDBRANCH   1   7
BRANCH   4  18
ATOM     18  C   UNL     1      -6.065   1.824 134.323  0.00  0.00    +0.000 C 
BRANCH  18  19
ATOM     19  C   UNL     1      -5.621   0.370 133.853  0.00  0.00    +0.000 C 
ATOM     20  O   UNL     1      -5.133  -0.495 134.570  0.00  0.00    +0.000 OA
ATOM     21  N   UNL     1      -5.727  -0.068 132.533  0.00  0.00    +0.000 N 
ATOM     22  C   UNL     1      -6.164  -1.437 132.255  0.00  0.00    +0.000 C 
ATOM     23  C   UNL     1      -5.179  -2.376 131.430  0.00  0.00    +0.000 C 
ATOM     24  C   UNL     1      -4.750  -1.893 129.596  0.00  0.00    +0.000 C 
ATOM     25  C   UNL     1      -4.094  -0.350 130.515  0.00  0.00    +0.000 C 
ATOM     26  C   UNL     1      -5.093   0.574 131.409  0.00  0.00    +0.000 C 
BRANCH  24  27
ATOM     27  N   UNL     1      -5.209  -2.656 127.850  0.00  0.00    +0.000 N 
ATOM     28  C   UNL     1      -6.065  -1.558 128.202  0.00  0.00    +0.000 C 
ATOM     29  O   UNL     1      -7.074  -1.567 128.880  0.00  0.00    +0.000 OA
ATOM     30  C   UNL     1      -5.448  -0.816 127.156  0.00  0.00    +0.000 C 
ATOM     31  C   UNL     1      -6.922  -1.189 126.600  0.00  0.00    +0.000 C 
ATOM     32  C   UNL     1      -6.301  -1.389 125.370  0.00  0.00    +0.000 A 
ATOM     33  C   UNL     1      -6.940  -0.453 124.206  0.00  0.00    +0.000 A 
ATOM     34  C   UNL     1      -6.908  -0.679 122.870  0.00  0.00    +0.000 A 
ATOM     35  C   UNL     1      -6.212  -1.854 122.761  0.00  0.00    +0.000 A 
ATOM     36  C   UNL     1      -5.594  -2.774 124.154  0.00  0.00    +0.000 A 
ATOM     37  C   UNL     1      -5.520  -2.534 125.826  0.00  0.00    +0.000 A 
ENDBRANCH  24  27
ENDBRANCH  18  19
ENDBRANCH   4  18
BRANCH   5  38
ATOM     38  O   UNL     1      -5.371   4.281 132.847  0.00  0.00    +0.000 OA
BRANCH  38  39
ATOM     39  C   UNL     1      -5.215   5.620 133.287  0.00  0.00    +0.000 C 
BRANCH  39  40
ATOM     40  C   UNL     1      -4.476   5.700 134.595  0.00  0.00    +0.000 C 
ATOM     41  C   UNL     1      -5.113   5.772 135.772  0.00  0.00    +0.000 C 
ATOM     42  I   UNL     1      -7.170   5.796 135.943  0.00  0.00    +0.000 I 
ENDBRANCH  39  40
ENDBRANCH  38  39
ENDBRANCH   5  38
TORSDOF 9
ENDMDL
MODEL 9
REMARK VINA RESULT:      -9.1      3.207      8.684
REMARK  Name = CHEMBL2017868
REMARK  10 active torsions:
REMARK  status: ('A' for Active; 'I' for Inactive)
REMARK    1  A    between atoms: C_1  and  S_2
REMARK    2  A    between atoms: S_2  and  N_5
REMARK    3  A    between atoms: C_8  and  O_9
REMARK    4  A    between atoms: O_9  and  C_10
REMARK    5  A    between atoms: C_13  and  C_14
REMARK    6  A    between atoms: C_14  and  C_15
REMARK    7  A    between atoms: C_20  and  N_21
REMARK    8  A    between atoms: C_34  and  O_35
REMARK    9  A    between atoms: O_35  and  C_36
REMARK   10  A    between atoms: C_36  and  C_37
REMARK                            x       y       z     vdW  Elec       q    Type
REMARK                         _______ _______ _______ _____ _____    ______ ____
ROOT
ATOM      1  C   UNL     1      -7.807   6.452 131.923  0.00  0.00    +0.000 A 
ATOM      2  C   UNL     1      -7.107   7.186 130.983  0.00  0.00    +0.000 A 
ATOM      3  C   UNL     1      -5.791   6.791 130.619  0.00  0.00    +0.000 A 
ATOM      4  C   UNL     1      -5.094   5.762 131.306  0.00  0.00    +0.000 A 
ATOM      5  C   UNL     1      -5.846   5.035 132.213  0.00  0.00    +0.000 A 
ATOM      6  C   UNL     1      -7.144   5.388 132.483  0.00  0.00    +0.000 A 
ENDROOT
BRANCH   1   7
ATOM      7  O   UNL     1      -9.156   6.586 132.092  0.00  0.00    +0.000 OA
BRANCH   7  11
ATOM      8  N   UNL     1     -11.549   6.318 129.359  0.00  0.00    +0.000 NA
ATOM      9  C   UNL     1     -10.146   5.874 129.247  0.00  0.00    +0.000 C 
ATOM     10  C   UNL     1      -9.819   4.847 130.336  0.00  0.00    +0.000 C 
ATOM     11  C   UNL     1      -9.987   5.453 131.734  0.00  0.00    +0.000 C 
ATOM     12  C   UNL     1     -11.451   5.902 131.832  0.00  0.00    +0.000 C 
ATOM     13  C   UNL     1     -11.834   6.865 130.712  0.00  0.00    +0.000 C 
BRANCH   8  15
ATOM     14  C   UNL     1     -10.649   8.513 127.947  0.00  0.00    +0.000 C 
ATOM     15  S   UNL     1     -12.039   7.370 128.076  0.00  0.00    +0.000 S 
ATOM     16  O   UNL     1     -13.190   8.115 128.537  0.00  0.00    +0.000 OA
ATOM     17  O   UNL     1     -12.097   6.590 126.858  0.00  0.00    +0.000 OA
ENDBRANCH   8  15
ENDBRANCH   7  11
ENDBRANCH   1   7
BRANCH   4  18
ATOM     18  C   UNL     1      -3.590   5.501 131.049  0.00  0.00    +0.000 C 
BRANCH  18  19
ATOM     19  C   UNL     1      -3.110   5.010 129.613  0.00  0.00    +0.000 C 
ATOM     20  O   UNL     1      -2.275   5.566 128.909  0.00  0.00    +0.000 OA
ATOM     21  N   UNL     1      -3.624   3.875 128.986  0.00  0.00    +0.000 N 
ATOM     22  C   UNL     1      -2.728   2.985 128.248  0.00  0.00    +0.000 C 
ATOM     23  C   UNL     1      -3.028   2.743 126.704  0.00  0.00    +0.000 C 
ATOM     24  C   UNL     1      -4.690   1.867 126.205  0.00  0.00    +0.000 C 
ATOM     25  C   UNL     1      -5.378   3.404 127.109  0.00  0.00    +0.000 C 
ATOM     26  C   UNL     1      -5.018   3.680 128.673  0.00  0.00    +0.000 C 
BRANCH  24  27
ATOM     27  N   UNL     1      -5.123   0.107 125.458  0.00  0.00    +0.000 N 
ATOM     28  C   UNL     1      -5.695   0.297 126.762  0.00  0.00    +0.000 C 
ATOM     29  O   UNL     1      -5.185   0.116 127.851  0.00  0.00    +0.000 OA
ATOM     30  C   UNL     1      -6.972   0.323 126.135  0.00  0.00    +0.000 C 
ATOM     31  C   UNL     1      -6.894  -1.111 126.882  0.00  0.00    +0.000 C 
ATOM     32  C   UNL     1      -7.546  -1.621 125.763  0.00  0.00    +0.000 A 
ATOM     33  C   UNL     1      -8.940  -2.359 126.152  0.00  0.00    +0.000 A 
ATOM     34  C   UNL     1      -9.585  -3.311 125.437  0.00  0.00    +0.000 A 
ATOM     35  C   UNL     1      -8.790  -3.476 124.333  0.00  0.00    +0.000 A 
ATOM     36  C   UNL     1      -7.266  -2.595 124.068  0.00  0.00    +0.000 A 
ATOM     37  C   UNL     1      -6.435  -1.352 124.856  0.00  0.00    +0.000 A 
ENDBRANCH  24  27
ENDBRANCH  18  19
ENDBRANCH   4  18
BRANCH   5  38
ATOM     38  O   UNL     1      -5.404   3.847 132.682  0.00  0.00    +0.000 OA
BRANCH  38  39
ATOM     39  C   UNL     1      -6.119   2.634 132.507  0.00  0.00    +0.000 C 
BRANCH  39  40
ATOM     40  C   UNL     1      -6.678   2.507 131.117  0.00  0.00    +0.000 C 
ATOM     41  C   UNL     1      -7.442   1.470 130.747  0.00  0.00    +0.000 C 
ATOM     42  I   UNL     1      -7.934  -0.081 132.017  0.00  0.00    +0.000 I 
ENDBRANCH  39  40
ENDBRANCH  38  39
ENDBRANCH   5  38
TORSDOF 9
ENDMDL
