MODEL 1
REMARK VINA RESULT:      -7.8      0.000      0.000
REMARK  Name = CHEMBL592732
REMARK  9 active torsions:
REMARK  status: ('A' for Active; 'I' for Inactive)
REMARK    1  A    between atoms: C_1  and  O_2
REMARK    2  A    between atoms: O_2  and  C_3
REMARK    3  A    between atoms: C_3  and  C_4
REMARK    4  A    between atoms: C_11  and  O_12
REMARK    5  A    between atoms: O_12  and  C_13
REMARK    6  A    between atoms: C_19  and  C_20
REMARK    7  A    between atoms: N_22  and  C_23
REMARK    8  A    between atoms: C_26  and  O_27
REMARK    9  A    between atoms: O_27  and  C_28
REMARK                            x       y       z     vdW  Elec       q    Type
REMARK                         _______ _______ _______ _____ _____    ______ ____
ROOT
ATOM      1  C   UNL     1      -6.397   3.190 123.287  0.00  0.00    +0.000 A 
ATOM      2  N   UNL     1      -5.682   4.089 123.947  0.00  0.00    +0.000 NA
ATOM      3  N   UNL     1      -5.423   3.606 125.213  0.00  0.00    +0.000 NA
ATOM      4  C   UNL     1      -5.944   2.387 125.326  0.00  0.00    +0.000 A 
ATOM      5  N   UNL     1      -5.752   1.499 126.331  0.00  0.00    +0.000 N 
ATOM      6  C   UNL     1      -5.447   0.118 126.089  0.00  0.00    +0.000 C 
ATOM      7  C   UNL     1      -6.459  -0.553 126.972  0.00  0.00    +0.000 C 
ATOM      8  C   UNL     1      -6.422   0.168 128.290  0.00  0.00    +0.000 C 
ATOM      9  C   UNL     1      -6.213   1.647 127.737  0.00  0.00    +0.000 C 
ATOM     10  N   UNL     1      -6.590   2.104 124.116  0.00  0.00    +0.000 N 
ENDROOT
BRANCH  10  11
ATOM     11  C   UNL     1      -7.390   0.985 123.814  0.00  0.00    +0.000 A 
ATOM     12  C   UNL     1      -6.845  -0.094 123.128  0.00  0.00    +0.000 A 
ATOM     13  C   UNL     1      -7.632  -1.227 122.948  0.00  0.00    +0.000 A 
ATOM     14  C   UNL     1      -8.934  -1.235 123.436  0.00  0.00    +0.000 A 
ATOM     15  N   UNL     1      -9.477  -0.172 124.073  0.00  0.00    +0.000 NA
ATOM     16  C   UNL     1      -8.698   0.919 124.250  0.00  0.00    +0.000 A 
BRANCH  14  17
ATOM     17  O   UNL     1      -9.790  -2.296 123.342  0.00  0.00    +0.000 OA
ATOM     18  C   UNL     1      -9.386  -3.486 124.005  0.00  0.00    +0.000 C 
ENDBRANCH  14  17
ENDBRANCH  10  11
BRANCH   1  19
ATOM     19  C   UNL     1      -7.104   3.388 121.982  0.00  0.00    +0.000 C 
BRANCH  19  21
ATOM     20  C   UNL     1      -6.817   4.202 119.785  0.00  0.00    +0.000 C 
ATOM     21  O   UNL     1      -6.252   4.116 121.093  0.00  0.00    +0.000 OA
ENDBRANCH  19  21
ENDBRANCH   1  19
BRANCH   8  22
ATOM     22  O   UNL     1      -5.315  -0.336 129.100  0.00  0.00    +0.000 OA
BRANCH  22  23
ATOM     23  C   UNL     1      -5.391  -1.599 129.693  0.00  0.00    +0.000 A 
ATOM     24  C   UNL     1      -4.343  -2.492 129.368  0.00  0.00    +0.000 A 
ATOM     25  C   UNL     1      -4.398  -3.856 129.725  0.00  0.00    +0.000 A 
ATOM     26  C   UNL     1      -5.510  -4.355 130.381  0.00  0.00    +0.000 A 
ATOM     27  F   UNL     1      -5.604  -5.650 130.703  0.00  0.00    +0.000 F 
ATOM     28  C   UNL     1      -6.550  -3.517 130.701  0.00  0.00    +0.000 A 
ATOM     29  C   UNL     1      -6.522  -2.152 130.364  0.00  0.00    +0.000 A 
ATOM     30  C   UNL     1      -7.777  -1.477 130.836  0.00  0.00    +0.000 C 
ENDBRANCH  22  23
ENDBRANCH   8  22
TORSDOF 6
ENDMDL
MODEL 2
REMARK VINA RESULT:      -7.8      4.008      7.042
REMARK  Name = CHEMBL592732
REMARK  9 active torsions:
REMARK  status: ('A' for Active; 'I' for Inactive)
REMARK    1  A    between atoms: C_1  and  O_2
REMARK    2  A    between atoms: O_2  and  C_3
REMARK    3  A    between atoms: C_3  and  C_4
REMARK    4  A    between atoms: C_11  and  O_12
REMARK    5  A    between atoms: O_12  and  C_13
REMARK    6  A    between atoms: C_19  and  C_20
REMARK    7  A    between atoms: N_22  and  C_23
REMARK    8  A    between atoms: C_26  and  O_27
REMARK    9  A    between atoms: O_27  and  C_28
REMARK                            x       y       z     vdW  Elec       q    Type
REMARK                         _______ _______ _______ _____ _____    ______ ____
ROOT
ATOM      1  C   UNL     1      -8.224   3.873 129.527  0.00  0.00    +0.000 A 
ATOM      2  N   UNL     1      -9.340   3.165 129.445  0.00  0.00    +0.000 NA
ATOM      3  N   UNL     1      -9.134   2.112 128.577  0.00  0.00    +0.000 NA
ATOM      4  C   UNL     1      -7.875   2.145 128.150  0.00  0.00    +0.000 A 
ATOM      5  N   UNL     1      -7.220   1.191 127.442  0.00  0.00    +0.000 N 
ATOM      6  C   UNL     1      -5.903   0.744 127.791  0.00  0.00    +0.000 C 
ATOM      7  C   UNL     1      -5.208   0.853 126.463  0.00  0.00    +0.000 C 
ATOM      8  C   UNL     1      -6.133   0.248 125.446  0.00  0.00    +0.000 C 
ATOM      9  C   UNL     1      -7.511   0.778 126.043  0.00  0.00    +0.000 C 
ATOM     10  N   UNL     1      -7.275   3.272 128.725  0.00  0.00    +0.000 N 
ENDROOT
BRANCH  10  11
ATOM     11  C   UNL     1      -5.989   3.784 128.465  0.00  0.00    +0.000 A 
ATOM     12  C   UNL     1      -5.726   4.418 127.256  0.00  0.00    +0.000 A 
ATOM     13  C   UNL     1      -4.480   5.010 127.080  0.00  0.00    +0.000 A 
ATOM     14  C   UNL     1      -3.539   4.930 128.100  0.00  0.00    +0.000 A 
ATOM     15  N   UNL     1      -3.782   4.283 129.264  0.00  0.00    +0.000 NA
ATOM     16  C   UNL     1      -5.000   3.720 129.425  0.00  0.00    +0.000 A 
BRANCH  14  17
ATOM     17  O   UNL     1      -2.294   5.494 128.052  0.00  0.00    +0.000 OA
ATOM     18  C   UNL     1      -2.237   6.901 128.245  0.00  0.00    +0.000 C 
ENDBRANCH  14  17
ENDBRANCH  10  11
BRANCH   1  19
ATOM     19  C   UNL     1      -8.061   5.224 130.152  0.00  0.00    +0.000 C 
BRANCH  19  21
ATOM     20  C   UNL     1      -9.536   7.065 130.239  0.00  0.00    +0.000 C 
ATOM     21  O   UNL     1      -8.799   6.184 129.392  0.00  0.00    +0.000 OA
ENDBRANCH  19  21
ENDBRANCH   1  19
BRANCH   8  22
ATOM     22  O   UNL     1      -5.993  -1.206 125.450  0.00  0.00    +0.000 OA
BRANCH  22  23
ATOM     23  C   UNL     1      -7.007  -2.015 124.930  0.00  0.00    +0.000 A 
ATOM     24  C   UNL     1      -7.202  -1.929 123.531  0.00  0.00    +0.000 A 
ATOM     25  C   UNL     1      -8.316  -2.527 122.904  0.00  0.00    +0.000 A 
ATOM     26  C   UNL     1      -9.265  -3.188 123.662  0.00  0.00    +0.000 A 
ATOM     27  F   UNL     1     -10.348  -3.736 123.098  0.00  0.00    +0.000 F 
ATOM     28  C   UNL     1      -9.112  -3.280 125.024  0.00  0.00    +0.000 A 
ATOM     29  C   UNL     1      -8.010  -2.700 125.679  0.00  0.00    +0.000 A 
ATOM     30  C   UNL     1      -8.093  -2.955 127.156  0.00  0.00    +0.000 C 
ENDBRANCH  22  23
ENDBRANCH   8  22
TORSDOF 6
ENDMDL
MODEL 3
REMARK VINA RESULT:      -7.8      3.184      3.996
REMARK  Name = CHEMBL592732
REMARK  9 active torsions:
REMARK  status: ('A' for Active; 'I' for Inactive)
REMARK    1  A    between atoms: C_1  and  O_2
REMARK    2  A    between atoms: O_2  and  C_3
REMARK    3  A    between atoms: C_3  and  C_4
REMARK    4  A    between atoms: C_11  and  O_12
REMARK    5  A    between atoms: O_12  and  C_13
REMARK    6  A    between atoms: C_19  and  C_20
REMARK    7  A    between atoms: N_22  and  C_23
REMARK    8  A    between atoms: C_26  and  O_27
REMARK    9  A    between atoms: O_27  and  C_28
REMARK                            x       y       z     vdW  Elec       q    Type
REMARK                         _______ _______ _______ _____ _____    ______ ____
ROOT
ATOM      1  C   UNL     1      -6.209   3.364 122.626  0.00  0.00    +0.000 A 
ATOM      2  N   UNL     1      -5.712   4.463 123.172  0.00  0.00    +0.000 NA
ATOM      3  N   UNL     1      -5.981   4.446 124.525  0.00  0.00    +0.000 NA
ATOM      4  C   UNL     1      -6.612   3.315 124.826  0.00  0.00    +0.000 A 
ATOM      5  N   UNL     1      -6.883   2.826 126.061  0.00  0.00    +0.000 N 
ATOM      6  C   UNL     1      -6.632   1.459 126.418  0.00  0.00    +0.000 C 
ATOM      7  C   UNL     1      -7.954   1.080 127.023  0.00  0.00    +0.000 C 
ATOM      8  C   UNL     1      -8.342   2.203 127.942  0.00  0.00    +0.000 C 
ATOM      9  C   UNL     1      -7.815   3.418 127.057  0.00  0.00    +0.000 C 
ATOM     10  N   UNL     1      -6.789   2.613 123.627  0.00  0.00    +0.000 N 
ENDROOT
BRANCH  10  11
ATOM     11  C   UNL     1      -7.517   1.423 123.431  0.00  0.00    +0.000 A 
ATOM     12  C   UNL     1      -6.845   0.215 123.281  0.00  0.00    +0.000 A 
ATOM     13  C   UNL     1      -7.597  -0.953 123.204  0.00  0.00    +0.000 A 
ATOM     14  C   UNL     1      -8.984  -0.872 123.256  0.00  0.00    +0.000 A 
ATOM     15  N   UNL     1      -9.640   0.306 123.368  0.00  0.00    +0.000 NA
ATOM     16  C   UNL     1      -8.896   1.432 123.452  0.00  0.00    +0.000 A 
BRANCH  14  17
ATOM     17  O   UNL     1      -9.825  -1.950 123.216  0.00  0.00    +0.000 OA
ATOM     18  C   UNL     1      -9.334  -3.148 123.801  0.00  0.00    +0.000 C 
ENDBRANCH  14  17
ENDBRANCH  10  11
BRANCH   1  19
ATOM     19  C   UNL     1      -6.365   3.079 121.164  0.00  0.00    +0.000 C 
BRANCH  19  21
ATOM     20  C   UNL     1      -8.556   3.790 120.647  0.00  0.00    +0.000 C 
ATOM     21  O   UNL     1      -7.166   4.104 120.569  0.00  0.00    +0.000 OA
ENDBRANCH  19  21
ENDBRANCH   1  19
BRANCH   8  22
ATOM     22  O   UNL     1      -7.660   2.051 129.226  0.00  0.00    +0.000 OA
BRANCH  22  23
ATOM     23  C   UNL     1      -8.313   2.384 130.415  0.00  0.00    +0.000 A 
ATOM     24  C   UNL     1      -8.323   3.761 130.744  0.00  0.00    +0.000 A 
ATOM     25  C   UNL     1      -8.762   4.215 132.006  0.00  0.00    +0.000 A 
ATOM     26  C   UNL     1      -9.165   3.304 132.967  0.00  0.00    +0.000 A 
ATOM     27  F   UNL     1      -9.554   3.704 134.183  0.00  0.00    +0.000 F 
ATOM     28  C   UNL     1      -9.156   1.960 132.685  0.00  0.00    +0.000 A 
ATOM     29  C   UNL     1      -8.730   1.476 131.434  0.00  0.00    +0.000 A 
ATOM     30  C   UNL     1      -8.828  -0.021 131.399  0.00  0.00    +0.000 C 
ENDBRANCH  22  23
ENDBRANCH   8  22
TORSDOF 6
ENDMDL
MODEL 4
REMARK VINA RESULT:      -7.5      4.278      5.556
REMARK  Name = CHEMBL592732
REMARK  9 active torsions:
REMARK  status: ('A' for Active; 'I' for Inactive)
REMARK    1  A    between atoms: C_1  and  O_2
REMARK    2  A    between atoms: O_2  and  C_3
REMARK    3  A    between atoms: C_3  and  C_4
REMARK    4  A    between atoms: C_11  and  O_12
REMARK    5  A    between atoms: O_12  and  C_13
REMARK    6  A    between atoms: C_19  and  C_20
REMARK    7  A    between atoms: N_22  and  C_23
REMARK    8  A    between atoms: C_26  and  O_27
REMARK    9  A    between atoms: O_27  and  C_28
REMARK                            x       y       z     vdW  Elec       q    Type
REMARK                         _______ _______ _______ _____ _____    ______ ____
ROOT
ATOM      1  C   UNL     1      -6.029   3.669 121.827  0.00  0.00    +0.000 A 
ATOM      2  N   UNL     1      -5.244   4.722 122.001  0.00  0.00    +0.000 NA
ATOM      3  N   UNL     1      -5.066   4.922 123.354  0.00  0.00    +0.000 NA
ATOM      4  C   UNL     1      -5.710   3.969 124.021  0.00  0.00    +0.000 A 
ATOM      5  N   UNL     1      -5.633   3.695 125.346  0.00  0.00    +0.000 N 
ATOM      6  C   UNL     1      -5.462   2.361 125.846  0.00  0.00    +0.000 C 
ATOM      7  C   UNL     1      -6.559   2.303 126.872  0.00  0.00    +0.000 C 
ATOM      8  C   UNL     1      -6.481   3.583 127.654  0.00  0.00    +0.000 C 
ATOM      9  C   UNL     1      -6.111   4.564 126.455  0.00  0.00    +0.000 C 
ATOM     10  N   UNL     1      -6.351   3.165 123.070  0.00  0.00    +0.000 N 
ENDROOT
BRANCH  10  11
ATOM     11  C   UNL     1      -7.252   2.109 123.310  0.00  0.00    +0.000 A 
ATOM     12  C   UNL     1      -8.579   2.385 123.620  0.00  0.00    +0.000 A 
ATOM     13  C   UNL     1      -9.464   1.319 123.739  0.00  0.00    +0.000 A 
ATOM     14  C   UNL     1      -8.993   0.022 123.567  0.00  0.00    +0.000 A 
ATOM     15  N   UNL     1      -7.695  -0.250 123.299  0.00  0.00    +0.000 NA
ATOM     16  C   UNL     1      -6.847   0.797 123.177  0.00  0.00    +0.000 A 
BRANCH  14  17
ATOM     17  O   UNL     1      -9.771  -1.100 123.633  0.00  0.00    +0.000 OA
ATOM     18  C   UNL     1      -9.088  -2.342 123.533  0.00  0.00    +0.000 C 
ENDBRANCH  14  17
ENDBRANCH  10  11
BRANCH   1  19
ATOM     19  C   UNL     1      -6.681   3.236 120.550  0.00  0.00    +0.000 C 
BRANCH  19  21
ATOM     20  C   UNL     1      -8.929   3.903 120.280  0.00  0.00    +0.000 C 
ATOM     21  O   UNL     1      -7.561   4.268 120.099  0.00  0.00    +0.000 OA
ENDBRANCH  19  21
ENDBRANCH   1  19
BRANCH   8  22
ATOM     22  O   UNL     1      -5.451   3.475 128.684  0.00  0.00    +0.000 OA
BRANCH  22  23
ATOM     23  C   UNL     1      -4.853   4.623 129.210  0.00  0.00    +0.000 A 
ATOM     24  C   UNL     1      -5.651   5.372 130.107  0.00  0.00    +0.000 A 
ATOM     25  C   UNL     1      -5.257   6.653 130.551  0.00  0.00    +0.000 A 
ATOM     26  C   UNL     1      -4.085   7.217 130.082  0.00  0.00    +0.000 A 
ATOM     27  F   UNL     1      -3.704   8.443 130.460  0.00  0.00    +0.000 F 
ATOM     28  C   UNL     1      -3.293   6.522 129.201  0.00  0.00    +0.000 A 
ATOM     29  C   UNL     1      -3.654   5.241 128.745  0.00  0.00    +0.000 A 
ATOM     30  C   UNL     1      -2.612   4.716 127.801  0.00  0.00    +0.000 C 
ENDBRANCH  22  23
ENDBRANCH   8  22
TORSDOF 6
ENDMDL
MODEL 5
REMARK VINA RESULT:      -7.4      6.849     10.279
REMARK  Name = CHEMBL592732
REMARK  9 active torsions:
REMARK  status: ('A' for Active; 'I' for Inactive)
REMARK    1  A    between atoms: C_1  and  O_2
REMARK    2  A    between atoms: O_2  and  C_3
REMARK    3  A    between atoms: C_3  and  C_4
REMARK    4  A    between atoms: C_11  and  O_12
REMARK    5  A    between atoms: O_12  and  C_13
REMARK    6  A    between atoms: C_19  and  C_20
REMARK    7  A    between atoms: N_22  and  C_23
REMARK    8  A    between atoms: C_26  and  O_27
REMARK    9  A    between atoms: O_27  and  C_28
REMARK                            x       y       z     vdW  Elec       q    Type
REMARK                         _______ _______ _______ _____ _____    ______ ____
ROOT
ATOM      1  C   UNL     1      -6.282   1.275 132.687  0.00  0.00    +0.000 A 
ATOM      2  N   UNL     1      -7.370   1.064 133.413  0.00  0.00    +0.000 NA
ATOM      3  N   UNL     1      -8.375   1.891 132.954  0.00  0.00    +0.000 NA
ATOM      4  C   UNL     1      -7.922   2.588 131.916  0.00  0.00    +0.000 A 
ATOM      5  N   UNL     1      -8.640   3.364 131.068  0.00  0.00    +0.000 N 
ATOM      6  C   UNL     1      -8.489   3.290 129.644  0.00  0.00    +0.000 C 
ATOM      7  C   UNL     1      -8.313   4.743 129.303  0.00  0.00    +0.000 C 
ATOM      8  C   UNL     1      -9.369   5.491 130.067  0.00  0.00    +0.000 C 
ATOM      9  C   UNL     1      -9.331   4.636 131.410  0.00  0.00    +0.000 C 
ATOM     10  N   UNL     1      -6.580   2.229 131.736  0.00  0.00    +0.000 N 
ENDROOT
BRANCH  10  11
ATOM     11  C   UNL     1      -5.655   2.799 130.839  0.00  0.00    +0.000 A 
ATOM     12  C   UNL     1      -5.119   4.055 131.100  0.00  0.00    +0.000 A 
ATOM     13  C   UNL     1      -4.126   4.536 130.254  0.00  0.00    +0.000 A 
ATOM     14  C   UNL     1      -3.720   3.762 129.172  0.00  0.00    +0.000 A 
ATOM     15  N   UNL     1      -4.265   2.555 128.898  0.00  0.00    +0.000 NA
ATOM     16  C   UNL     1      -5.223   2.095 129.734  0.00  0.00    +0.000 A 
BRANCH  14  17
ATOM     17  O   UNL     1      -2.737   4.118 128.291  0.00  0.00    +0.000 OA
ATOM     18  C   UNL     1      -2.358   3.128 127.344  0.00  0.00    +0.000 C 
ENDBRANCH  14  17
ENDBRANCH  10  11
BRANCH   1  19
ATOM     19  C   UNL     1      -4.898   0.784 132.980  0.00  0.00    +0.000 C 
BRANCH  19  21
ATOM     20  C   UNL     1      -2.991   2.108 133.410  0.00  0.00    +0.000 C 
ATOM     21  O   UNL     1      -4.265   1.684 133.894  0.00  0.00    +0.000 OA
ENDBRANCH  19  21
ENDBRANCH   1  19
BRANCH   8  22
ATOM     22  O   UNL     1     -10.640   5.430 129.348  0.00  0.00    +0.000 OA
BRANCH  22  23
ATOM     23  C   UNL     1     -11.475   6.548 129.295  0.00  0.00    +0.000 A 
ATOM     24  C   UNL     1     -11.526   7.216 128.048  0.00  0.00    +0.000 A 
ATOM     25  C   UNL     1     -12.161   8.469 127.908  0.00  0.00    +0.000 A 
ATOM     26  C   UNL     1     -12.723   9.087 129.010  0.00  0.00    +0.000 A 
ATOM     27  F   UNL     1     -13.303  10.289 128.913  0.00  0.00    +0.000 F 
ATOM     28  C   UNL     1     -12.681   8.472 130.237  0.00  0.00    +0.000 A 
ATOM     29  C   UNL     1     -12.061   7.220 130.409  0.00  0.00    +0.000 A 
ATOM     30  C   UNL     1     -12.166   6.784 131.841  0.00  0.00    +0.000 C 
ENDBRANCH  22  23
ENDBRANCH   8  22
TORSDOF 6
ENDMDL
MODEL 6
REMARK VINA RESULT:      -7.3      4.146      6.854
REMARK  Name = CHEMBL592732
REMARK  9 active torsions:
REMARK  status: ('A' for Active; 'I' for Inactive)
REMARK    1  A    between atoms: C_1  and  O_2
REMARK    2  A    between atoms: O_2  and  C_3
REMARK    3  A    between atoms: C_3  and  C_4
REMARK    4  A    between atoms: C_11  and  O_12
REMARK    5  A    between atoms: O_12  and  C_13
REMARK    6  A    between atoms: C_19  and  C_20
REMARK    7  A    between atoms: N_22  and  C_23
REMARK    8  A    between atoms: C_26  and  O_27
REMARK    9  A    between atoms: O_27  and  C_28
REMARK                            x       y       z     vdW  Elec       q    Type
REMARK                         _______ _______ _______ _____ _____    ______ ____
ROOT
ATOM      1  C   UNL     1      -8.745   4.553 130.078  0.00  0.00    +0.000 A 
ATOM      2  N   UNL     1      -9.842   3.830 129.909  0.00  0.00    +0.000 NA
ATOM      3  N   UNL     1      -9.502   2.651 129.279  0.00  0.00    +0.000 NA
ATOM      4  C   UNL     1      -8.185   2.625 129.091  0.00  0.00    +0.000 A 
ATOM      5  N   UNL     1      -7.432   1.575 128.682  0.00  0.00    +0.000 N 
ATOM      6  C   UNL     1      -6.210   1.205 129.336  0.00  0.00    +0.000 C 
ATOM      7  C   UNL     1      -5.282   1.101 128.159  0.00  0.00    +0.000 C 
ATOM      8  C   UNL     1      -6.017   0.327 127.102  0.00  0.00    +0.000 C 
ATOM      9  C   UNL     1      -7.470   0.934 127.341  0.00  0.00    +0.000 C 
ATOM     10  N   UNL     1      -7.679   3.838 129.574  0.00  0.00    +0.000 N 
ENDROOT
BRANCH  10  11
ATOM     11  C   UNL     1      -6.357   4.314 129.474  0.00  0.00    +0.000 A 
ATOM     12  C   UNL     1      -5.509   4.247 130.574  0.00  0.00    +0.000 A 
ATOM     13  C   UNL     1      -4.180   4.621 130.406  0.00  0.00    +0.000 A 
ATOM     14  C   UNL     1      -3.751   5.066 129.161  0.00  0.00    +0.000 A 
ATOM     15  N   UNL     1      -4.583   5.163 128.098  0.00  0.00    +0.000 NA
ATOM     16  C   UNL     1      -5.871   4.788 128.272  0.00  0.00    +0.000 A 
BRANCH  14  17
ATOM     17  O   UNL     1      -2.467   5.433 128.869  0.00  0.00    +0.000 OA
ATOM     18  C   UNL     1      -2.307   6.686 128.218  0.00  0.00    +0.000 C 
ENDBRANCH  14  17
ENDBRANCH  10  11
BRANCH   1  19
ATOM     19  C   UNL     1      -8.673   5.990 130.492  0.00  0.00    +0.000 C 
BRANCH  19  21
ATOM     20  C   UNL     1     -10.324   7.454 129.651  0.00  0.00    +0.000 C 
ATOM     21  O   UNL     1      -9.073   6.816 129.394  0.00  0.00    +0.000 OA
ENDBRANCH  19  21
ENDBRANCH   1  19
BRANCH   8  22
ATOM     22  O   UNL     1      -5.910  -1.106 127.371  0.00  0.00    +0.000 OA
BRANCH  22  23
ATOM     23  C   UNL     1      -7.060  -1.887 127.504  0.00  0.00    +0.000 A 
ATOM     24  C   UNL     1      -7.375  -2.293 128.823  0.00  0.00    +0.000 A 
ATOM     25  C   UNL     1      -8.383  -3.247 129.080  0.00  0.00    +0.000 A 
ATOM     26  C   UNL     1      -9.065  -3.834 128.029  0.00  0.00    +0.000 A 
ATOM     27  F   UNL     1     -10.001  -4.765 128.242  0.00  0.00    +0.000 F 
ATOM     28  C   UNL     1      -8.775  -3.472 126.736  0.00  0.00    +0.000 A 
ATOM     29  C   UNL     1      -7.781  -2.519 126.447  0.00  0.00    +0.000 A 
ATOM     30  C   UNL     1      -7.679  -2.312 124.964  0.00  0.00    +0.000 C 
ENDBRANCH  22  23
ENDBRANCH   8  22
TORSDOF 6
ENDMDL
MODEL 7
REMARK VINA RESULT:      -7.3      5.113      9.390
REMARK  Name = CHEMBL592732
REMARK  9 active torsions:
REMARK  status: ('A' for Active; 'I' for Inactive)
REMARK    1  A    between atoms: C_1  and  O_2
REMARK    2  A    between atoms: O_2  and  C_3
REMARK    3  A    between atoms: C_3  and  C_4
REMARK    4  A    between atoms: C_11  and  O_12
REMARK    5  A    between atoms: O_12  and  C_13
REMARK    6  A    between atoms: C_19  and  C_20
REMARK    7  A    between atoms: N_22  and  C_23
REMARK    8  A    between atoms: C_26  and  O_27
REMARK    9  A    between atoms: O_27  and  C_28
REMARK                            x       y       z     vdW  Elec       q    Type
REMARK                         _______ _______ _______ _____ _____    ______ ____
ROOT
ATOM      1  C   UNL     1      -3.393  -2.721 133.614  0.00  0.00    +0.000 A 
ATOM      2  N   UNL     1      -2.814  -3.771 133.053  0.00  0.00    +0.000 NA
ATOM      3  N   UNL     1      -3.299  -3.911 131.770  0.00  0.00    +0.000 NA
ATOM      4  C   UNL     1      -4.153  -2.923 131.520  0.00  0.00    +0.000 A 
ATOM      5  N   UNL     1      -4.700  -2.589 130.325  0.00  0.00    +0.000 N 
ATOM      6  C   UNL     1      -4.746  -1.235 129.853  0.00  0.00    +0.000 C 
ATOM      7  C   UNL     1      -6.194  -1.121 129.468  0.00  0.00    +0.000 C 
ATOM      8  C   UNL     1      -6.531  -2.364 128.696  0.00  0.00    +0.000 C 
ATOM      9  C   UNL     1      -5.670  -3.402 129.543  0.00  0.00    +0.000 C 
ATOM     10  N   UNL     1      -4.248  -2.157 132.689  0.00  0.00    +0.000 N 
ENDROOT
BRANCH  10  11
ATOM     11  C   UNL     1      -5.124  -1.084 132.941  0.00  0.00    +0.000 A 
ATOM     12  C   UNL     1      -4.655   0.223 132.886  0.00  0.00    +0.000 A 
ATOM     13  C   UNL     1      -5.571   1.260 133.028  0.00  0.00    +0.000 A 
ATOM     14  C   UNL     1      -6.912   0.957 133.240  0.00  0.00    +0.000 A 
ATOM     15  N   UNL     1      -7.364  -0.315 133.329  0.00  0.00    +0.000 NA
ATOM     16  C   UNL     1      -6.464  -1.313 133.180  0.00  0.00    +0.000 A 
BRANCH  14  17
ATOM     17  O   UNL     1      -7.905   1.888 133.368  0.00  0.00    +0.000 OA
ATOM     18  C   UNL     1      -7.514   3.155 133.879  0.00  0.00    +0.000 C 
ENDBRANCH  14  17
ENDBRANCH  10  11
BRANCH   1  19
ATOM     19  C   UNL     1      -3.354  -2.341 135.062  0.00  0.00    +0.000 C 
BRANCH  19  21
ATOM     20  C   UNL     1      -1.109  -1.912 135.652  0.00  0.00    +0.000 C 
ATOM     21  O   UNL     1      -2.354  -1.337 135.257  0.00  0.00    +0.000 OA
ENDBRANCH  19  21
ENDBRANCH   1  19
BRANCH   8  22
ATOM     22  O   UNL     1      -6.104  -2.218 127.306  0.00  0.00    +0.000 OA
BRANCH  22  23
ATOM     23  C   UNL     1      -7.009  -2.432 126.263  0.00  0.00    +0.000 A 
ATOM     24  C   UNL     1      -8.369  -2.528 126.643  0.00  0.00    +0.000 A 
ATOM     25  C   UNL     1      -9.361  -2.945 125.730  0.00  0.00    +0.000 A 
ATOM     26  C   UNL     1      -9.009  -3.303 124.441  0.00  0.00    +0.000 A 
ATOM     27  F   UNL     1      -9.925  -3.734 123.565  0.00  0.00    +0.000 F 
ATOM     28  C   UNL     1      -7.697  -3.233 124.044  0.00  0.00    +0.000 A 
ATOM     29  C   UNL     1      -6.685  -2.815 124.928  0.00  0.00    +0.000 A 
ATOM     30  C   UNL     1      -5.354  -2.828 124.233  0.00  0.00    +0.000 C 
ENDBRANCH  22  23
ENDBRANCH   8  22
TORSDOF 6
ENDMDL
MODEL 8
REMARK VINA RESULT:      -7.2      7.872     10.690
REMARK  Name = CHEMBL592732
REMARK  9 active torsions:
REMARK  status: ('A' for Active; 'I' for Inactive)
REMARK    1  A    between atoms: C_1  and  O_2
REMARK    2  A    between atoms: O_2  and  C_3
REMARK    3  A    between atoms: C_3  and  C_4
REMARK    4  A    between atoms: C_11  and  O_12
REMARK    5  A    between atoms: O_12  and  C_13
REMARK    6  A    between atoms: C_19  and  C_20
REMARK    7  A    between atoms: N_22  and  C_23
REMARK    8  A    between atoms: C_26  and  O_27
REMARK    9  A    between atoms: O_27  and  C_28
REMARK                            x       y       z     vdW  Elec       q    Type
REMARK                         _______ _______ _______ _____ _____    ______ ____
ROOT
ATOM      1  C   UNL     1      -5.727   5.527 131.289  0.00  0.00    +0.000 A 
ATOM      2  N   UNL     1      -5.717   6.821 131.006  0.00  0.00    +0.000 NA
ATOM      3  N   UNL     1      -7.002   7.216 130.695  0.00  0.00    +0.000 NA
ATOM      4  C   UNL     1      -7.818   6.174 130.824  0.00  0.00    +0.000 A 
ATOM      5  N   UNL     1      -9.174   6.180 130.798  0.00  0.00    +0.000 N 
ATOM      6  C   UNL     1      -9.964   5.485 131.772  0.00  0.00    +0.000 C 
ATOM      7  C   UNL     1     -10.903   4.722 130.881  0.00  0.00    +0.000 C 
ATOM      8  C   UNL     1     -11.388   5.692 129.841  0.00  0.00    +0.000 C 
ATOM      9  C   UNL     1     -10.030   6.495 129.623  0.00  0.00    +0.000 C 
ATOM     10  N   UNL     1      -7.027   5.076 131.184  0.00  0.00    +0.000 N 
ENDROOT
BRANCH  10  11
ATOM     11  C   UNL     1      -7.432   3.732 131.307  0.00  0.00    +0.000 A 
ATOM     12  C   UNL     1      -7.704   2.982 130.170  0.00  0.00    +0.000 A 
ATOM     13  C   UNL     1      -7.991   1.630 130.325  0.00  0.00    +0.000 A 
ATOM     14  C   UNL     1      -8.019   1.083 131.603  0.00  0.00    +0.000 A 
ATOM     15  N   UNL     1      -7.788   1.820 132.714  0.00  0.00    +0.000 NA
ATOM     16  C   UNL     1      -7.501   3.131 132.548  0.00  0.00    +0.000 A 
BRANCH  14  17
ATOM     17  O   UNL     1      -8.262  -0.234 131.877  0.00  0.00    +0.000 OA
ATOM     18  C   UNL     1      -7.417  -1.175 131.229  0.00  0.00    +0.000 C 
ENDBRANCH  14  17
ENDBRANCH  10  11
BRANCH   1  19
ATOM     19  C   UNL     1      -4.536   4.632 131.441  0.00  0.00    +0.000 C 
BRANCH  19  21
ATOM     20  C   UNL     1      -2.669   4.227 132.827  0.00  0.00    +0.000 C 
ATOM     21  O   UNL     1      -3.951   4.845 132.729  0.00  0.00    +0.000 OA
ENDBRANCH  19  21
ENDBRANCH   1  19
BRANCH   8  22
ATOM     22  O   UNL     1     -12.483   6.494 130.382  0.00  0.00    +0.000 OA
BRANCH  22  23
ATOM     23  C   UNL     1     -12.668   7.812 129.959  0.00  0.00    +0.000 A 
ATOM     24  C   UNL     1     -12.752   8.779 130.989  0.00  0.00    +0.000 A 
ATOM     25  C   UNL     1     -13.141  10.110 130.722  0.00  0.00    +0.000 A 
ATOM     26  C   UNL     1     -13.483  10.485 129.435  0.00  0.00    +0.000 A 
ATOM     27  F   UNL     1     -13.887  11.730 129.159  0.00  0.00    +0.000 F 
ATOM     28  C   UNL     1     -13.424   9.568 128.414  0.00  0.00    +0.000 A 
ATOM     29  C   UNL     1     -13.034   8.236 128.647  0.00  0.00    +0.000 A 
ATOM     30  C   UNL     1     -13.054   7.460 127.362  0.00  0.00    +0.000 C 
ENDBRANCH  22  23
ENDBRANCH   8  22
TORSDOF 6
ENDMDL
MODEL 9
REMARK VINA RESULT:      -7.2      2.931      3.827
REMARK  Name = CHEMBL592732
REMARK  9 active torsions:
REMARK  status: ('A' for Active; 'I' for Inactive)
REMARK    1  A    between atoms: C_1  and  O_2
REMARK    2  A    between atoms: O_2  and  C_3
REMARK    3  A    between atoms: C_3  and  C_4
REMARK    4  A    between atoms: C_11  and  O_12
REMARK    5  A    between atoms: O_12  and  C_13
REMARK    6  A    between atoms: C_19  and  C_20
REMARK    7  A    between atoms: N_22  and  C_23
REMARK    8  A    between atoms: C_26  and  O_27
REMARK    9  A    between atoms: O_27  and  C_28
REMARK                            x       y       z     vdW  Elec       q    Type
REMARK                         _______ _______ _______ _____ _____    ______ ____
ROOT
ATOM      1  C   UNL     1      -8.403   1.173 125.892  0.00  0.00    +0.000 A 
ATOM      2  N   UNL     1      -8.864   1.896 126.901  0.00  0.00    +0.000 NA
ATOM      3  N   UNL     1      -8.504   1.285 128.084  0.00  0.00    +0.000 NA
ATOM      4  C   UNL     1      -7.784   0.201 127.809  0.00  0.00    +0.000 A 
ATOM      5  N   UNL     1      -7.085  -0.567 128.681  0.00  0.00    +0.000 N 
ATOM      6  C   UNL     1      -5.737  -0.986 128.425  0.00  0.00    +0.000 C 
ATOM      7  C   UNL     1      -5.846  -2.460 128.694  0.00  0.00    +0.000 C 
ATOM      8  C   UNL     1      -6.615  -2.605 129.977  0.00  0.00    +0.000 C 
ATOM      9  C   UNL     1      -7.656  -1.421 129.756  0.00  0.00    +0.000 C 
ATOM     10  N   UNL     1      -7.720   0.094 126.414  0.00  0.00    +0.000 N 
ENDROOT
BRANCH  10  11
ATOM     11  C   UNL     1      -7.172  -0.962 125.661  0.00  0.00    +0.000 A 
ATOM     12  C   UNL     1      -5.927  -0.815 125.061  0.00  0.00    +0.000 A 
ATOM     13  C   UNL     1      -5.368  -1.916 124.422  0.00  0.00    +0.000 A 
ATOM     14  C   UNL     1      -6.077  -3.112 124.384  0.00  0.00    +0.000 A 
ATOM     15  N   UNL     1      -7.304  -3.247 124.937  0.00  0.00    +0.000 NA
ATOM     16  C   UNL     1      -7.832  -2.171 125.564  0.00  0.00    +0.000 A 
BRANCH  14  17
ATOM     17  O   UNL     1      -5.620  -4.265 123.809  0.00  0.00    +0.000 OA
ATOM     18  C   UNL     1      -4.209  -4.429 123.769  0.00  0.00    +0.000 C 
ENDBRANCH  14  17
ENDBRANCH  10  11
BRANCH   1  19
ATOM     19  C   UNL     1      -8.758   1.322 124.445  0.00  0.00    +0.000 C 
BRANCH  19  21
ATOM     20  C   UNL     1     -10.105   0.380 122.750  0.00  0.00    +0.000 C 
ATOM     21  O   UNL     1      -9.901   0.512 124.157  0.00  0.00    +0.000 OA
ENDBRANCH  19  21
ENDBRANCH   1  19
BRANCH   8  22
ATOM     22  O   UNL     1      -5.720  -2.418 131.117  0.00  0.00    +0.000 OA
BRANCH  22  23
ATOM     23  C   UNL     1      -5.820  -3.248 132.236  0.00  0.00    +0.000 A 
ATOM     24  C   UNL     1      -4.935  -4.352 132.260  0.00  0.00    +0.000 A 
ATOM     25  C   UNL     1      -5.064  -5.380 133.219  0.00  0.00    +0.000 A 
ATOM     26  C   UNL     1      -6.092  -5.339 134.143  0.00  0.00    +0.000 A 
ATOM     27  F   UNL     1      -6.258  -6.315 135.042  0.00  0.00    +0.000 F 
ATOM     28  C   UNL     1      -6.975  -4.287 134.140  0.00  0.00    +0.000 A 
ATOM     29  C   UNL     1      -6.870  -3.244 133.202  0.00  0.00    +0.000 A 
ATOM     30  C   UNL     1      -7.955  -2.232 133.430  0.00  0.00    +0.000 C 
ENDBRANCH  22  23
ENDBRANCH   8  22
TORSDOF 6
ENDMDL
