MODEL 1
REMARK VINA RESULT:     -12.2      0.000      0.000
REMARK  Name = CHEMBL2112249
REMARK  8 active torsions:
REMARK  status: ('A' for Active; 'I' for Inactive)
REMARK    1  A    between atoms: CD1_1  and  CG1_2
REMARK    2  A    between atoms: CG1_2  and  CB_3
REMARK    3  A    between atoms: CB_3  and  CG2_4
REMARK    4  A    between atoms: CB_3  and  CA_5
REMARK    5  A    between atoms: C_9  and  C_10
REMARK    6  A    between atoms: C_10  and  C_11
REMARK    7  A    between atoms: CA_31  and  CB_32
REMARK    8  A    between atoms: CB_32  and  CG_33
REMARK                            x       y       z     vdW  Elec       q    Type
REMARK                         _______ _______ _______ _____ _____    ______ ____
ROOT
ATOM      1  CA  ILE A   1      -7.776  -1.669 126.701  0.00  0.00    +0.000 C 
ATOM      2  N   ILE A   1      -7.346  -0.373 126.230  0.00  0.00    +0.000 N 
ATOM      3  C   UNK A   6      -8.120   0.721 125.894  0.00  0.00    +0.000 C 
ATOM      4  O   UNK A   6      -9.346   0.723 125.863  0.00  0.00    +0.000 OA
ATOM      5  C   UNK A   6      -7.318   2.052 125.773  0.00  0.00    +0.000 C 
ATOM      6  N   UNK A   6      -8.280   3.270 125.976  0.00  0.00    +0.000 N 
ATOM      7  C   PRO A   5      -8.024   4.339 126.896  0.00  0.00    +0.000 C 
ATOM      8  O   PRO A   5      -7.070   5.059 126.483  0.00  0.00    +0.000 OA
ATOM      9  CA  PRO A   5      -8.333   3.922 128.839  0.00  0.00    +0.000 C 
ATOM     10  CB  PRO A   5      -6.853   2.880 129.324  0.00  0.00    +0.000 C 
ATOM     11  CG  PRO A   5      -7.425   2.898 128.168  0.00  0.00    +0.000 C 
ATOM     12  CD  PRO A   5      -7.036   4.703 128.860  0.00  0.00    +0.000 C 
ATOM     13  N   PRO A   5      -7.971   4.783 129.870  0.00  0.00    +0.000 N 
ATOM     14  C   HIS A   4      -7.613   4.436 131.259  0.00  0.00    +0.000 C 
ATOM     15  O   HIS A   4      -8.389   4.801 132.156  0.00  0.00    +0.000 OA
ATOM     16  CA  HIS A   4      -6.317   3.443 131.822  0.00  0.00    +0.000 C 
ATOM     17  N   HIS A   4      -6.674   2.643 133.155  0.00  0.00    +0.000 N 
ATOM     18  C   LYS A   3      -6.262   1.325 133.514  0.00  0.00    +0.000 C 
ATOM     19  O   LYS A   3      -5.090   1.270 133.933  0.00  0.00    +0.000 OA
ATOM     20  CA  LYS A   3      -7.073  -0.235 132.921  0.00  0.00    +0.000 C 
ATOM     21  CB  LYS A   3      -8.162  -0.288 131.826  0.00  0.00    +0.000 C 
ATOM     22  CG  LYS A   3      -8.748   0.991 132.075  0.00  0.00    +0.000 C 
ATOM     23  CD  LYS A   3      -7.763   1.235 130.985  0.00  0.00    +0.000 C 
ATOM     24  CE  LYS A   3      -5.953   0.489 131.208  0.00  0.00    +0.000 C 
ATOM     25  N   LYS A   3      -6.098  -0.698 131.987  0.00  0.00    +0.000 N 
ATOM     26  C   LYS A   2      -6.387  -1.852 131.251  0.00  0.00    +0.000 C 
ATOM     27  O   LYS A   2      -7.047  -2.727 131.798  0.00  0.00    +0.000 OA
ATOM     28  CA  LYS A   2      -5.979  -1.627 129.505  0.00  0.00    +0.000 C 
ATOM     29  CB  LYS A   2      -4.607  -2.088 129.100  0.00  0.00    +0.000 C 
ATOM     30  CG  LYS A   2      -3.991  -2.305 130.411  0.00  0.00    +0.000 C 
ATOM     31  CD  LYS A   2      -4.562  -3.737 130.276  0.00  0.00    +0.000 C 
ATOM     32  CE  LYS A   2      -6.321  -3.797 129.517  0.00  0.00    +0.000 C 
ATOM     33  N   LYS A   2      -6.737  -2.545 128.773  0.00  0.00    +0.000 N 
ATOM     34  C   ILE A   1      -6.575  -2.334 127.370  0.00  0.00    +0.000 C 
ATOM     35  O   ILE A   1      -5.574  -2.539 126.711  0.00  0.00    +0.000 OA
ATOM     36  H   ILE A   1      -6.342  -0.343 126.106  0.00  0.00    +0.000 HD
ATOM     37  H   UNK A   6      -9.232   2.957 126.068  0.00  0.00    +0.000 HD
ATOM     38  H   HIS A   4      -7.608   2.870 133.462  0.00  0.00    +0.000 HD
ENDROOT
BRANCH   1  39
ATOM     39  CB  ILE A   1      -8.252  -2.635 125.601  0.00  0.00    +0.000 C 
ATOM     40  CG2 ILE A   1      -9.762  -2.913 125.736  0.00  0.00    +0.000 C 
BRANCH  39  42
ATOM     41  CD1 ILE A   1      -9.012  -2.298 123.193  0.00  0.00    +0.000 C 
ATOM     42  CG1 ILE A   1      -7.927  -2.043 124.232  0.00  0.00    +0.000 C 
ENDBRANCH  39  42
ENDBRANCH   1  39
BRANCH   5  43
ATOM     43  C   UNK A   6      -6.164   2.304 124.844  0.00  0.00    +0.000 C 
BRANCH  43  44
ATOM     44  C   UNK A   6      -6.565   2.852 123.495  0.00  0.00    +0.000 A 
ATOM     45  C   UNK A   6      -7.925   2.835 123.154  0.00  0.00    +0.000 A 
ATOM     46  C   UNK A   6      -8.332   3.082 121.855  0.00  0.00    +0.000 A 
ATOM     47  C   UNK A   6      -7.449   3.669 120.972  0.00  0.00    +0.000 A 
ATOM     48  C   UNK A   6      -7.950   4.184 119.782  0.00  0.00    +0.000 A 
ATOM     49  C   UNK A   6      -7.131   4.971 118.988  0.00  0.00    +0.000 A 
ATOM     50  C   UNK A   6      -5.796   5.169 119.345  0.00  0.00    +0.000 A 
ATOM     51  C   UNK A   6      -5.262   4.557 120.482  0.00  0.00    +0.000 A 
ATOM     52  C   UNK A   6      -6.089   3.819 121.330  0.00  0.00    +0.000 A 
ATOM     53  C   UNK A   6      -5.632   3.290 122.548  0.00  0.00    +0.000 A 
ENDBRANCH  43  44
ENDBRANCH   5  43
BRANCH  16  54
ATOM     54  CB  HIS A   4      -4.820   3.697 131.577  0.00  0.00    +0.000 C 
BRANCH  54  55
ATOM     55  CG  HIS A   4      -3.916   4.220 132.668  0.00  0.00    +0.000 A 
ATOM     56  CD2 HIS A   4      -2.538   4.177 132.831  0.00  0.00    +0.000 A 
ATOM     57  NE2 HIS A   4      -2.263   4.990 133.906  0.00  0.00    +0.000 N 
ATOM     58  CE1 HIS A   4      -3.448   5.490 134.344  0.00  0.00    +0.000 A 
ATOM     59  ND1 HIS A   4      -4.448   4.844 133.774  0.00  0.00    +0.000 NA
ATOM     60  HE2 HIS A   4      -1.370   5.183 134.339  0.00  0.00    +0.000 HD
ENDBRANCH  54  55
ENDBRANCH  16  54
TORSDOF 6
ENDMDL
MODEL 2
REMARK VINA RESULT:     -11.5      2.773      8.899
REMARK  Name = CHEMBL2112249
REMARK  8 active torsions:
REMARK  status: ('A' for Active; 'I' for Inactive)
REMARK    1  A    between atoms: CD1_1  and  CG1_2
REMARK    2  A    between atoms: CG1_2  and  CB_3
REMARK    3  A    between atoms: CB_3  and  CG2_4
REMARK    4  A    between atoms: CB_3  and  CA_5
REMARK    5  A    between atoms: C_9  and  C_10
REMARK    6  A    between atoms: C_10  and  C_11
REMARK    7  A    between atoms: CA_31  and  CB_32
REMARK    8  A    between atoms: CB_32  and  CG_33
REMARK                            x       y       z     vdW  Elec       q    Type
REMARK                         _______ _______ _______ _____ _____    ______ ____
ROOT
ATOM      1  CA  ILE A   1      -5.013  -2.417 129.363  0.00  0.00    +0.000 C 
ATOM      2  N   ILE A   1      -5.497  -1.756 130.554  0.00  0.00    +0.000 N 
ATOM      3  C   UNK A   6      -4.777  -1.045 131.496  0.00  0.00    +0.000 C 
ATOM      4  O   UNK A   6      -3.555  -0.939 131.504  0.00  0.00    +0.000 OA
ATOM      5  C   UNK A   6      -5.659  -0.176 132.442  0.00  0.00    +0.000 C 
ATOM      6  N   UNK A   6      -4.802   0.989 133.041  0.00  0.00    +0.000 N 
ATOM      7  C   PRO A   5      -5.199   2.366 133.009  0.00  0.00    +0.000 C 
ATOM      8  O   PRO A   5      -6.168   2.565 133.798  0.00  0.00    +0.000 OA
ATOM      9  CA  PRO A   5      -5.009   3.296 131.237  0.00  0.00    +0.000 C 
ATOM     10  CB  PRO A   5      -6.445   2.647 130.222  0.00  0.00    +0.000 C 
ATOM     11  CG  PRO A   5      -5.791   1.992 131.121  0.00  0.00    +0.000 C 
ATOM     12  CD  PRO A   5      -6.355   3.780 131.732  0.00  0.00    +0.000 C 
ATOM     13  N   PRO A   5      -5.506   4.571 130.988  0.00  0.00    +0.000 N 
ATOM     14  C   HIS A   4      -5.942   5.139 129.697  0.00  0.00    +0.000 C 
ATOM     15  O   HIS A   4      -5.263   6.063 129.222  0.00  0.00    +0.000 OA
ATOM     16  CA  HIS A   4      -7.204   4.595 128.651  0.00  0.00    +0.000 C 
ATOM     17  N   HIS A   4      -6.893   4.852 127.108  0.00  0.00    +0.000 N 
ATOM     18  C   LYS A   3      -7.238   4.019 126.003  0.00  0.00    +0.000 C 
ATOM     19  O   LYS A   3      -8.432   4.121 125.660  0.00  0.00    +0.000 OA
ATOM     20  CA  LYS A   3      -6.278   2.525 125.464  0.00  0.00    +0.000 C 
ATOM     21  CB  LYS A   3      -5.109   1.907 126.262  0.00  0.00    +0.000 C 
ATOM     22  CG  LYS A   3      -4.634   3.109 126.871  0.00  0.00    +0.000 C 
ATOM     23  CD  LYS A   3      -5.550   2.513 127.883  0.00  0.00    +0.000 C 
ATOM     24  CE  LYS A   3      -7.314   1.894 127.264  0.00  0.00    +0.000 C 
ATOM     25  N   LYS A   3      -7.146   1.483 125.908  0.00  0.00    +0.000 N 
ATOM     26  C   LYS A   2      -6.723   0.159 125.744  0.00  0.00    +0.000 C 
ATOM     27  O   LYS A   2      -6.047  -0.105 124.757  0.00  0.00    +0.000 OA
ATOM     28  CA  LYS A   2      -7.014  -0.805 127.244  0.00  0.00    +0.000 C 
ATOM     29  CB  LYS A   2      -8.316  -1.554 127.286  0.00  0.00    +0.000 C 
ATOM     30  CG  LYS A   2      -9.012  -0.960 126.142  0.00  0.00    +0.000 C 
ATOM     31  CD  LYS A   2      -8.334  -2.092 125.332  0.00  0.00    +0.000 C 
ATOM     32  CE  LYS A   2      -6.523  -2.437 125.857  0.00  0.00    +0.000 C 
ATOM     33  N   LYS A   2      -6.141  -1.897 127.220  0.00  0.00    +0.000 N 
ATOM     34  C   ILE A   1      -6.212  -2.631 128.442  0.00  0.00    +0.000 C 
ATOM     35  O   ILE A   1      -7.144  -3.305 128.837  0.00  0.00    +0.000 OA
ATOM     36  H   ILE A   1      -6.487  -1.914 130.683  0.00  0.00    +0.000 HD
ATOM     37  H   UNK A   6      -3.840   0.901 132.759  0.00  0.00    +0.000 HD
ATOM     38  H   HIS A   4      -6.003   5.315 127.001  0.00  0.00    +0.000 HD
ENDROOT
BRANCH   1  39
ATOM     39  CB  ILE A   1      -4.390  -3.805 129.598  0.00  0.00    +0.000 C 
ATOM     40  CG2 ILE A   1      -2.895  -3.802 129.223  0.00  0.00    +0.000 C 
BRANCH  39  42
ATOM     41  CD1 ILE A   1      -5.638  -5.291 131.249  0.00  0.00    +0.000 C 
ATOM     42  CG1 ILE A   1      -4.584  -4.207 131.057  0.00  0.00    +0.000 C 
ENDBRANCH  39  42
ENDBRANCH   1  39
BRANCH   5  43
ATOM     43  C   UNK A   6      -6.755  -0.682 133.337  0.00  0.00    +0.000 C 
BRANCH  43  44
ATOM     44  C   UNK A   6      -6.550  -2.097 133.825  0.00  0.00    +0.000 A 
ATOM     45  C   UNK A   6      -7.653  -2.964 133.814  0.00  0.00    +0.000 A 
ATOM     46  C   UNK A   6      -7.604  -4.179 134.473  0.00  0.00    +0.000 A 
ATOM     47  C   UNK A   6      -6.381  -4.691 134.853  0.00  0.00    +0.000 A 
ATOM     48  C   UNK A   6      -6.312  -6.026 135.234  0.00  0.00    +0.000 A 
ATOM     49  C   UNK A   6      -5.071  -6.619 135.402  0.00  0.00    +0.000 A 
ATOM     50  C   UNK A   6      -3.911  -5.854 135.273  0.00  0.00    +0.000 A 
ATOM     51  C   UNK A   6      -3.983  -4.485 135.002  0.00  0.00    +0.000 A 
ATOM     52  C   UNK A   6      -5.220  -3.887 134.760  0.00  0.00    +0.000 A 
ATOM     53  C   UNK A   6      -5.338  -2.545 134.363  0.00  0.00    +0.000 A 
ENDBRANCH  43  44
ENDBRANCH   5  43
BRANCH  16  54
ATOM     54  CB  HIS A   4      -8.693   4.486 129.023  0.00  0.00    +0.000 C 
BRANCH  54  55
ATOM     55  CG  HIS A   4      -9.585   5.703 129.084  0.00  0.00    +0.000 A 
ATOM     56  CD2 HIS A   4     -10.327   6.257 130.119  0.00  0.00    +0.000 A 
ATOM     57  NE2 HIS A   4     -10.776   7.470 129.649  0.00  0.00    +0.000 N 
ATOM     58  CE1 HIS A   4     -10.301   7.610 128.384  0.00  0.00    +0.000 A 
ATOM     59  ND1 HIS A   4      -9.806   6.462 127.958  0.00  0.00    +0.000 NA
ATOM     60  HE2 HIS A   4     -11.371   8.144 130.110  0.00  0.00    +0.000 HD
ENDBRANCH  54  55
ENDBRANCH  16  54
TORSDOF 6
ENDMDL
MODEL 3
REMARK VINA RESULT:     -11.4      2.617      9.025
REMARK  Name = CHEMBL2112249
REMARK  8 active torsions:
REMARK  status: ('A' for Active; 'I' for Inactive)
REMARK    1  A    between atoms: CD1_1  and  CG1_2
REMARK    2  A    between atoms: CG1_2  and  CB_3
REMARK    3  A    between atoms: CB_3  and  CG2_4
REMARK    4  A    between atoms: CB_3  and  CA_5
REMARK    5  A    between atoms: C_9  and  C_10
REMARK    6  A    between atoms: C_10  and  C_11
REMARK    7  A    between atoms: CA_31  and  CB_32
REMARK    8  A    between atoms: CB_32  and  CG_33
REMARK                            x       y       z     vdW  Elec       q    Type
REMARK                         _______ _______ _______ _____ _____    ______ ____
ROOT
ATOM      1  CA  ILE A   1      -8.027   4.055 129.212  0.00  0.00    +0.000 C 
ATOM      2  N   ILE A   1      -7.277   3.035 129.910  0.00  0.00    +0.000 N 
ATOM      3  C   UNK A   6      -7.738   2.089 130.805  0.00  0.00    +0.000 C 
ATOM      4  O   UNK A   6      -8.889   2.029 131.223  0.00  0.00    +0.000 OA
ATOM      5  C   UNK A   6      -6.728   0.935 131.083  0.00  0.00    +0.000 C 
ATOM      6  N   UNK A   6      -7.497  -0.328 131.596  0.00  0.00    +0.000 N 
ATOM      7  C   PRO A   5      -7.337  -1.637 131.036  0.00  0.00    +0.000 C 
ATOM      8  O   PRO A   5      -6.202  -2.109 131.331  0.00  0.00    +0.000 OA
ATOM      9  CA  PRO A   5      -8.238  -1.953 129.266  0.00  0.00    +0.000 C 
ATOM     10  CB  PRO A   5      -7.142  -1.069 128.030  0.00  0.00    +0.000 C 
ATOM     11  CG  PRO A   5      -7.358  -0.709 129.249  0.00  0.00    +0.000 C 
ATOM     12  CD  PRO A   5      -6.889  -2.616 129.084  0.00  0.00    +0.000 C 
ATOM     13  N   PRO A   5      -8.042  -3.102 128.505  0.00  0.00    +0.000 N 
ATOM     14  C   HIS A   4      -8.146  -3.249 127.041  0.00  0.00    +0.000 C 
ATOM     15  O   HIS A   4      -9.071  -3.951 126.602  0.00  0.00    +0.000 OA
ATOM     16  CA  HIS A   4      -7.238  -2.448 125.809  0.00  0.00    +0.000 C 
ATOM     17  N   HIS A   4      -8.077  -2.194 124.477  0.00  0.00    +0.000 N 
ATOM     18  C   LYS A   3      -8.002  -1.067 123.605  0.00  0.00    +0.000 C 
ATOM     19  O   LYS A   3      -7.018  -1.098 122.841  0.00  0.00    +0.000 OA
ATOM     20  CA  LYS A   3      -8.859   0.554 123.894  0.00  0.00    +0.000 C 
ATOM     21  CB  LYS A   3      -9.594   0.929 125.200  0.00  0.00    +0.000 C 
ATOM     22  CG  LYS A   3     -10.009  -0.386 125.572  0.00  0.00    +0.000 C 
ATOM     23  CD  LYS A   3      -8.733  -0.173 126.310  0.00  0.00    +0.000 C 
ATOM     24  CE  LYS A   3      -7.204   0.547 125.299  0.00  0.00    +0.000 C 
ATOM     25  N   LYS A   3      -7.751   1.371 124.270  0.00  0.00    +0.000 N 
ATOM     26  C   LYS A   2      -8.008   2.693 124.650  0.00  0.00    +0.000 C 
ATOM     27  O   LYS A   2      -8.927   3.279 124.092  0.00  0.00    +0.000 OA
ATOM     28  CA  LYS A   2      -7.099   3.124 126.151  0.00  0.00    +0.000 C 
ATOM     29  CB  LYS A   2      -5.763   3.775 125.930  0.00  0.00    +0.000 C 
ATOM     30  CG  LYS A   2      -5.580   3.548 124.495  0.00  0.00    +0.000 C 
ATOM     31  CD  LYS A   2      -6.316   4.901 124.339  0.00  0.00    +0.000 C 
ATOM     32  CE  LYS A   2      -7.780   5.126 125.556  0.00  0.00    +0.000 C 
ATOM     33  N   LYS A   2      -7.762   4.198 126.753  0.00  0.00    +0.000 N 
ATOM     34  C   ILE A   1      -7.184   4.506 128.021  0.00  0.00    +0.000 C 
ATOM     35  O   ILE A   1      -6.086   4.987 128.226  0.00  0.00    +0.000 OA
ATOM     36  H   ILE A   1      -6.288   3.109 129.712  0.00  0.00    +0.000 HD
ATOM     37  H   UNK A   6      -8.474  -0.122 131.717  0.00  0.00    +0.000 HD
ATOM     38  H   HIS A   4      -9.010  -2.567 124.572  0.00  0.00    +0.000 HD
ENDROOT
BRANCH   1  39
ATOM     39  CB  ILE A   1      -8.328   5.319 130.037  0.00  0.00    +0.000 C 
ATOM     40  CG2 ILE A   1      -9.795   5.322 130.512  0.00  0.00    +0.000 C 
BRANCH  39  42
ATOM     41  CD1 ILE A   1      -6.611   6.708 131.308  0.00  0.00    +0.000 C 
ATOM     42  CG1 ILE A   1      -7.371   5.389 131.224  0.00  0.00    +0.000 C 
ENDBRANCH  39  42
ENDBRANCH   1  39
BRANCH   5  43
ATOM     43  C   UNK A   6      -5.336   1.094 131.627  0.00  0.00    +0.000 C 
BRANCH  43  44
ATOM     44  C   UNK A   6      -4.562   2.240 131.019  0.00  0.00    +0.000 A 
ATOM     45  C   UNK A   6      -4.314   2.210 129.639  0.00  0.00    +0.000 A 
ATOM     46  C   UNK A   6      -3.408   3.083 129.064  0.00  0.00    +0.000 A 
ATOM     47  C   UNK A   6      -3.000   4.194 129.772  0.00  0.00    +0.000 A 
ATOM     48  C   UNK A   6      -2.339   5.208 129.087  0.00  0.00    +0.000 A 
ATOM     49  C   UNK A   6      -2.122   6.421 129.720  0.00  0.00    +0.000 A 
ATOM     50  C   UNK A   6      -2.487   6.585 131.057  0.00  0.00    +0.000 A 
ATOM     51  C   UNK A   6      -3.048   5.528 131.779  0.00  0.00    +0.000 A 
ATOM     52  C   UNK A   6      -3.339   4.323 131.139  0.00  0.00    +0.000 A 
ATOM     53  C   UNK A   6      -4.015   3.275 131.786  0.00  0.00    +0.000 A 
ENDBRANCH  43  44
ENDBRANCH   5  43
BRANCH  16  54
ATOM     54  CB  HIS A   4      -5.711  -2.514 125.634  0.00  0.00    +0.000 C 
BRANCH  54  55
ATOM     55  CG  HIS A   4      -5.074  -3.348 124.548  0.00  0.00    +0.000 A 
ATOM     56  CD2 HIS A   4      -4.060  -3.071 123.641  0.00  0.00    +0.000 A 
ATOM     57  NE2 HIS A   4      -3.762  -4.271 123.036  0.00  0.00    +0.000 N 
ATOM     58  CE1 HIS A   4      -4.577  -5.210 123.584  0.00  0.00    +0.000 A 
ATOM     59  ND1 HIS A   4      -5.522  -4.625 124.298  0.00  0.00    +0.000 NA
ATOM     60  HE2 HIS A   4      -3.095  -4.458 122.300  0.00  0.00    +0.000 HD
ENDBRANCH  54  55
ENDBRANCH  16  54
TORSDOF 6
ENDMDL
MODEL 4
REMARK VINA RESULT:     -11.3      2.640      8.387
REMARK  Name = CHEMBL2112249
REMARK  8 active torsions:
REMARK  status: ('A' for Active; 'I' for Inactive)
REMARK    1  A    between atoms: CD1_1  and  CG1_2
REMARK    2  A    between atoms: CG1_2  and  CB_3
REMARK    3  A    between atoms: CB_3  and  CG2_4
REMARK    4  A    between atoms: CB_3  and  CA_5
REMARK    5  A    between atoms: C_9  and  C_10
REMARK    6  A    between atoms: C_10  and  C_11
REMARK    7  A    between atoms: CA_31  and  CB_32
REMARK    8  A    between atoms: CB_32  and  CG_33
REMARK                            x       y       z     vdW  Elec       q    Type
REMARK                         _______ _______ _______ _____ _____    ______ ____
ROOT
ATOM      1  CA  ILE A   1      -8.562   4.365 129.235  0.00  0.00    +0.000 C 
ATOM      2  N   ILE A   1      -7.963   3.593 130.299  0.00  0.00    +0.000 N 
ATOM      3  C   UNK A   6      -8.585   2.776 131.224  0.00  0.00    +0.000 C 
ATOM      4  O   UNK A   6      -9.800   2.650 131.336  0.00  0.00    +0.000 OA
ATOM      5  C   UNK A   6      -7.612   1.827 131.987  0.00  0.00    +0.000 C 
ATOM      6  N   UNK A   6      -8.401   0.593 132.539  0.00  0.00    +0.000 N 
ATOM      7  C   PRO A   5      -7.999  -0.766 132.325  0.00  0.00    +0.000 C 
ATOM      8  O   PRO A   5      -6.959  -1.031 132.993  0.00  0.00    +0.000 OA
ATOM      9  CA  PRO A   5      -8.352  -1.510 130.490  0.00  0.00    +0.000 C 
ATOM     10  CB  PRO A   5      -7.023  -0.736 129.419  0.00  0.00    +0.000 C 
ATOM     11  CG  PRO A   5      -7.592  -0.190 130.439  0.00  0.00    +0.000 C 
ATOM     12  CD  PRO A   5      -6.961  -2.021 130.803  0.00  0.00    +0.000 C 
ATOM     13  N   PRO A   5      -7.872  -2.745 130.063  0.00  0.00    +0.000 N 
ATOM     14  C   HIS A   4      -7.558  -3.169 128.685  0.00  0.00    +0.000 C 
ATOM     15  O   HIS A   4      -8.273  -4.049 128.182  0.00  0.00    +0.000 OA
ATOM     16  CA  HIS A   4      -6.404  -2.499 127.588  0.00  0.00    +0.000 C 
ATOM     17  N   HIS A   4      -6.859  -2.599 126.063  0.00  0.00    +0.000 N 
ATOM     18  C   LYS A   3      -6.626  -1.650 125.023  0.00  0.00    +0.000 C 
ATOM     19  O   LYS A   3      -5.470  -1.697 124.561  0.00  0.00    +0.000 OA
ATOM     20  CA  LYS A   3      -7.643  -0.124 124.737  0.00  0.00    +0.000 C 
ATOM     21  CB  LYS A   3      -8.734   0.389 125.702  0.00  0.00    +0.000 C 
ATOM     22  CG  LYS A   3      -9.141  -0.878 126.223  0.00  0.00    +0.000 C 
ATOM     23  CD  LYS A   3      -8.137  -0.375 127.201  0.00  0.00    +0.000 C 
ATOM     24  CE  LYS A   3      -6.444   0.333 126.487  0.00  0.00    +0.000 C 
ATOM     25  N   LYS A   3      -6.743   0.881 125.204  0.00  0.00    +0.000 N 
ATOM     26  C   LYS A   2      -7.189   2.207 125.220  0.00  0.00    +0.000 C 
ATOM     27  O   LYS A   2      -7.957   2.561 124.335  0.00  0.00    +0.000 OA
ATOM     28  CA  LYS A   2      -6.762   3.015 126.779  0.00  0.00    +0.000 C 
ATOM     29  CB  LYS A   2      -5.466   3.777 126.776  0.00  0.00    +0.000 C 
ATOM     30  CG  LYS A   2      -4.879   3.316 125.516  0.00  0.00    +0.000 C 
ATOM     31  CD  LYS A   2      -5.638   4.515 124.898  0.00  0.00    +0.000 C 
ATOM     32  CE  LYS A   2      -7.393   4.774 125.624  0.00  0.00    +0.000 C 
ATOM     33  N   LYS A   2      -7.640   4.089 126.952  0.00  0.00    +0.000 N 
ATOM     34  C   ILE A   1      -7.458   4.694 128.232  0.00  0.00    +0.000 C 
ATOM     35  O   ILE A   1      -6.496   5.338 128.606  0.00  0.00    +0.000 OA
ATOM     36  H   ILE A   1      -6.966   3.752 130.350  0.00  0.00    +0.000 HD
ATOM     37  H   UNK A   6      -9.385   0.694 132.359  0.00  0.00    +0.000 HD
ATOM     38  H   HIS A   4      -7.753  -3.062 125.992  0.00  0.00    +0.000 HD
ENDROOT
BRANCH   1  39
ATOM     39  CB  ILE A   1      -9.168   5.711 129.672  0.00  0.00    +0.000 C 
ATOM     40  CG2 ILE A   1     -10.708   5.657 129.619  0.00  0.00    +0.000 C 
BRANCH  39  42
ATOM     41  CD1 ILE A   1      -7.601   7.125 131.097  0.00  0.00    +0.000 C 
ATOM     42  CG1 ILE A   1      -8.684   6.053 131.077  0.00  0.00    +0.000 C 
ENDBRANCH  39  42
ENDBRANCH   1  39
BRANCH   5  43
ATOM     43  C   UNK A   6      -6.439   2.256 132.823  0.00  0.00    +0.000 C 
BRANCH  43  44
ATOM     44  C   UNK A   6      -5.479   3.180 132.113  0.00  0.00    +0.000 A 
ATOM     45  C   UNK A   6      -4.830   2.703 130.965  0.00  0.00    +0.000 A 
ATOM     46  C   UNK A   6      -3.762   3.391 130.417  0.00  0.00    +0.000 A 
ATOM     47  C   UNK A   6      -3.546   4.703 130.786  0.00  0.00    +0.000 A 
ATOM     48  C   UNK A   6      -2.675   5.469 130.020  0.00  0.00    +0.000 A 
ATOM     49  C   UNK A   6      -2.614   6.838 130.231  0.00  0.00    +0.000 A 
ATOM     50  C   UNK A   6      -3.357   7.418 131.260  0.00  0.00    +0.000 A 
ATOM     51  C   UNK A   6      -4.146   6.631 132.104  0.00  0.00    +0.000 A 
ATOM     52  C   UNK A   6      -4.274   5.262 131.862  0.00  0.00    +0.000 A 
ATOM     53  C   UNK A   6      -5.149   4.450 132.602  0.00  0.00    +0.000 A 
ENDBRANCH  43  44
ENDBRANCH   5  43
BRANCH  16  54
ATOM     54  CB  HIS A   4      -4.888  -2.404 127.827  0.00  0.00    +0.000 C 
BRANCH  54  55
ATOM     55  CG  HIS A   4      -4.268  -2.802 129.146  0.00  0.00    +0.000 A 
ATOM     56  CD2 HIS A   4      -3.489  -2.098 130.055  0.00  0.00    +0.000 A 
ATOM     57  NE2 HIS A   4      -3.387  -2.906 131.165  0.00  0.00    +0.000 N 
ATOM     58  CE1 HIS A   4      -4.092  -4.038 130.902  0.00  0.00    +0.000 A 
ATOM     59  ND1 HIS A   4      -4.405  -4.087 129.621  0.00  0.00    +0.000 NA
ATOM     60  HE2 HIS A   4      -2.873  -2.741 132.019  0.00  0.00    +0.000 HD
ENDBRANCH  54  55
ENDBRANCH  16  54
TORSDOF 6
ENDMDL
MODEL 5
REMARK VINA RESULT:     -11.1      2.618      7.152
REMARK  Name = CHEMBL2112249
REMARK  8 active torsions:
REMARK  status: ('A' for Active; 'I' for Inactive)
REMARK    1  A    between atoms: CD1_1  and  CG1_2
REMARK    2  A    between atoms: CG1_2  and  CB_3
REMARK    3  A    between atoms: CB_3  and  CG2_4
REMARK    4  A    between atoms: CB_3  and  CA_5
REMARK    5  A    between atoms: C_9  and  C_10
REMARK    6  A    between atoms: C_10  and  C_11
REMARK    7  A    between atoms: CA_31  and  CB_32
REMARK    8  A    between atoms: CB_32  and  CG_33
REMARK                            x       y       z     vdW  Elec       q    Type
REMARK                         _______ _______ _______ _____ _____    ______ ____
ROOT
ATOM      1  CA  ILE A   1      -7.620  -0.246 127.529  0.00  0.00    +0.000 C 
ATOM      2  N   ILE A   1      -7.897  -0.009 128.927  0.00  0.00    +0.000 N 
ATOM      3  C   UNK A   6      -7.317  -0.604 130.032  0.00  0.00    +0.000 C 
ATOM      4  O   UNK A   6      -6.507  -1.523 129.983  0.00  0.00    +0.000 OA
ATOM      5  C   UNK A   6      -7.597   0.142 131.372  0.00  0.00    +0.000 C 
ATOM      6  N   UNK A   6      -6.486  -0.215 132.416  0.00  0.00    +0.000 N 
ATOM      7  C   PRO A   5      -5.749   0.766 133.157  0.00  0.00    +0.000 C 
ATOM      8  O   PRO A   5      -6.491   1.323 134.016  0.00  0.00    +0.000 OA
ATOM      9  CA  PRO A   5      -4.314   1.741 132.140  0.00  0.00    +0.000 C 
ATOM     10  CB  PRO A   5      -5.256   2.960 131.073  0.00  0.00    +0.000 C 
ATOM     11  CG  PRO A   5      -5.658   1.785 131.422  0.00  0.00    +0.000 C 
ATOM     12  CD  PRO A   5      -4.975   2.845 132.938  0.00  0.00    +0.000 C 
ATOM     13  N   PRO A   5      -3.626   2.837 132.653  0.00  0.00    +0.000 N 
ATOM     14  C   HIS A   4      -3.005   3.949 131.908  0.00  0.00    +0.000 C 
ATOM     15  O   HIS A   4      -1.768   4.034 131.935  0.00  0.00    +0.000 OA
ATOM     16  CA  HIS A   4      -3.757   5.092 130.854  0.00  0.00    +0.000 C 
ATOM     17  N   HIS A   4      -2.808   5.564 129.662  0.00  0.00    +0.000 N 
ATOM     18  C   LYS A   3      -3.185   5.867 128.320  0.00  0.00    +0.000 C 
ATOM     19  O   LYS A   3      -3.706   6.992 128.195  0.00  0.00    +0.000 OA
ATOM     20  CA  LYS A   3      -3.450   4.606 126.984  0.00  0.00    +0.000 C 
ATOM     21  CB  LYS A   3      -3.477   3.080 127.221  0.00  0.00    +0.000 C 
ATOM     22  CG  LYS A   3      -2.575   3.041 128.329  0.00  0.00    +0.000 C 
ATOM     23  CD  LYS A   3      -3.928   3.091 128.949  0.00  0.00    +0.000 C 
ATOM     24  CE  LYS A   3      -5.197   4.432 128.261  0.00  0.00    +0.000 C 
ATOM     25  N   LYS A   3      -4.874   4.626 126.885  0.00  0.00    +0.000 N 
ATOM     26  C   LYS A   2      -5.484   3.726 126.005  0.00  0.00    +0.000 C 
ATOM     27  O   LYS A   2      -4.890   3.446 124.971  0.00  0.00    +0.000 OA
ATOM     28  CA  LYS A   2      -6.902   2.919 126.784  0.00  0.00    +0.000 C 
ATOM     29  CB  LYS A   2      -8.231   3.578 126.540  0.00  0.00    +0.000 C 
ATOM     30  CG  LYS A   2      -7.804   4.851 125.956  0.00  0.00    +0.000 C 
ATOM     31  CD  LYS A   2      -7.884   4.089 124.611  0.00  0.00    +0.000 C 
ATOM     32  CE  LYS A   2      -7.228   2.291 124.703  0.00  0.00    +0.000 C 
ATOM     33  N   LYS A   2      -7.131   1.720 126.103  0.00  0.00    +0.000 N 
ATOM     34  C   ILE A   1      -8.149   0.955 126.749  0.00  0.00    +0.000 C 
ATOM     35  O   ILE A   1      -9.334   1.221 126.810  0.00  0.00    +0.000 OA
ATOM     36  H   ILE A   1      -8.655   0.649 129.044  0.00  0.00    +0.000 HD
ATOM     37  H   UNK A   6      -5.860  -0.908 132.043  0.00  0.00    +0.000 HD
ATOM     38  H   HIS A   4      -1.904   5.120 129.735  0.00  0.00    +0.000 HD
ENDROOT
BRANCH   1  39
ATOM     39  CB  ILE A   1      -8.306  -1.489 126.932  0.00  0.00    +0.000 C 
ATOM     40  CG2 ILE A   1      -8.230  -1.467 125.393  0.00  0.00    +0.000 C 
BRANCH  39  42
ATOM     41  CD1 ILE A   1      -8.642  -3.711 128.133  0.00  0.00    +0.000 C 
ATOM     42  CG1 ILE A   1      -7.650  -2.748 127.492  0.00  0.00    +0.000 C 
ENDBRANCH  39  42
ENDBRANCH   1  39
BRANCH   5  43
ATOM     43  C   UNK A   6      -8.951   0.422 131.957  0.00  0.00    +0.000 C 
BRANCH  43  44
ATOM     44  C   UNK A   6      -9.319   1.887 131.991  0.00  0.00    +0.000 A 
ATOM     45  C   UNK A   6      -9.138   2.585 133.194  0.00  0.00    +0.000 A 
ATOM     46  C   UNK A   6      -9.682   3.845 133.370  0.00  0.00    +0.000 A 
ATOM     47  C   UNK A   6     -10.110   4.554 132.267  0.00  0.00    +0.000 A 
ATOM     48  C   UNK A   6     -10.368   5.912 132.414  0.00  0.00    +0.000 A 
ATOM     49  C   UNK A   6     -10.579   6.687 131.284  0.00  0.00    +0.000 A 
ATOM     50  C   UNK A   6     -10.616   6.086 130.025  0.00  0.00    +0.000 A 
ATOM     51  C   UNK A   6     -10.470   4.704 129.888  0.00  0.00    +0.000 A 
ATOM     52  C   UNK A   6     -10.186   3.918 131.006  0.00  0.00    +0.000 A 
ATOM     53  C   UNK A   6      -9.909   2.545 130.905  0.00  0.00    +0.000 A 
ENDBRANCH  43  44
ENDBRANCH   5  43
BRANCH  16  54
ATOM     54  CB  HIS A   4      -4.874   6.074 131.245  0.00  0.00    +0.000 C 
BRANCH  54  55
ATOM     55  CG  HIS A   4      -5.431   6.122 132.649  0.00  0.00    +0.000 A 
ATOM     56  CD2 HIS A   4      -6.706   5.894 133.149  0.00  0.00    +0.000 A 
ATOM     57  NE2 HIS A   4      -6.573   5.880 134.519  0.00  0.00    +0.000 N 
ATOM     58  CE1 HIS A   4      -5.260   6.089 134.796  0.00  0.00    +0.000 A 
ATOM     59  ND1 HIS A   4      -4.625   6.479 133.706  0.00  0.00    +0.000 NA
ATOM     60  HE2 HIS A   4      -7.292   5.769 135.221  0.00  0.00    +0.000 HD
ENDBRANCH  54  55
ENDBRANCH  16  54
TORSDOF 6
ENDMDL
MODEL 6
REMARK VINA RESULT:     -11.1      2.371      6.385
REMARK  Name = CHEMBL2112249
REMARK  8 active torsions:
REMARK  status: ('A' for Active; 'I' for Inactive)
REMARK    1  A    between atoms: CD1_1  and  CG1_2
REMARK    2  A    between atoms: CG1_2  and  CB_3
REMARK    3  A    between atoms: CB_3  and  CG2_4
REMARK    4  A    between atoms: CB_3  and  CA_5
REMARK    5  A    between atoms: C_9  and  C_10
REMARK    6  A    between atoms: C_10  and  C_11
REMARK    7  A    between atoms: CA_31  and  CB_32
REMARK    8  A    between atoms: CB_32  and  CG_33
REMARK                            x       y       z     vdW  Elec       q    Type
REMARK                         _______ _______ _______ _____ _____    ______ ____
ROOT
ATOM      1  CA  ILE A   1      -5.966   3.656 128.657  0.00  0.00    +0.000 C 
ATOM      2  N   ILE A   1      -6.398   2.430 128.026  0.00  0.00    +0.000 N 
ATOM      3  C   UNK A   6      -5.654   1.542 127.272  0.00  0.00    +0.000 C 
ATOM      4  O   UNK A   6      -4.487   1.719 126.939  0.00  0.00    +0.000 OA
ATOM      5  C   UNK A   6      -6.344   0.162 127.055  0.00  0.00    +0.000 C 
ATOM      6  N   UNK A   6      -5.264  -0.924 126.734  0.00  0.00    +0.000 N 
ATOM      7  C   PRO A   5      -5.169  -2.178 127.423  0.00  0.00    +0.000 C 
ATOM      8  O   PRO A   5      -6.136  -2.931 127.107  0.00  0.00    +0.000 OA
ATOM      9  CA  PRO A   5      -4.381  -2.110 129.272  0.00  0.00    +0.000 C 
ATOM     10  CB  PRO A   5      -5.756  -1.402 130.330  0.00  0.00    +0.000 C 
ATOM     11  CG  PRO A   5      -5.521  -1.113 129.095  0.00  0.00    +0.000 C 
ATOM     12  CD  PRO A   5      -5.554  -3.054 129.436  0.00  0.00    +0.000 C 
ATOM     13  N   PRO A   5      -4.376  -3.199 130.139  0.00  0.00    +0.000 N 
ATOM     14  C   HIS A   4      -4.371  -3.184 131.614  0.00  0.00    +0.000 C 
ATOM     15  O   HIS A   4      -3.354  -3.604 132.186  0.00  0.00    +0.000 OA
ATOM     16  CA  HIS A   4      -5.545  -2.512 132.689  0.00  0.00    +0.000 C 
ATOM     17  N   HIS A   4      -4.909  -1.946 134.038  0.00  0.00    +0.000 N 
ATOM     18  C   LYS A   3      -5.317  -0.795 134.775  0.00  0.00    +0.000 C 
ATOM     19  O   LYS A   3      -6.332  -0.989 135.471  0.00  0.00    +0.000 OA
ATOM     20  CA  LYS A   3      -4.832   0.949 134.368  0.00  0.00    +0.000 C 
ATOM     21  CB  LYS A   3      -4.089   1.368 133.079  0.00  0.00    +0.000 C 
ATOM     22  CG  LYS A   3      -3.352   0.160 132.880  0.00  0.00    +0.000 C 
ATOM     23  CD  LYS A   3      -4.572  -0.002 132.042  0.00  0.00    +0.000 C 
ATOM     24  CE  LYS A   3      -6.309   0.424 132.867  0.00  0.00    +0.000 C 
ATOM     25  N   LYS A   3      -6.060   1.443 133.833  0.00  0.00    +0.000 N 
ATOM     26  C   LYS A   2      -6.079   2.748 133.328  0.00  0.00    +0.000 C 
ATOM     27  O   LYS A   2      -5.372   3.583 133.879  0.00  0.00    +0.000 OA
ATOM     28  CA  LYS A   2      -6.925   2.814 131.733  0.00  0.00    +0.000 C 
ATOM     29  CB  LYS A   2      -8.389   3.148 131.794  0.00  0.00    +0.000 C 
ATOM     30  CG  LYS A   2      -8.642   3.015 133.230  0.00  0.00    +0.000 C 
ATOM     31  CD  LYS A   2      -8.252   4.512 133.285  0.00  0.00    +0.000 C 
ATOM     32  CE  LYS A   2      -6.776   4.966 132.150  0.00  0.00    +0.000 C 
ATOM     33  N   LYS A   2      -6.474   3.955 131.063  0.00  0.00    +0.000 N 
ATOM     34  C   ILE A   1      -6.992   4.002 129.733  0.00  0.00    +0.000 C 
ATOM     35  O   ILE A   1      -8.149   4.188 129.406  0.00  0.00    +0.000 OA
ATOM     36  H   ILE A   1      -7.391   2.284 128.150  0.00  0.00    +0.000 HD
ATOM     37  H   UNK A   6      -4.353  -0.505 126.657  0.00  0.00    +0.000 HD
ATOM     38  H   HIS A   4      -3.910  -2.095 134.045  0.00  0.00    +0.000 HD
ENDROOT
BRANCH   1  39
ATOM     39  CB  ILE A   1      -5.890   4.876 127.720  0.00  0.00    +0.000 C 
ATOM     40  CG2 ILE A   1      -4.423   5.234 127.410  0.00  0.00    +0.000 C 
BRANCH  39  42
ATOM     41  CD1 ILE A   1      -5.829   4.778 125.175  0.00  0.00    +0.000 C 
ATOM     42  CG1 ILE A   1      -6.660   4.578 126.437  0.00  0.00    +0.000 C 
ENDBRANCH  39  42
ENDBRANCH   1  39
BRANCH   5  43
ATOM     43  C   UNK A   6      -7.681  -0.063 126.408  0.00  0.00    +0.000 C 
BRANCH  43  44
ATOM     44  C   UNK A   6      -7.931   0.796 125.191  0.00  0.00    +0.000 A 
ATOM     45  C   UNK A   6      -9.236   1.261 124.968  0.00  0.00    +0.000 A 
ATOM     46  C   UNK A   6      -9.587   1.831 123.758  0.00  0.00    +0.000 A 
ATOM     47  C   UNK A   6      -8.593   2.250 122.898  0.00  0.00    +0.000 A 
ATOM     48  C   UNK A   6      -8.943   3.083 121.841  0.00  0.00    +0.000 A 
ATOM     49  C   UNK A   6      -7.943   3.695 121.102  0.00  0.00    +0.000 A 
ATOM     50  C   UNK A   6      -6.604   3.405 121.369  0.00  0.00    +0.000 A 
ATOM     51  C   UNK A   6      -6.255   2.480 122.356  0.00  0.00    +0.000 A 
ATOM     52  C   UNK A   6      -7.246   1.909 123.156  0.00  0.00    +0.000 A 
ATOM     53  C   UNK A   6      -6.941   1.070 124.241  0.00  0.00    +0.000 A 
ENDBRANCH  43  44
ENDBRANCH   5  43
BRANCH  16  54
ATOM     54  CB  HIS A   4      -7.026  -2.921 132.770  0.00  0.00    +0.000 C 
BRANCH  54  55
ATOM     55  CG  HIS A   4      -7.588  -3.624 133.983  0.00  0.00    +0.000 A 
ATOM     56  CD2 HIS A   4      -8.794  -3.489 134.657  0.00  0.00    +0.000 A 
ATOM     57  NE2 HIS A   4      -8.838  -4.529 135.558  0.00  0.00    +0.000 N 
ATOM     58  CE1 HIS A   4      -7.693  -5.244 135.400  0.00  0.00    +0.000 A 
ATOM     59  ND1 HIS A   4      -6.842  -4.572 134.647  0.00  0.00    +0.000 NA
ATOM     60  HE2 HIS A   4      -9.550  -4.741 136.242  0.00  0.00    +0.000 HD
ENDBRANCH  54  55
ENDBRANCH  16  54
TORSDOF 6
ENDMDL
MODEL 7
REMARK VINA RESULT:     -10.9      2.910      6.774
REMARK  Name = CHEMBL2112249
REMARK  8 active torsions:
REMARK  status: ('A' for Active; 'I' for Inactive)
REMARK    1  A    between atoms: CD1_1  and  CG1_2
REMARK    2  A    between atoms: CG1_2  and  CB_3
REMARK    3  A    between atoms: CB_3  and  CG2_4
REMARK    4  A    between atoms: CB_3  and  CA_5
REMARK    5  A    between atoms: C_9  and  C_10
REMARK    6  A    between atoms: C_10  and  C_11
REMARK    7  A    between atoms: CA_31  and  CB_32
REMARK    8  A    between atoms: CB_32  and  CG_33
REMARK                            x       y       z     vdW  Elec       q    Type
REMARK                         _______ _______ _______ _____ _____    ______ ____
ROOT
ATOM      1  CA  ILE A   1      -6.978   2.254 128.602  0.00  0.00    +0.000 C 
ATOM      2  N   ILE A   1      -6.871   0.815 128.689  0.00  0.00    +0.000 N 
ATOM      3  C   UNK A   6      -5.852  -0.001 128.234  0.00  0.00    +0.000 C 
ATOM      4  O   UNK A   6      -4.888   0.387 127.584  0.00  0.00    +0.000 OA
ATOM      5  C   UNK A   6      -5.896  -1.449 128.810  0.00  0.00    +0.000 C 
ATOM      6  N   UNK A   6      -4.470  -2.090 128.735  0.00  0.00    +0.000 N 
ATOM      7  C   PRO A   5      -3.820  -2.714 129.851  0.00  0.00    +0.000 C 
ATOM      8  O   PRO A   5      -4.386  -3.808 130.136  0.00  0.00    +0.000 OA
ATOM      9  CA  PRO A   5      -3.060  -1.469 131.235  0.00  0.00    +0.000 C 
ATOM     10  CB  PRO A   5      -4.560  -0.869 132.185  0.00  0.00    +0.000 C 
ATOM     11  CG  PRO A   5      -4.522  -1.165 130.930  0.00  0.00    +0.000 C 
ATOM     12  CD  PRO A   5      -3.709  -2.552 132.071  0.00  0.00    +0.000 C 
ATOM     13  N   PRO A   5      -2.554  -1.905 132.456  0.00  0.00    +0.000 N 
ATOM     14  C   HIS A   4      -2.494  -1.163 133.730  0.00  0.00    +0.000 C 
ATOM     15  O   HIS A   4      -1.371  -0.857 134.160  0.00  0.00    +0.000 OA
ATOM     16  CA  HIS A   4      -3.796  -0.512 134.661  0.00  0.00    +0.000 C 
ATOM     17  N   HIS A   4      -3.405   0.827 135.433  0.00  0.00    +0.000 N 
ATOM     18  C   LYS A   3      -4.234   1.962 135.677  0.00  0.00    +0.000 C 
ATOM     19  O   LYS A   3      -5.039   1.794 136.614  0.00  0.00    +0.000 OA
ATOM     20  CA  LYS A   3      -4.557   3.319 134.453  0.00  0.00    +0.000 C 
ATOM     21  CB  LYS A   3      -4.119   3.278 132.973  0.00  0.00    +0.000 C 
ATOM     22  CG  LYS A   3      -2.946   2.479 133.140  0.00  0.00    +0.000 C 
ATOM     23  CD  LYS A   3      -4.015   1.506 132.779  0.00  0.00    +0.000 C 
ATOM     24  CE  LYS A   3      -5.731   1.640 133.737  0.00  0.00    +0.000 C 
ATOM     25  N   LYS A   3      -5.900   3.016 134.075  0.00  0.00    +0.000 N 
ATOM     26  C   LYS A   2      -6.495   3.798 133.079  0.00  0.00    +0.000 C 
ATOM     27  O   LYS A   2      -6.189   4.982 133.025  0.00  0.00    +0.000 OA
ATOM     28  CA  LYS A   2      -7.355   2.764 131.872  0.00  0.00    +0.000 C 
ATOM     29  CB  LYS A   2      -8.818   2.543 132.138  0.00  0.00    +0.000 C 
ATOM     30  CG  LYS A   2      -8.929   3.058 133.505  0.00  0.00    +0.000 C 
ATOM     31  CD  LYS A   2      -9.213   4.413 132.812  0.00  0.00    +0.000 C 
ATOM     32  CE  LYS A   2      -8.121   4.733 131.270  0.00  0.00    +0.000 C 
ATOM     33  N   LYS A   2      -7.463   3.500 130.688  0.00  0.00    +0.000 N 
ATOM     34  C   ILE A   1      -8.007   2.698 129.639  0.00  0.00    +0.000 C 
ATOM     35  O   ILE A   1      -9.145   2.277 129.556  0.00  0.00    +0.000 OA
ATOM     36  H   ILE A   1      -7.701   0.410 129.101  0.00  0.00    +0.000 HD
ATOM     37  H   UNK A   6      -3.829  -1.473 128.265  0.00  0.00    +0.000 HD
ATOM     38  H   HIS A   4      -2.439   1.064 135.260  0.00  0.00    +0.000 HD
ENDROOT
BRANCH   1  39
ATOM     39  CB  ILE A   1      -7.469   2.788 127.244  0.00  0.00    +0.000 C 
ATOM     40  CG2 ILE A   1      -6.299   3.389 126.440  0.00  0.00    +0.000 C 
BRANCH  39  42
ATOM     41  CD1 ILE A   1      -7.472   1.369 125.129  0.00  0.00    +0.000 C 
ATOM     42  CG1 ILE A   1      -8.139   1.658 126.468  0.00  0.00    +0.000 C 
ENDBRANCH  39  42
ENDBRANCH   1  39
BRANCH   5  43
ATOM     43  C   UNK A   6      -7.035  -2.418 128.670  0.00  0.00    +0.000 C 
BRANCH  43  44
ATOM     44  C   UNK A   6      -7.584  -2.530 127.268  0.00  0.00    +0.000 A 
ATOM     45  C   UNK A   6      -8.927  -2.903 127.112  0.00  0.00    +0.000 A 
ATOM     46  C   UNK A   6      -9.422  -3.268 125.873  0.00  0.00    +0.000 A 
ATOM     47  C   UNK A   6      -8.702  -2.948 124.740  0.00  0.00    +0.000 A 
ATOM     48  C   UNK A   6      -9.337  -3.043 123.507  0.00  0.00    +0.000 A 
ATOM     49  C   UNK A   6      -8.715  -2.518 122.385  0.00  0.00    +0.000 A 
ATOM     50  C   UNK A   6      -7.431  -1.980 122.487  0.00  0.00    +0.000 A 
ATOM     51  C   UNK A   6      -6.748  -1.988 123.705  0.00  0.00    +0.000 A 
ATOM     52  C   UNK A   6      -7.385  -2.448 124.859  0.00  0.00    +0.000 A 
ATOM     53  C   UNK A   6      -6.789  -2.363 126.128  0.00  0.00    +0.000 A 
ENDBRANCH  43  44
ENDBRANCH   5  43
BRANCH  16  54
ATOM     54  CB  HIS A   4      -4.956  -1.320 135.269  0.00  0.00    +0.000 C 
BRANCH  54  55
ATOM     55  CG  HIS A   4      -5.057  -1.561 136.756  0.00  0.00    +0.000 A 
ATOM     56  CD2 HIS A   4      -6.143  -1.825 137.581  0.00  0.00    +0.000 A 
ATOM     57  NE2 HIS A   4      -5.611  -2.157 138.806  0.00  0.00    +0.000 N 
ATOM     58  CE1 HIS A   4      -4.259  -2.093 138.686  0.00  0.00    +0.000 A 
ATOM     59  ND1 HIS A   4      -3.935  -1.502 137.551  0.00  0.00    +0.000 NA
ATOM     60  HE2 HIS A   4      -6.096  -2.384 139.663  0.00  0.00    +0.000 HD
ENDBRANCH  54  55
ENDBRANCH  16  54
TORSDOF 6
ENDMDL
MODEL 8
REMARK VINA RESULT:     -10.4      2.249      6.352
REMARK  Name = CHEMBL2112249
REMARK  8 active torsions:
REMARK  status: ('A' for Active; 'I' for Inactive)
REMARK    1  A    between atoms: CD1_1  and  CG1_2
REMARK    2  A    between atoms: CG1_2  and  CB_3
REMARK    3  A    between atoms: CB_3  and  CG2_4
REMARK    4  A    between atoms: CB_3  and  CA_5
REMARK    5  A    between atoms: C_9  and  C_10
REMARK    6  A    between atoms: C_10  and  C_11
REMARK    7  A    between atoms: CA_31  and  CB_32
REMARK    8  A    between atoms: CB_32  and  CG_33
REMARK                            x       y       z     vdW  Elec       q    Type
REMARK                         _______ _______ _______ _____ _____    ______ ____
ROOT
ATOM      1  CA  ILE A   1      -3.371   4.671 129.920  0.00  0.00    +0.000 C 
ATOM      2  N   ILE A   1      -4.266   4.243 128.869  0.00  0.00    +0.000 N 
ATOM      3  C   UNK A   6      -3.975   3.500 127.740  0.00  0.00    +0.000 C 
ATOM      4  O   UNK A   6      -2.847   3.153 127.407  0.00  0.00    +0.000 OA
ATOM      5  C   UNK A   6      -5.231   2.924 127.020  0.00  0.00    +0.000 C 
ATOM      6  N   UNK A   6      -4.825   1.678 126.165  0.00  0.00    +0.000 N 
ATOM      7  C   PRO A   5      -5.494   0.412 126.238  0.00  0.00    +0.000 C 
ATOM      8  O   PRO A   5      -6.647   0.490 125.723  0.00  0.00    +0.000 OA
ATOM      9  CA  PRO A   5      -5.082  -0.710 127.854  0.00  0.00    +0.000 C 
ATOM     10  CB  PRO A   5      -6.045   0.108 129.238  0.00  0.00    +0.000 C 
ATOM     11  CG  PRO A   5      -5.506   0.705 128.230  0.00  0.00    +0.000 C 
ATOM     12  CD  PRO A   5      -6.581  -0.863 127.708  0.00  0.00    +0.000 C 
ATOM     13  N   PRO A   5      -5.769  -1.878 128.167  0.00  0.00    +0.000 N 
ATOM     14  C   HIS A   4      -5.987  -2.475 129.499  0.00  0.00    +0.000 C 
ATOM     15  O   HIS A   4      -5.432  -3.558 129.738  0.00  0.00    +0.000 OA
ATOM     16  CA  HIS A   4      -6.802  -1.796 130.863  0.00  0.00    +0.000 C 
ATOM     17  N   HIS A   4      -6.184  -2.263 132.258  0.00  0.00    +0.000 N 
ATOM     18  C   LYS A   3      -6.055  -1.493 133.452  0.00  0.00    +0.000 C 
ATOM     19  O   LYS A   3      -7.119  -1.388 134.090  0.00  0.00    +0.000 OA
ATOM     20  CA  LYS A   3      -4.688  -0.283 133.787  0.00  0.00    +0.000 C 
ATOM     21  CB  LYS A   3      -3.646   0.165 132.738  0.00  0.00    +0.000 C 
ATOM     22  CG  LYS A   3      -3.611  -1.041 131.973  0.00  0.00    +0.000 C 
ATOM     23  CD  LYS A   3      -4.594  -0.175 131.265  0.00  0.00    +0.000 C 
ATOM     24  CE  LYS A   3      -5.972   0.719 132.352  0.00  0.00    +0.000 C 
ATOM     25  N   LYS A   3      -5.389   0.951 133.633  0.00  0.00    +0.000 N 
ATOM     26  C   LYS A   2      -4.658   2.139 133.741  0.00  0.00    +0.000 C 
ATOM     27  O   LYS A   2      -3.719   2.163 134.526  0.00  0.00    +0.000 OA
ATOM     28  CA  LYS A   2      -5.091   3.288 132.414  0.00  0.00    +0.000 C 
ATOM     29  CB  LYS A   2      -6.166   4.283 132.750  0.00  0.00    +0.000 C 
ATOM     30  CG  LYS A   2      -6.671   3.729 134.008  0.00  0.00    +0.000 C 
ATOM     31  CD  LYS A   2      -5.584   4.615 134.661  0.00  0.00    +0.000 C 
ATOM     32  CE  LYS A   2      -3.928   4.641 133.696  0.00  0.00    +0.000 C 
ATOM     33  N   LYS A   2      -4.022   4.175 132.258  0.00  0.00    +0.000 N 
ATOM     34  C   ILE A   1      -4.228   5.027 131.132  0.00  0.00    +0.000 C 
ATOM     35  O   ILE A   1      -5.058   5.910 131.026  0.00  0.00    +0.000 OA
ATOM     36  H   ILE A   1      -5.198   4.607 129.011  0.00  0.00    +0.000 HD
ATOM     37  H   UNK A   6      -3.828   1.542 126.189  0.00  0.00    +0.000 HD
ATOM     38  H   HIS A   4      -5.419  -2.903 132.107  0.00  0.00    +0.000 HD
ENDROOT
BRANCH   1  39
ATOM     39  CB  ILE A   1      -2.537   5.923 129.592  0.00  0.00    +0.000 C 
ATOM     40  CG2 ILE A   1      -3.276   6.821 128.581  0.00  0.00    +0.000 C 
BRANCH  39  42
ATOM     41  CD1 ILE A   1      -0.935   6.258 131.545  0.00  0.00    +0.000 C 
ATOM     42  CG1 ILE A   1      -2.239   6.684 130.880  0.00  0.00    +0.000 C 
ENDBRANCH  39  42
ENDBRANCH   1  39
BRANCH   5  43
ATOM     43  C   UNK A   6      -6.375   3.726 126.467  0.00  0.00    +0.000 C 
BRANCH  43  44
ATOM     44  C   UNK A   6      -6.421   3.779 124.959  0.00  0.00    +0.000 A 
ATOM     45  C   UNK A   6      -7.587   3.333 124.318  0.00  0.00    +0.000 A 
ATOM     46  C   UNK A   6      -7.605   3.117 122.952  0.00  0.00    +0.000 A 
ATOM     47  C   UNK A   6      -6.601   3.652 122.172  0.00  0.00    +0.000 A 
ATOM     48  C   UNK A   6      -6.785   3.691 120.794  0.00  0.00    +0.000 A 
ATOM     49  C   UNK A   6      -5.900   4.419 120.015  0.00  0.00    +0.000 A 
ATOM     50  C   UNK A   6      -4.793   5.031 120.604  0.00  0.00    +0.000 A 
ATOM     51  C   UNK A   6      -4.546   4.897 121.972  0.00  0.00    +0.000 A 
ATOM     52  C   UNK A   6      -5.463   4.227 122.784  0.00  0.00    +0.000 A 
ATOM     53  C   UNK A   6      -5.326   4.170 124.180  0.00  0.00    +0.000 A 
ENDBRANCH  43  44
ENDBRANCH   5  43
BRANCH  16  54
ATOM     54  CB  HIS A   4      -8.275  -1.354 130.900  0.00  0.00    +0.000 C 
BRANCH  54  55
ATOM     55  CG  HIS A   4      -8.663   0.086 131.139  0.00  0.00    +0.000 A 
ATOM     56  CD2 HIS A   4      -8.503   1.229 130.367  0.00  0.00    +0.000 A 
ATOM     57  NE2 HIS A   4      -9.231   2.212 130.999  0.00  0.00    +0.000 N 
ATOM     58  CE1 HIS A   4      -9.798   1.647 132.097  0.00  0.00    +0.000 A 
ATOM     59  ND1 HIS A   4      -9.265   0.459 132.319  0.00  0.00    +0.000 NA
ATOM     60  HE2 HIS A   4      -9.329   3.185 130.746  0.00  0.00    +0.000 HD
ENDBRANCH  54  55
ENDBRANCH  16  54
TORSDOF 6
ENDMDL
MODEL 9
REMARK VINA RESULT:     -10.4      4.263      8.222
REMARK  Name = CHEMBL2112249
REMARK  8 active torsions:
REMARK  status: ('A' for Active; 'I' for Inactive)
REMARK    1  A    between atoms: CD1_1  and  CG1_2
REMARK    2  A    between atoms: CG1_2  and  CB_3
REMARK    3  A    between atoms: CB_3  and  CG2_4
REMARK    4  A    between atoms: CB_3  and  CA_5
REMARK    5  A    between atoms: C_9  and  C_10
REMARK    6  A    between atoms: C_10  and  C_11
REMARK    7  A    between atoms: CA_31  and  CB_32
REMARK    8  A    between atoms: CB_32  and  CG_33
REMARK                            x       y       z     vdW  Elec       q    Type
REMARK                         _______ _______ _______ _____ _____    ______ ____
ROOT
ATOM      1  CA  ILE A   1      -7.592   3.855 131.829  0.00  0.00    +0.000 C 
ATOM      2  N   ILE A   1      -6.575   4.222 132.788  0.00  0.00    +0.000 N 
ATOM      3  C   UNK A   6      -6.688   4.333 134.161  0.00  0.00    +0.000 C 
ATOM      4  O   UNK A   6      -7.737   4.215 134.786  0.00  0.00    +0.000 OA
ATOM      5  C   UNK A   6      -5.320   4.396 134.906  0.00  0.00    +0.000 C 
ATOM      6  N   UNK A   6      -5.505   3.938 136.391  0.00  0.00    +0.000 N 
ATOM      7  C   PRO A   5      -4.693   2.939 137.021  0.00  0.00    +0.000 C 
ATOM      8  O   PRO A   5      -3.524   3.378 137.218  0.00  0.00    +0.000 OA
ATOM      9  CA  PRO A   5      -5.086   1.034 136.509  0.00  0.00    +0.000 C 
ATOM     10  CB  PRO A   5      -4.336   0.855 134.801  0.00  0.00    +0.000 C 
ATOM     11  CG  PRO A   5      -4.867   1.924 135.291  0.00  0.00    +0.000 C 
ATOM     12  CD  PRO A   5      -3.572   1.080 136.515  0.00  0.00    +0.000 C 
ATOM     13  N   PRO A   5      -4.285  -0.038 136.891  0.00  0.00    +0.000 N 
ATOM     14  C   HIS A   4      -4.097  -1.324 136.192  0.00  0.00    +0.000 C 
ATOM     15  O   HIS A   4      -4.531  -2.344 136.747  0.00  0.00    +0.000 OA
ATOM     16  CA  HIS A   4      -3.476  -1.607 134.605  0.00  0.00    +0.000 C 
ATOM     17  N   HIS A   4      -4.134  -2.872 133.891  0.00  0.00    +0.000 N 
ATOM     18  C   LYS A   3      -4.446  -3.023 132.508  0.00  0.00    +0.000 C 
ATOM     19  O   LYS A   3      -3.453  -3.288 131.803  0.00  0.00    +0.000 OA
ATOM     20  CA  LYS A   3      -5.972  -2.357 131.688  0.00  0.00    +0.000 C 
ATOM     21  CB  LYS A   3      -6.980  -1.404 132.368  0.00  0.00    +0.000 C 
ATOM     22  CG  LYS A   3      -6.809  -1.868 133.709  0.00  0.00    +0.000 C 
ATOM     23  CD  LYS A   3      -5.889  -0.702 133.595  0.00  0.00    +0.000 C 
ATOM     24  CE  LYS A   3      -4.717  -0.616 132.015  0.00  0.00    +0.000 C 
ATOM     25  N   LYS A   3      -5.418  -1.264 130.955  0.00  0.00    +0.000 N 
ATOM     26  C   LYS A   2      -6.295  -0.441 130.240  0.00  0.00    +0.000 C 
ATOM     27  O   LYS A   2      -7.286  -0.959 129.742  0.00  0.00    +0.000 OA
ATOM     28  CA  LYS A   2      -5.907   1.304 130.507  0.00  0.00    +0.000 C 
ATOM     29  CB  LYS A   2      -4.990   1.923 129.490  0.00  0.00    +0.000 C 
ATOM     30  CG  LYS A   2      -4.517   0.730 128.784  0.00  0.00    +0.000 C 
ATOM     31  CD  LYS A   2      -5.751   0.960 127.878  0.00  0.00    +0.000 C 
ATOM     32  CE  LYS A   2      -7.320   1.501 128.836  0.00  0.00    +0.000 C 
ATOM     33  N   LYS A   2      -7.063   2.040 130.228  0.00  0.00    +0.000 N 
ATOM     34  C   ILE A   1      -6.878   3.418 130.552  0.00  0.00    +0.000 C 
ATOM     35  O   ILE A   1      -6.157   4.213 129.980  0.00  0.00    +0.000 OA
ATOM     36  H   ILE A   1      -5.708   4.463 132.328  0.00  0.00    +0.000 HD
ATOM     37  H   UNK A   6      -6.476   3.768 136.590  0.00  0.00    +0.000 HD
ATOM     38  H   HIS A   4      -4.802  -3.314 134.505  0.00  0.00    +0.000 HD
ENDROOT
BRANCH   1  39
ATOM     39  CB  ILE A   1      -8.546   4.994 131.427  0.00  0.00    +0.000 C 
ATOM     40  CG2 ILE A   1      -9.966   4.731 131.968  0.00  0.00    +0.000 C 
BRANCH  39  42
ATOM     41  CD1 ILE A   1      -7.460   7.225 130.849  0.00  0.00    +0.000 C 
ATOM     42  CG1 ILE A   1      -8.002   6.320 131.949  0.00  0.00    +0.000 C 
ENDBRANCH  39  42
ENDBRANCH   1  39
BRANCH   5  43
ATOM     43  C   UNK A   6      -4.245   5.423 134.688  0.00  0.00    +0.000 C 
BRANCH  43  44
ATOM     44  C   UNK A   6      -3.833   5.590 133.245  0.00  0.00    +0.000 A 
ATOM     45  C   UNK A   6      -3.253   4.492 132.592  0.00  0.00    +0.000 A 
ATOM     46  C   UNK A   6      -2.629   4.646 131.367  0.00  0.00    +0.000 A 
ATOM     47  C   UNK A   6      -2.862   5.789 130.631  0.00  0.00    +0.000 A 
ATOM     48  C   UNK A   6      -2.482   5.802 129.294  0.00  0.00    +0.000 A 
ATOM     49  C   UNK A   6      -2.904   6.842 128.481  0.00  0.00    +0.000 A 
ATOM     50  C   UNK A   6      -3.628   7.903 129.027  0.00  0.00    +0.000 A 
ATOM     51  C   UNK A   6      -3.912   7.946 130.394  0.00  0.00    +0.000 A 
ATOM     52  C   UNK A   6      -3.557   6.874 131.214  0.00  0.00    +0.000 A 
ATOM     53  C   UNK A   6      -3.927   6.812 132.567  0.00  0.00    +0.000 A 
ENDBRANCH  43  44
ENDBRANCH   5  43
BRANCH  16  54
ATOM     54  CB  HIS A   4      -2.075  -1.213 134.106  0.00  0.00    +0.000 C 
BRANCH  54  55
ATOM     55  CG  HIS A   4      -0.868  -2.084 134.364  0.00  0.00    +0.000 A 
ATOM     56  CD2 HIS A   4      -0.741  -3.353 134.913  0.00  0.00    +0.000 A 
ATOM     57  NE2 HIS A   4       0.570  -3.719 134.709  0.00  0.00    +0.000 N 
ATOM     58  CE1 HIS A   4       1.175  -2.692 134.057  0.00  0.00    +0.000 A 
ATOM     59  ND1 HIS A   4       0.397  -1.626 134.072  0.00  0.00    +0.000 NA
ATOM     60  HE2 HIS A   4       1.040  -4.566 134.998  0.00  0.00    +0.000 HD
ENDBRANCH  54  55
ENDBRANCH  16  54
TORSDOF 6
ENDMDL
