MODEL 1
REMARK VINA RESULT:      -9.8      0.000      0.000
REMARK  Name = CHEMBL4467042
REMARK  28 active torsions:
REMARK  status: ('A' for Active; 'I' for Inactive)
REMARK    1  A    between atoms: C_1  and  C_2
REMARK    2  A    between atoms: C_2  and  C_3
REMARK    3  A    between atoms: C_3  and  C_4
REMARK    4  A    between atoms: C_3  and  C_5
REMARK    5  A    between atoms: C_9  and  C_10
REMARK    6  A    between atoms: C_10  and  C_11
REMARK    7  A    between atoms: C_14  and  O_15
REMARK    8  A    between atoms: C_21  and  N_22
REMARK    9  A    between atoms: C_27  and  C_28
REMARK   10  A    between atoms: N_30  and  C_31
REMARK   11  A    between atoms: N_30  and  C_35
REMARK   12  A    between atoms: C_31  and  C_32
REMARK   13  A    between atoms: C_32  and  C_33
REMARK   14  A    between atoms: C_33  and  O_34
REMARK   15  A    between atoms: C_35  and  C_36
REMARK   16  A    between atoms: N_38  and  C_39
REMARK   17  A    between atoms: C_39  and  C_40
REMARK   18  A    between atoms: C_39  and  C_44
REMARK   19  A    between atoms: C_40  and  C_41
REMARK   20  A    between atoms: C_41  and  C_42
REMARK   21  A    between atoms: C_41  and  C_43
REMARK   22  A    between atoms: N_46  and  C_47
REMARK   23  A    between atoms: C_47  and  C_48
REMARK   24  A    between atoms: C_54  and  C_55
REMARK   25  A    between atoms: C_55  and  C_56
REMARK   26  A    between atoms: C_62  and  C_63
REMARK   27  A    between atoms: C_63  and  C_64
REMARK   28  A    between atoms: C_64  and  C_65
REMARK                            x       y       z     vdW  Elec       q    Type
REMARK                         _______ _______ _______ _____ _____    ______ ____
ROOT
ATOM      1  C   UNL     1      -4.944   4.108 133.486  0.00  0.00    +0.000 C 
ATOM      2  N   UNL     1      -4.738   2.139 134.229  0.00  0.00    +0.000 N 
ATOM      3  C   UNL     1      -4.669   0.356 135.053  0.00  0.00    +0.000 C 
ATOM      4  O   UNL     1      -5.403  -0.231 136.021  0.00  0.00    +0.000 OA
ATOM      5  C   UNL     1      -4.012  -1.517 134.452  0.00  0.00    +0.000 C 
ATOM      6  N   UNL     1      -4.560  -2.567 133.304  0.00  0.00    +0.000 N 
ATOM      7  C   UNL     1      -5.676  -2.369 132.541  0.00  0.00    +0.000 C 
ATOM      8  O   UNL     1      -5.961  -3.041 131.555  0.00  0.00    +0.000 OA
ATOM      9  C   UNL     1      -6.576  -1.233 132.883  0.00  0.00    +0.000 C 
ATOM     10  C   UNL     1      -6.280   0.012 132.138  0.00  0.00    +0.000 C 
ATOM     11  C   UNL     1      -7.092  -0.428 130.993  0.00  0.00    +0.000 C 
ATOM     12  S   UNL     1      -6.777   0.480 129.631  0.00  0.00    +0.000 S 
ATOM     13  C   UNL     1      -8.149   0.591 128.466  0.00  0.00    +0.000 C 
ATOM     14  C   UNL     1      -7.918   1.905 127.462  0.00  0.00    +0.000 C 
ATOM     15  N   UNL     1      -8.356   3.157 128.034  0.00  0.00    +0.000 N 
ATOM     16  C   UNL     1      -7.875   3.743 129.152  0.00  0.00    +0.000 C 
ATOM     17  O   UNL     1      -8.627   4.589 129.628  0.00  0.00    +0.000 OA
ATOM     18  C   UNL     1      -6.675   3.076 129.872  0.00  0.00    +0.000 C 
ATOM     19  N   UNL     1      -5.360   3.382 130.071  0.00  0.00    +0.000 N 
ATOM     20  C   UNL     1      -5.326   4.074 131.177  0.00  0.00    +0.000 C 
ATOM     21  O   UNL     1      -4.061   4.182 131.276  0.00  0.00    +0.000 OA
ATOM     22  C   UNL     1      -6.925   5.207 131.776  0.00  0.00    +0.000 C 
ATOM     23  N   UNL     1      -7.023   5.479 133.257  0.00  0.00    +0.000 N 
ATOM     24  C   UNL     1      -5.878   5.404 134.043  0.00  0.00    +0.000 C 
ATOM     25  O   UNL     1      -5.487   6.413 134.649  0.00  0.00    +0.000 OA
ATOM     26  H   UNL     1      -5.097   1.877 135.324  0.00  0.00    +0.000 HD
ATOM     27  H   UNL     1      -4.086  -3.452 132.973  0.00  0.00    +0.000 HD
ATOM     28  H   UNL     1      -9.174   3.608 127.641  0.00  0.00    +0.000 HD
ATOM     29  H   UNL     1      -4.562   3.620 129.454  0.00  0.00    +0.000 HD
ATOM     30  H   UNL     1      -7.523   4.739 133.658  0.00  0.00    +0.000 HD
ENDROOT
BRANCH   9  31
ATOM     31  N   UNL     1      -6.188  -0.655 134.033  0.00  0.00    +0.000 NA
ATOM     32  H   UNL     1      -6.893  -1.159 134.572  0.00  0.00    +0.000 HD
ATOM     33  H   UNL     1      -6.451   0.326 134.029  0.00  0.00    +0.000 HD
ENDBRANCH   9  31
BRANCH  14  34
ATOM     34  C   UNL     1      -8.610   1.612 126.128  0.00  0.00    +0.000 C 
ATOM     35  O   UNL     1      -9.733   1.107 126.134  0.00  0.00    +0.000 OA
ATOM     36  N   UNL     1      -7.929   1.936 124.958  0.00  0.00    +0.000 N 
BRANCH  36  37
ATOM     37  C   UNL     1      -8.575   1.581 123.631  0.00  0.00    +0.000 C 
BRANCH  37  38
ATOM     38  C   UNL     1      -8.941   0.046 123.406  0.00  0.00    +0.000 C 
ATOM     39  O   UNL     1      -9.462  -0.338 122.353  0.00  0.00    +0.000 OA
ATOM     40  N   UNL     1      -8.320  -0.917 124.205  0.00  0.00    +0.000 N 
ATOM     41  H   UNL     1      -7.966  -0.698 125.129  0.00  0.00    +0.000 HD
BRANCH  40  42
ATOM     42  C   UNL     1      -8.099  -2.331 123.723  0.00  0.00    +0.000 C 
BRANCH  42  43
ATOM     43  C   UNL     1      -8.354  -3.312 124.901  0.00  0.00    +0.000 C 
ATOM     44  O   UNL     1      -8.272  -4.528 124.728  0.00  0.00    +0.000 OA
ATOM     45  N   UNL     1      -8.686  -2.772 126.129  0.00  0.00    +0.000 N 
ATOM     46  H   UNL     1      -8.758  -1.778 126.245  0.00  0.00    +0.000 HD
BRANCH  45  47
ATOM     47  C   UNL     1      -8.931  -3.612 127.305  0.00  0.00    +0.000 C 
BRANCH  47  48
ATOM     48  C   UNL     1      -8.089  -3.254 128.546  0.00  0.00    +0.000 C 
ATOM     49  N   UNL     1      -6.772  -2.916 128.351  0.00  0.00    +0.000 N 
ATOM     50  O   UNL     1      -8.563  -3.263 129.680  0.00  0.00    +0.000 OA
ATOM     51  H   UNL     1      -6.295  -2.880 127.470  0.00  0.00    +0.000 HD
ATOM     52  H   UNL     1      -6.204  -2.679 129.156  0.00  0.00    +0.000 HD
ENDBRANCH  47  48
ENDBRANCH  45  47
ENDBRANCH  42  43
BRANCH  42  53
ATOM     53  C   UNL     1      -6.683  -2.634 123.139  0.00  0.00    +0.000 C 
BRANCH  53  54
ATOM     54  C   UNL     1      -5.647  -3.004 124.179  0.00  0.00    +0.000 C 
ATOM     55  C   UNL     1      -4.439  -3.541 123.502  0.00  0.00    +0.000 C 
ATOM     56  C   UNL     1      -4.964  -1.870 124.866  0.00  0.00    +0.000 C 
ENDBRANCH  53  54
ENDBRANCH  42  53
ENDBRANCH  40  42
ENDBRANCH  37  38
ENDBRANCH  36  37
BRANCH  36  57
ATOM     57  C   UNL     1      -6.598   2.575 124.933  0.00  0.00    +0.000 C 
BRANCH  57  58
ATOM     58  C   UNL     1      -6.407   3.963 124.480  0.00  0.00    +0.000 C 
BRANCH  58  59
ATOM     59  C   UNL     1      -6.709   5.097 125.387  0.00  0.00    +0.000 C 
BRANCH  59  60
ATOM     60  O   UNL     1      -8.113   5.318 125.501  0.00  0.00    +0.000 OA
ATOM     61  H   UNL     1      -8.535   5.260 124.625  0.00  0.00    +0.000 HD
ENDBRANCH  59  60
ENDBRANCH  58  59
ENDBRANCH  57  58
ENDBRANCH  36  57
ENDBRANCH  14  34
BRANCH   1  62
ATOM     62  C   UNL     1      -4.606   5.970 132.261  0.00  0.00    +0.000 C 
ATOM     63  C   UNL     1      -3.968   7.584 131.171  0.00  0.00    +0.000 C 
BRANCH  62  65
ATOM     64  C   UNL     1      -2.549   8.537 132.420  0.00  0.00    +0.000 C 
ATOM     65  C   UNL     1      -3.029   7.017 132.411  0.00  0.00    +0.000 C 
ENDBRANCH  62  65
ENDBRANCH   1  62
BRANCH  18  66
ATOM     66  C   UNL     1      -7.122   2.581 131.283  0.00  0.00    +0.000 C 
BRANCH  66  67
ATOM     67  C   UNL     1      -8.574   2.729 131.651  0.00  0.00    +0.000 C 
ATOM     68  N   UNL     1      -9.485   2.093 130.886  0.00  0.00    +0.000 N 
ATOM     69  O   UNL     1      -8.944   3.341 132.641  0.00  0.00    +0.000 OA
ATOM     70  H   UNL     1      -9.227   1.428 130.186  0.00  0.00    +0.000 HD
ATOM     71  H   UNL     1     -10.435   1.927 131.148  0.00  0.00    +0.000 HD
ENDBRANCH  66  67
ENDBRANCH  18  66
BRANCH   5  72
ATOM     72  C   UNL     1      -2.907  -0.759 134.029  0.00  0.00    +0.000 C 
BRANCH  72  73
ATOM     73  C   UNL     1      -1.848  -1.808 134.317  0.00  0.00    +0.000 A 
ATOM     74  C   UNL     1      -1.965  -3.016 135.099  0.00  0.00    +0.000 A 
ATOM     75  C   UNL     1      -0.847  -3.796 135.346  0.00  0.00    +0.000 A 
ATOM     76  C   UNL     1       0.369  -3.332 134.877  0.00  0.00    +0.000 A 
ATOM     77  C   UNL     1       0.496  -2.074 134.298  0.00  0.00    +0.000 A 
ATOM     78  C   UNL     1      -0.600  -1.300 134.051  0.00  0.00    +0.000 A 
BRANCH  76  79
ATOM     79  O   UNL     1       1.515  -4.061 134.929  0.00  0.00    +0.000 OA
ATOM     80  H   UNL     1       1.819  -4.281 134.036  0.00  0.00    +0.000 HD
ENDBRANCH  76  79
ENDBRANCH  72  73
ENDBRANCH   5  72
BRANCH  22  81
ATOM     81  C   UNL     1      -7.647   6.788 131.107  0.00  0.00    +0.000 C 
BRANCH  81  82
ATOM     82  C   UNL     1      -9.129   6.991 130.810  0.00  0.00    +0.000 C 
BRANCH  82  83
ATOM     83  C   UNL     1     -10.035   6.312 131.843  0.00  0.00    +0.000 C 
ATOM     84  N   UNL     1     -11.012   5.449 131.405  0.00  0.00    +0.000 N 
ATOM     85  O   UNL     1      -9.920   6.561 133.041  0.00  0.00    +0.000 OA
ATOM     86  H   UNL     1     -11.200   5.212 130.440  0.00  0.00    +0.000 HD
ATOM     87  H   UNL     1     -11.588   4.968 132.080  0.00  0.00    +0.000 HD
ENDBRANCH  82  83
ENDBRANCH  81  82
ENDBRANCH  22  81
TORSDOF 24
ENDMDL
MODEL 2
REMARK VINA RESULT:      -9.4      1.794      3.923
REMARK  Name = CHEMBL4467042
REMARK  28 active torsions:
REMARK  status: ('A' for Active; 'I' for Inactive)
REMARK    1  A    between atoms: C_1  and  C_2
REMARK    2  A    between atoms: C_2  and  C_3
REMARK    3  A    between atoms: C_3  and  C_4
REMARK    4  A    between atoms: C_3  and  C_5
REMARK    5  A    between atoms: C_9  and  C_10
REMARK    6  A    between atoms: C_10  and  C_11
REMARK    7  A    between atoms: C_14  and  O_15
REMARK    8  A    between atoms: C_21  and  N_22
REMARK    9  A    between atoms: C_27  and  C_28
REMARK   10  A    between atoms: N_30  and  C_31
REMARK   11  A    between atoms: N_30  and  C_35
REMARK   12  A    between atoms: C_31  and  C_32
REMARK   13  A    between atoms: C_32  and  C_33
REMARK   14  A    between atoms: C_33  and  O_34
REMARK   15  A    between atoms: C_35  and  C_36
REMARK   16  A    between atoms: N_38  and  C_39
REMARK   17  A    between atoms: C_39  and  C_40
REMARK   18  A    between atoms: C_39  and  C_44
REMARK   19  A    between atoms: C_40  and  C_41
REMARK   20  A    between atoms: C_41  and  C_42
REMARK   21  A    between atoms: C_41  and  C_43
REMARK   22  A    between atoms: N_46  and  C_47
REMARK   23  A    between atoms: C_47  and  C_48
REMARK   24  A    between atoms: C_54  and  C_55
REMARK   25  A    between atoms: C_55  and  C_56
REMARK   26  A    between atoms: C_62  and  C_63
REMARK   27  A    between atoms: C_63  and  C_64
REMARK   28  A    between atoms: C_64  and  C_65
REMARK                            x       y       z     vdW  Elec       q    Type
REMARK                         _______ _______ _______ _____ _____    ______ ____
ROOT
ATOM      1  C   UNL     1      -5.159   4.011 133.848  0.00  0.00    +0.000 C 
ATOM      2  N   UNL     1      -5.038   2.038 134.598  0.00  0.00    +0.000 N 
ATOM      3  C   UNL     1      -5.059   0.251 135.418  0.00  0.00    +0.000 C 
ATOM      4  O   UNL     1      -5.882  -0.332 136.313  0.00  0.00    +0.000 OA
ATOM      5  C   UNL     1      -4.367  -1.626 134.871  0.00  0.00    +0.000 C 
ATOM      6  N   UNL     1      -4.817  -2.667 133.674  0.00  0.00    +0.000 N 
ATOM      7  C   UNL     1      -5.858  -2.456 132.814  0.00  0.00    +0.000 C 
ATOM      8  O   UNL     1      -6.059  -3.122 131.804  0.00  0.00    +0.000 OA
ATOM      9  C   UNL     1      -6.776  -1.313 133.078  0.00  0.00    +0.000 C 
ATOM     10  C   UNL     1      -6.403  -0.068 132.368  0.00  0.00    +0.000 C 
ATOM     11  C   UNL     1      -7.112  -0.497 131.152  0.00  0.00    +0.000 C 
ATOM     12  S   UNL     1      -6.667   0.412 129.828  0.00  0.00    +0.000 S 
ATOM     13  C   UNL     1      -7.927   0.540 128.545  0.00  0.00    +0.000 C 
ATOM     14  C   UNL     1      -7.595   1.855 127.571  0.00  0.00    +0.000 C 
ATOM     15  N   UNL     1      -8.072   3.108 128.106  0.00  0.00    +0.000 N 
ATOM     16  C   UNL     1      -7.688   3.687 129.265  0.00  0.00    +0.000 C 
ATOM     17  O   UNL     1      -8.474   4.537 129.674  0.00  0.00    +0.000 OA
ATOM     18  C   UNL     1      -6.565   3.006 130.088  0.00  0.00    +0.000 C 
ATOM     19  N   UNL     1      -5.270   3.300 130.406  0.00  0.00    +0.000 N 
ATOM     20  C   UNL     1      -5.331   3.988 131.514  0.00  0.00    +0.000 C 
ATOM     21  O   UNL     1      -4.079   4.085 131.727  0.00  0.00    +0.000 OA
ATOM     22  C   UNL     1      -6.968   5.133 131.970  0.00  0.00    +0.000 C 
ATOM     23  N   UNL     1      -7.197   5.401 133.437  0.00  0.00    +0.000 N 
ATOM     24  C   UNL     1      -6.128   5.314 134.323  0.00  0.00    +0.000 C 
ATOM     25  O   UNL     1      -5.785   6.317 134.966  0.00  0.00    +0.000 OA
ATOM     26  H   UNL     1      -5.497   1.775 135.655  0.00  0.00    +0.000 HD
ATOM     27  H   UNL     1      -4.323  -3.555 133.383  0.00  0.00    +0.000 HD
ATOM     28  H   UNL     1      -8.847   3.568 127.643  0.00  0.00    +0.000 HD
ATOM     29  H   UNL     1      -4.418   3.532 129.865  0.00  0.00    +0.000 HD
ATOM     30  H   UNL     1      -7.738   4.665 133.788  0.00  0.00    +0.000 HD
ENDROOT
BRANCH   9  31
ATOM     31  N   UNL     1      -6.489  -0.742 134.260  0.00  0.00    +0.000 NA
ATOM     32  H   UNL     1      -7.467  -0.506 134.430  0.00  0.00    +0.000 HD
ATOM     33  H   UNL     1      -5.986   0.127 134.109  0.00  0.00    +0.000 HD
ENDBRANCH   9  31
BRANCH  14  34
ATOM     34  C   UNL     1      -8.166   1.572 126.179  0.00  0.00    +0.000 C 
ATOM     35  O   UNL     1      -9.288   1.991 125.894  0.00  0.00    +0.000 OA
ATOM     36  N   UNL     1      -7.378   0.847 125.289  0.00  0.00    +0.000 N 
BRANCH  36  37
ATOM     37  C   UNL     1      -7.965   0.497 123.933  0.00  0.00    +0.000 C 
BRANCH  37  38
ATOM     38  C   UNL     1      -7.768   1.572 122.773  0.00  0.00    +0.000 C 
ATOM     39  O   UNL     1      -8.652   2.395 122.508  0.00  0.00    +0.000 OA
ATOM     40  N   UNL     1      -6.473   1.855 122.332  0.00  0.00    +0.000 N 
ATOM     41  H   UNL     1      -5.720   1.182 122.418  0.00  0.00    +0.000 HD
BRANCH  40  42
ATOM     42  C   UNL     1      -6.107   3.197 121.743  0.00  0.00    +0.000 C 
BRANCH  42  43
ATOM     43  C   UNL     1      -5.804   4.190 122.900  0.00  0.00    +0.000 C 
ATOM     44  O   UNL     1      -4.872   4.988 122.807  0.00  0.00    +0.000 OA
ATOM     45  N   UNL     1      -6.604   4.132 124.025  0.00  0.00    +0.000 N 
ATOM     46  H   UNL     1      -7.352   3.466 124.083  0.00  0.00    +0.000 HD
BRANCH  45  47
ATOM     47  C   UNL     1      -6.409   5.035 125.162  0.00  0.00    +0.000 C 
BRANCH  47  48
ATOM     48  C   UNL     1      -5.383   4.552 126.207  0.00  0.00    +0.000 C 
ATOM     49  N   UNL     1      -4.409   3.678 125.791  0.00  0.00    +0.000 N 
ATOM     50  O   UNL     1      -5.418   4.926 127.377  0.00  0.00    +0.000 OA
ATOM     51  H   UNL     1      -4.296   3.315 124.863  0.00  0.00    +0.000 HD
ATOM     52  H   UNL     1      -3.727   3.349 126.465  0.00  0.00    +0.000 HD
ENDBRANCH  47  48
ENDBRANCH  45  47
ENDBRANCH  42  43
BRANCH  42  53
ATOM     53  C   UNL     1      -7.182   3.847 120.816  0.00  0.00    +0.000 C 
BRANCH  53  54
ATOM     54  C   UNL     1      -6.707   4.118 119.405  0.00  0.00    +0.000 C 
ATOM     55  C   UNL     1      -7.855   4.565 118.575  0.00  0.00    +0.000 C 
ATOM     56  C   UNL     1      -5.873   5.338 119.209  0.00  0.00    +0.000 C 
ENDBRANCH  53  54
ENDBRANCH  42  53
ENDBRANCH  40  42
ENDBRANCH  37  38
ENDBRANCH  36  37
BRANCH  36  57
ATOM     57  C   UNL     1      -6.016   0.368 125.599  0.00  0.00    +0.000 C 
BRANCH  57  58
ATOM     58  C   UNL     1      -5.733  -1.048 125.883  0.00  0.00    +0.000 C 
BRANCH  58  59
ATOM     59  C   UNL     1      -5.465  -1.997 124.775  0.00  0.00    +0.000 C 
BRANCH  59  60
ATOM     60  O   UNL     1      -6.596  -2.826 124.509  0.00  0.00    +0.000 OA
ATOM     61  H   UNL     1      -6.592  -3.599 125.102  0.00  0.00    +0.000 HD
ENDBRANCH  59  60
ENDBRANCH  58  59
ENDBRANCH  57  58
ENDBRANCH  36  57
ENDBRANCH  14  34
BRANCH   1  62
ATOM     62  C   UNL     1      -4.695   5.874 132.666  0.00  0.00    +0.000 C 
ATOM     63  C   UNL     1      -3.948   7.478 131.632  0.00  0.00    +0.000 C 
BRANCH  62  65
ATOM     64  C   UNL     1      -2.560   8.370 132.905  0.00  0.00    +0.000 C 
ATOM     65  C   UNL     1      -3.098   6.870 132.917  0.00  0.00    +0.000 C 
ENDBRANCH  62  65
ENDBRANCH   1  62
BRANCH  18  66
ATOM     66  C   UNL     1      -7.142   2.511 131.451  0.00  0.00    +0.000 C 
BRANCH  66  67
ATOM     67  C   UNL     1      -8.638   2.475 131.607  0.00  0.00    +0.000 C 
ATOM     68  N   UNL     1      -9.147   2.657 132.844  0.00  0.00    +0.000 N 
ATOM     69  O   UNL     1      -9.397   2.355 130.658  0.00  0.00    +0.000 OA
ATOM     70  H   UNL     1      -8.584   2.950 133.616  0.00  0.00    +0.000 HD
ATOM     71  H   UNL     1     -10.100   2.879 133.042  0.00  0.00    +0.000 HD
ENDBRANCH  66  67
ENDBRANCH  18  66
BRANCH   5  72
ATOM     72  C   UNL     1      -3.221  -0.876 134.553  0.00  0.00    +0.000 C 
BRANCH  72  73
ATOM     73  C   UNL     1      -2.207  -1.973 134.820  0.00  0.00    +0.000 A 
ATOM     74  C   UNL     1      -2.296  -3.076 135.749  0.00  0.00    +0.000 A 
ATOM     75  C   UNL     1      -1.211  -3.917 135.936  0.00  0.00    +0.000 A 
ATOM     76  C   UNL     1      -0.044  -3.611 135.258  0.00  0.00    +0.000 A 
ATOM     77  C   UNL     1       0.086  -2.438 134.522  0.00  0.00    +0.000 A 
ATOM     78  C   UNL     1      -0.977  -1.605 134.333  0.00  0.00    +0.000 A 
BRANCH  76  79
ATOM     79  O   UNL     1       1.044  -4.424 135.244  0.00  0.00    +0.000 OA
ATOM     80  H   UNL     1       0.820  -5.285 134.861  0.00  0.00    +0.000 HD
ENDBRANCH  76  79
ENDBRANCH  72  73
ENDBRANCH   5  72
BRANCH  22  81
ATOM     81  C   UNL     1      -7.612   6.723 131.245  0.00  0.00    +0.000 C 
BRANCH  81  82
ATOM     82  C   UNL     1      -9.070   6.956 130.859  0.00  0.00    +0.000 C 
BRANCH  82  83
ATOM     83  C   UNL     1     -10.048   6.224 131.784  0.00  0.00    +0.000 C 
ATOM     84  N   UNL     1     -10.899   5.289 131.245  0.00  0.00    +0.000 N 
ATOM     85  O   UNL     1     -10.102   6.493 132.982  0.00  0.00    +0.000 OA
ATOM     86  H   UNL     1     -10.948   5.029 130.269  0.00  0.00    +0.000 HD
ATOM     87  H   UNL     1     -11.521   4.775 131.852  0.00  0.00    +0.000 HD
ENDBRANCH  82  83
ENDBRANCH  81  82
ENDBRANCH  22  81
TORSDOF 24
ENDMDL
MODEL 3
REMARK VINA RESULT:      -9.4      2.380      4.656
REMARK  Name = CHEMBL4467042
REMARK  28 active torsions:
REMARK  status: ('A' for Active; 'I' for Inactive)
REMARK    1  A    between atoms: C_1  and  C_2
REMARK    2  A    between atoms: C_2  and  C_3
REMARK    3  A    between atoms: C_3  and  C_4
REMARK    4  A    between atoms: C_3  and  C_5
REMARK    5  A    between atoms: C_9  and  C_10
REMARK    6  A    between atoms: C_10  and  C_11
REMARK    7  A    between atoms: C_14  and  O_15
REMARK    8  A    between atoms: C_21  and  N_22
REMARK    9  A    between atoms: C_27  and  C_28
REMARK   10  A    between atoms: N_30  and  C_31
REMARK   11  A    between atoms: N_30  and  C_35
REMARK   12  A    between atoms: C_31  and  C_32
REMARK   13  A    between atoms: C_32  and  C_33
REMARK   14  A    between atoms: C_33  and  O_34
REMARK   15  A    between atoms: C_35  and  C_36
REMARK   16  A    between atoms: N_38  and  C_39
REMARK   17  A    between atoms: C_39  and  C_40
REMARK   18  A    between atoms: C_39  and  C_44
REMARK   19  A    between atoms: C_40  and  C_41
REMARK   20  A    between atoms: C_41  and  C_42
REMARK   21  A    between atoms: C_41  and  C_43
REMARK   22  A    between atoms: N_46  and  C_47
REMARK   23  A    between atoms: C_47  and  C_48
REMARK   24  A    between atoms: C_54  and  C_55
REMARK   25  A    between atoms: C_55  and  C_56
REMARK   26  A    between atoms: C_62  and  C_63
REMARK   27  A    between atoms: C_63  and  C_64
REMARK   28  A    between atoms: C_64  and  C_65
REMARK                            x       y       z     vdW  Elec       q    Type
REMARK                         _______ _______ _______ _____ _____    ______ ____
ROOT
ATOM      1  C   UNL     1      -5.725   3.045 134.794  0.00  0.00    +0.000 C 
ATOM      2  N   UNL     1      -5.631   1.055 135.502  0.00  0.00    +0.000 N 
ATOM      3  C   UNL     1      -5.687  -0.752 136.275  0.00  0.00    +0.000 C 
ATOM      4  O   UNL     1      -6.560  -1.365 137.100  0.00  0.00    +0.000 OA
ATOM      5  C   UNL     1      -4.940  -2.608 135.730  0.00  0.00    +0.000 C 
ATOM      6  N   UNL     1      -5.299  -3.623 134.481  0.00  0.00    +0.000 N 
ATOM      7  C   UNL     1      -6.283  -3.401 133.559  0.00  0.00    +0.000 C 
ATOM      8  O   UNL     1      -6.410  -4.043 132.522  0.00  0.00    +0.000 OA
ATOM      9  C   UNL     1      -7.229  -2.273 133.790  0.00  0.00    +0.000 C 
ATOM     10  C   UNL     1      -6.823  -1.007 133.137  0.00  0.00    +0.000 C 
ATOM     11  C   UNL     1      -7.447  -1.413 131.867  0.00  0.00    +0.000 C 
ATOM     12  S   UNL     1      -6.925  -0.466 130.598  0.00  0.00    +0.000 S 
ATOM     13  C   UNL     1      -8.100  -0.318 129.237  0.00  0.00    +0.000 C 
ATOM     14  C   UNL     1      -7.719   1.024 128.319  0.00  0.00    +0.000 C 
ATOM     15  N   UNL     1      -8.244   2.259 128.852  0.00  0.00    +0.000 N 
ATOM     16  C   UNL     1      -7.944   2.812 130.048  0.00  0.00    +0.000 C 
ATOM     17  O   UNL     1      -8.764   3.644 130.425  0.00  0.00    +0.000 OA
ATOM     18  C   UNL     1      -6.869   2.121 130.927  0.00  0.00    +0.000 C 
ATOM     19  N   UNL     1      -5.602   2.420 131.336  0.00  0.00    +0.000 N 
ATOM     20  C   UNL     1      -5.743   3.079 132.454  0.00  0.00    +0.000 C 
ATOM     21  O   UNL     1      -4.508   3.182 132.752  0.00  0.00    +0.000 OA
ATOM     22  C   UNL     1      -7.418   4.197 132.829  0.00  0.00    +0.000 C 
ATOM     23  N   UNL     1      -7.746   4.426 134.285  0.00  0.00    +0.000 N 
ATOM     24  C   UNL     1      -6.737   4.326 135.236  0.00  0.00    +0.000 C 
ATOM     25  O   UNL     1      -6.448   5.316 135.925  0.00  0.00    +0.000 OA
ATOM     26  H   UNL     1      -6.156   0.761 136.521  0.00  0.00    +0.000 HD
ATOM     27  H   UNL     1      -4.777  -4.499 134.202  0.00  0.00    +0.000 HD
ATOM     28  H   UNL     1      -8.992   2.723 128.351  0.00  0.00    +0.000 HD
ATOM     29  H   UNL     1      -4.718   2.673 130.859  0.00  0.00    +0.000 HD
ATOM     30  H   UNL     1      -8.301   3.675 134.581  0.00  0.00    +0.000 HD
ENDROOT
BRANCH   9  31
ATOM     31  N   UNL     1      -7.026  -1.729 135.003  0.00  0.00    +0.000 NA
ATOM     32  H   UNL     1      -7.432  -2.536 135.477  0.00  0.00    +0.000 HD
ATOM     33  H   UNL     1      -7.657  -0.946 135.137  0.00  0.00    +0.000 HD
ENDBRANCH   9  31
BRANCH  14  34
ATOM     34  C   UNL     1      -8.195   0.770 126.886  0.00  0.00    +0.000 C 
ATOM     35  O   UNL     1      -9.326   1.127 126.558  0.00  0.00    +0.000 OA
ATOM     36  N   UNL     1      -7.311   0.144 126.011  0.00  0.00    +0.000 N 
BRANCH  36  37
ATOM     37  C   UNL     1      -7.800  -0.179 124.611  0.00  0.00    +0.000 C 
BRANCH  37  38
ATOM     38  C   UNL     1      -7.837   1.030 123.573  0.00  0.00    +0.000 C 
ATOM     39  O   UNL     1      -8.910   1.474 123.147  0.00  0.00    +0.000 OA
ATOM     40  N   UNL     1      -6.711   1.848 123.453  0.00  0.00    +0.000 N 
ATOM     41  H   UNL     1      -5.781   1.513 123.681  0.00  0.00    +0.000 HD
BRANCH  40  42
ATOM     42  C   UNL     1      -6.815   3.291 123.020  0.00  0.00    +0.000 C 
BRANCH  42  43
ATOM     43  C   UNL     1      -6.410   3.400 121.523  0.00  0.00    +0.000 C 
ATOM     44  O   UNL     1      -5.495   2.710 121.074  0.00  0.00    +0.000 OA
ATOM     45  N   UNL     1      -7.100   4.299 120.733  0.00  0.00    +0.000 N 
ATOM     46  H   UNL     1      -7.835   4.860 121.124  0.00  0.00    +0.000 HD
BRANCH  45  47
ATOM     47  C   UNL     1      -6.803   4.466 119.308  0.00  0.00    +0.000 C 
BRANCH  47  48
ATOM     48  C   UNL     1      -5.795   5.585 118.981  0.00  0.00    +0.000 C 
ATOM     49  N   UNL     1      -5.705   6.006 117.676  0.00  0.00    +0.000 N 
ATOM     50  O   UNL     1      -5.086   6.098 119.845  0.00  0.00    +0.000 OA
ATOM     51  H   UNL     1      -6.237   5.653 116.903  0.00  0.00    +0.000 HD
ATOM     52  H   UNL     1      -5.047   6.740 117.443  0.00  0.00    +0.000 HD
ENDBRANCH  47  48
ENDBRANCH  45  47
ENDBRANCH  42  43
BRANCH  42  53
ATOM     53  C   UNL     1      -5.949   4.305 123.831  0.00  0.00    +0.000 C 
BRANCH  53  54
ATOM     54  C   UNL     1      -6.518   4.668 125.186  0.00  0.00    +0.000 C 
ATOM     55  C   UNL     1      -7.949   4.276 125.240  0.00  0.00    +0.000 C 
ATOM     56  C   UNL     1      -6.071   3.833 126.337  0.00  0.00    +0.000 C 
ENDBRANCH  53  54
ENDBRANCH  42  53
ENDBRANCH  40  42
ENDBRANCH  37  38
ENDBRANCH  36  37
BRANCH  36  57
ATOM     57  C   UNL     1      -5.938  -0.257 126.376  0.00  0.00    +0.000 C 
BRANCH  57  58
ATOM     58  C   UNL     1      -5.522  -1.668 126.418  0.00  0.00    +0.000 C 
BRANCH  58  59
ATOM     59  C   UNL     1      -5.359  -2.365 127.717  0.00  0.00    +0.000 C 
BRANCH  59  60
ATOM     60  O   UNL     1      -4.314  -1.784 128.496  0.00  0.00    +0.000 OA
ATOM     61  H   UNL     1      -3.460  -2.201 128.276  0.00  0.00    +0.000 HD
ENDBRANCH  59  60
ENDBRANCH  58  59
ENDBRANCH  57  58
ENDBRANCH  36  57
ENDBRANCH  14  34
BRANCH   1  62
ATOM     62  C   UNL     1      -5.204   4.941 133.692  0.00  0.00    +0.000 C 
ATOM     63  C   UNL     1      -4.409   6.580 132.753  0.00  0.00    +0.000 C 
BRANCH  62  65
ATOM     64  C   UNL     1      -2.506   6.800 133.365  0.00  0.00    +0.000 C 
ATOM     65  C   UNL     1      -3.650   5.958 134.087  0.00  0.00    +0.000 C 
ENDBRANCH  62  65
ENDBRANCH   1  62
BRANCH  18  66
ATOM     66  C   UNL     1      -7.529   1.587 132.236  0.00  0.00    +0.000 C 
BRANCH  66  67
ATOM     67  C   UNL     1      -9.014   1.768 132.398  0.00  0.00    +0.000 C 
ATOM     68  N   UNL     1      -9.828   1.046 131.600  0.00  0.00    +0.000 N 
ATOM     69  O   UNL     1      -9.501   2.486 133.257  0.00  0.00    +0.000 OA
ATOM     70  H   UNL     1      -9.489   0.307 131.018  0.00  0.00    +0.000 HD
ATOM     71  H   UNL     1     -10.804   0.905 131.756  0.00  0.00    +0.000 HD
ENDBRANCH  66  67
ENDBRANCH  18  66
BRANCH   5  72
ATOM     72  C   UNL     1      -3.784  -1.840 135.506  0.00  0.00    +0.000 C 
BRANCH  72  73
ATOM     73  C   UNL     1      -2.782  -2.968 135.673  0.00  0.00    +0.000 A 
ATOM     74  C   UNL     1      -2.696  -3.948 136.732  0.00  0.00    +0.000 A 
ATOM     75  C   UNL     1      -1.633  -4.836 136.773  0.00  0.00    +0.000 A 
ATOM     76  C   UNL     1      -0.646  -4.692 135.813  0.00  0.00    +0.000 A 
ATOM     77  C   UNL     1      -0.644  -3.623 134.923  0.00  0.00    +0.000 A 
ATOM     78  C   UNL     1      -1.687  -2.745 134.876  0.00  0.00    +0.000 A 
BRANCH  76  79
ATOM     79  O   UNL     1       0.373  -5.576 135.656  0.00  0.00    +0.000 OA
ATOM     80  H   UNL     1       0.931  -5.597 136.447  0.00  0.00    +0.000 HD
ENDBRANCH  76  79
ENDBRANCH  72  73
ENDBRANCH   5  72
BRANCH  22  81
ATOM     81  C   UNL     1      -8.031   5.798 132.102  0.00  0.00    +0.000 C 
BRANCH  81  82
ATOM     82  C   UNL     1      -9.362   6.447 132.470  0.00  0.00    +0.000 C 
BRANCH  82  83
ATOM     83  C   UNL     1     -10.440   6.226 131.403  0.00  0.00    +0.000 C 
ATOM     84  N   UNL     1     -11.058   5.001 131.328  0.00  0.00    +0.000 N 
ATOM     85  O   UNL     1     -10.722   7.113 130.601  0.00  0.00    +0.000 OA
ATOM     86  H   UNL     1     -10.866   4.206 131.923  0.00  0.00    +0.000 HD
ATOM     87  H   UNL     1     -11.796   4.857 130.654  0.00  0.00    +0.000 HD
ENDBRANCH  82  83
ENDBRANCH  81  82
ENDBRANCH  22  81
TORSDOF 24
ENDMDL
MODEL 4
REMARK VINA RESULT:      -8.9      2.644      8.577
REMARK  Name = CHEMBL4467042
REMARK  28 active torsions:
REMARK  status: ('A' for Active; 'I' for Inactive)
REMARK    1  A    between atoms: C_1  and  C_2
REMARK    2  A    between atoms: C_2  and  C_3
REMARK    3  A    between atoms: C_3  and  C_4
REMARK    4  A    between atoms: C_3  and  C_5
REMARK    5  A    between atoms: C_9  and  C_10
REMARK    6  A    between atoms: C_10  and  C_11
REMARK    7  A    between atoms: C_14  and  O_15
REMARK    8  A    between atoms: C_21  and  N_22
REMARK    9  A    between atoms: C_27  and  C_28
REMARK   10  A    between atoms: N_30  and  C_31
REMARK   11  A    between atoms: N_30  and  C_35
REMARK   12  A    between atoms: C_31  and  C_32
REMARK   13  A    between atoms: C_32  and  C_33
REMARK   14  A    between atoms: C_33  and  O_34
REMARK   15  A    between atoms: C_35  and  C_36
REMARK   16  A    between atoms: N_38  and  C_39
REMARK   17  A    between atoms: C_39  and  C_40
REMARK   18  A    between atoms: C_39  and  C_44
REMARK   19  A    between atoms: C_40  and  C_41
REMARK   20  A    between atoms: C_41  and  C_42
REMARK   21  A    between atoms: C_41  and  C_43
REMARK   22  A    between atoms: N_46  and  C_47
REMARK   23  A    between atoms: C_47  and  C_48
REMARK   24  A    between atoms: C_54  and  C_55
REMARK   25  A    between atoms: C_55  and  C_56
REMARK   26  A    between atoms: C_62  and  C_63
REMARK   27  A    between atoms: C_63  and  C_64
REMARK   28  A    between atoms: C_64  and  C_65
REMARK                            x       y       z     vdW  Elec       q    Type
REMARK                         _______ _______ _______ _____ _____    ______ ____
ROOT
ATOM      1  C   UNL     1      -6.192  -0.837 134.766  0.00  0.00    +0.000 C 
ATOM      2  N   UNL     1      -5.994   1.267 134.830  0.00  0.00    +0.000 N 
ATOM      3  C   UNL     1      -5.640   3.197 134.965  0.00  0.00    +0.000 C 
ATOM      4  O   UNL     1      -4.531   3.901 135.271  0.00  0.00    +0.000 OA
ATOM      5  C   UNL     1      -6.462   4.905 134.124  0.00  0.00    +0.000 C 
ATOM      6  N   UNL     1      -6.485   5.477 132.578  0.00  0.00    +0.000 N 
ATOM      7  C   UNL     1      -5.850   4.885 131.522  0.00  0.00    +0.000 C 
ATOM      8  O   UNL     1      -6.037   5.191 130.349  0.00  0.00    +0.000 OA
ATOM      9  C   UNL     1      -4.915   3.758 131.798  0.00  0.00    +0.000 C 
ATOM     10  C   UNL     1      -5.546   2.422 131.710  0.00  0.00    +0.000 C 
ATOM     11  C   UNL     1      -5.344   2.375 130.253  0.00  0.00    +0.000 C 
ATOM     12  S   UNL     1      -6.269   1.184 129.542  0.00  0.00    +0.000 S 
ATOM     13  C   UNL     1      -5.590   0.517 128.010  0.00  0.00    +0.000 C 
ATOM     14  C   UNL     1      -6.284  -0.970 127.698  0.00  0.00    +0.000 C 
ATOM     15  N   UNL     1      -5.656  -2.062 128.403  0.00  0.00    +0.000 N 
ATOM     16  C   UNL     1      -5.580  -2.217 129.743  0.00  0.00    +0.000 C 
ATOM     17  O   UNL     1      -4.710  -3.007 130.099  0.00  0.00    +0.000 OA
ATOM     18  C   UNL     1      -6.300  -1.180 130.644  0.00  0.00    +0.000 C 
ATOM     19  N   UNL     1      -7.381  -1.192 131.476  0.00  0.00    +0.000 N 
ATOM     20  C   UNL     1      -6.915  -1.525 132.649  0.00  0.00    +0.000 C 
ATOM     21  O   UNL     1      -7.995  -1.385 133.311  0.00  0.00    +0.000 OA
ATOM     22  C   UNL     1      -5.243  -2.693 132.840  0.00  0.00    +0.000 C 
ATOM     23  N   UNL     1      -4.479  -2.545 134.133  0.00  0.00    +0.000 N 
ATOM     24  C   UNL     1      -5.132  -2.059 135.261  0.00  0.00    +0.000 C 
ATOM     25  O   UNL     1      -5.219  -2.773 136.270  0.00  0.00    +0.000 OA
ATOM     26  H   UNL     1      -5.165   1.766 135.511  0.00  0.00    +0.000 HD
ATOM     27  H   UNL     1      -7.040   6.299 132.210  0.00  0.00    +0.000 HD
ATOM     28  H   UNL     1      -5.120  -2.738 127.871  0.00  0.00    +0.000 HD
ATOM     29  H   UNL     1      -8.378  -1.456 131.379  0.00  0.00    +0.000 HD
ATOM     30  H   UNL     1      -3.836  -1.818 134.012  0.00  0.00    +0.000 HD
ENDROOT
BRANCH   9  31
ATOM     31  N   UNL     1      -4.742   3.605 133.122  0.00  0.00    +0.000 NA
ATOM     32  H   UNL     1      -5.044   2.631 133.090  0.00  0.00    +0.000 HD
ATOM     33  H   UNL     1      -5.451   4.128 133.624  0.00  0.00    +0.000 HD
ENDBRANCH   9  31
BRANCH  14  34
ATOM     34  C   UNL     1      -6.278  -1.188 126.182  0.00  0.00    +0.000 C 
ATOM     35  O   UNL     1      -5.257  -0.932 125.544  0.00  0.00    +0.000 OA
ATOM     36  N   UNL     1      -7.442  -1.675 125.592  0.00  0.00    +0.000 N 
BRANCH  36  37
ATOM     37  C   UNL     1      -7.471  -1.823 124.082  0.00  0.00    +0.000 C 
BRANCH  37  38
ATOM     38  C   UNL     1      -7.918  -0.541 123.248  0.00  0.00    +0.000 C 
ATOM     39  O   UNL     1      -9.077  -0.420 122.835  0.00  0.00    +0.000 OA
ATOM     40  N   UNL     1      -7.140   0.617 123.327  0.00  0.00    +0.000 N 
ATOM     41  H   UNL     1      -6.153   0.583 123.554  0.00  0.00    +0.000 HD
BRANCH  40  42
ATOM     42  C   UNL     1      -7.732   1.991 123.123  0.00  0.00    +0.000 C 
BRANCH  42  43
ATOM     43  C   UNL     1      -6.602   2.970 122.697  0.00  0.00    +0.000 C 
ATOM     44  O   UNL     1      -6.188   3.822 123.481  0.00  0.00    +0.000 OA
ATOM     45  N   UNL     1      -6.099   2.853 121.415  0.00  0.00    +0.000 N 
ATOM     46  H   UNL     1      -6.460   2.158 120.788  0.00  0.00    +0.000 HD
BRANCH  45  47
ATOM     47  C   UNL     1      -5.023   3.718 120.922  0.00  0.00    +0.000 C 
BRANCH  47  48
ATOM     48  C   UNL     1      -5.492   4.925 120.085  0.00  0.00    +0.000 C 
ATOM     49  N   UNL     1      -6.576   4.751 119.261  0.00  0.00    +0.000 N 
ATOM     50  O   UNL     1      -4.929   6.016 120.142  0.00  0.00    +0.000 OA
ATOM     51  H   UNL     1      -7.101   3.904 119.144  0.00  0.00    +0.000 HD
ATOM     52  H   UNL     1      -6.897   5.533 118.702  0.00  0.00    +0.000 HD
ENDBRANCH  47  48
ENDBRANCH  45  47
ENDBRANCH  42  43
BRANCH  42  53
ATOM     53  C   UNL     1      -8.461   2.605 124.359  0.00  0.00    +0.000 C 
BRANCH  53  54
ATOM     54  C   UNL     1      -7.958   2.099 125.694  0.00  0.00    +0.000 C 
ATOM     55  C   UNL     1      -7.696   3.253 126.592  0.00  0.00    +0.000 C 
ATOM     56  C   UNL     1      -8.962   1.429 126.570  0.00  0.00    +0.000 C 
ENDBRANCH  53  54
ENDBRANCH  42  53
ENDBRANCH  40  42
ENDBRANCH  37  38
ENDBRANCH  36  37
BRANCH  36  57
ATOM     57  C   UNL     1      -8.663  -2.022 126.347  0.00  0.00    +0.000 C 
BRANCH  57  58
ATOM     58  C   UNL     1      -9.012  -3.416 126.667  0.00  0.00    +0.000 C 
BRANCH  58  59
ATOM     59  C   UNL     1      -8.845  -3.934 128.047  0.00  0.00    +0.000 C 
BRANCH  59  60
ATOM     60  O   UNL     1     -10.077  -4.418 128.578  0.00  0.00    +0.000 OA
ATOM     61  H   UNL     1      -9.907  -5.012 129.332  0.00  0.00    +0.000 HD
ENDBRANCH  59  60
ENDBRANCH  58  59
ENDBRANCH  57  58
ENDBRANCH  36  57
ENDBRANCH  14  34
BRANCH   1  62
ATOM     62  C   UNL     1      -7.093  -2.885 134.495  0.00  0.00    +0.000 C 
ATOM     63  C   UNL     1      -8.180  -4.621 134.416  0.00  0.00    +0.000 C 
BRANCH  62  65
ATOM     64  C   UNL     1      -8.545  -4.942 136.618  0.00  0.00    +0.000 C 
ATOM     65  C   UNL     1      -8.319  -3.633 135.737  0.00  0.00    +0.000 C 
ENDBRANCH  62  65
ENDBRANCH   1  62
BRANCH  18  66
ATOM     66  C   UNL     1      -5.244  -0.388 131.476  0.00  0.00    +0.000 C 
BRANCH  66  67
ATOM     67  C   UNL     1      -3.789  -0.689 131.232  0.00  0.00    +0.000 C 
ATOM     68  N   UNL     1      -3.300  -0.471 129.994  0.00  0.00    +0.000 N 
ATOM     69  O   UNL     1      -3.035  -1.056 132.119  0.00  0.00    +0.000 OA
ATOM     70  H   UNL     1      -3.821   0.007 129.288  0.00  0.00    +0.000 HD
ATOM     71  H   UNL     1      -2.329  -0.414 129.765  0.00  0.00    +0.000 HD
ENDBRANCH  66  67
ENDBRANCH  18  66
BRANCH   5  72
ATOM     72  C   UNL     1      -7.653   4.255 134.493  0.00  0.00    +0.000 C 
BRANCH  72  73
ATOM     73  C   UNL     1      -8.473   4.685 133.290  0.00  0.00    +0.000 A 
ATOM     74  C   UNL     1      -9.115   5.956 133.044  0.00  0.00    +0.000 A 
ATOM     75  C   UNL     1      -9.923   6.123 131.932  0.00  0.00    +0.000 A 
ATOM     76  C   UNL     1     -10.137   5.016 131.128  0.00  0.00    +0.000 A 
ATOM     77  C   UNL     1      -9.673   3.755 131.484  0.00  0.00    +0.000 A 
ATOM     78  C   UNL     1      -8.876   3.582 132.578  0.00  0.00    +0.000 A 
BRANCH  76  79
ATOM     79  O   UNL     1     -10.791   5.075 129.939  0.00  0.00    +0.000 OA
ATOM     80  H   UNL     1     -10.893   4.189 129.562  0.00  0.00    +0.000 HD
ENDBRANCH  76  79
ENDBRANCH  72  73
ENDBRANCH   5  72
BRANCH  22  81
ATOM     81  C   UNL     1      -4.942  -4.497 132.489  0.00  0.00    +0.000 C 
BRANCH  81  82
ATOM     82  C   UNL     1      -4.422  -5.492 133.522  0.00  0.00    +0.000 C 
BRANCH  82  83
ATOM     83  C   UNL     1      -2.892  -5.499 133.616  0.00  0.00    +0.000 C 
ATOM     84  N   UNL     1      -2.259  -6.642 134.041  0.00  0.00    +0.000 N 
ATOM     85  O   UNL     1      -2.242  -4.490 133.353  0.00  0.00    +0.000 OA
ATOM     86  H   UNL     1      -2.714  -7.504 134.309  0.00  0.00    +0.000 HD
ATOM     87  H   UNL     1      -1.250  -6.669 134.070  0.00  0.00    +0.000 HD
ENDBRANCH  82  83
ENDBRANCH  81  82
ENDBRANCH  22  81
TORSDOF 24
ENDMDL
MODEL 5
REMARK VINA RESULT:      -8.9      2.896      8.482
REMARK  Name = CHEMBL4467042
REMARK  28 active torsions:
REMARK  status: ('A' for Active; 'I' for Inactive)
REMARK    1  A    between atoms: C_1  and  C_2
REMARK    2  A    between atoms: C_2  and  C_3
REMARK    3  A    between atoms: C_3  and  C_4
REMARK    4  A    between atoms: C_3  and  C_5
REMARK    5  A    between atoms: C_9  and  C_10
REMARK    6  A    between atoms: C_10  and  C_11
REMARK    7  A    between atoms: C_14  and  O_15
REMARK    8  A    between atoms: C_21  and  N_22
REMARK    9  A    between atoms: C_27  and  C_28
REMARK   10  A    between atoms: N_30  and  C_31
REMARK   11  A    between atoms: N_30  and  C_35
REMARK   12  A    between atoms: C_31  and  C_32
REMARK   13  A    between atoms: C_32  and  C_33
REMARK   14  A    between atoms: C_33  and  O_34
REMARK   15  A    between atoms: C_35  and  C_36
REMARK   16  A    between atoms: N_38  and  C_39
REMARK   17  A    between atoms: C_39  and  C_40
REMARK   18  A    between atoms: C_39  and  C_44
REMARK   19  A    between atoms: C_40  and  C_41
REMARK   20  A    between atoms: C_41  and  C_42
REMARK   21  A    between atoms: C_41  and  C_43
REMARK   22  A    between atoms: N_46  and  C_47
REMARK   23  A    between atoms: C_47  and  C_48
REMARK   24  A    between atoms: C_54  and  C_55
REMARK   25  A    between atoms: C_55  and  C_56
REMARK   26  A    between atoms: C_62  and  C_63
REMARK   27  A    between atoms: C_63  and  C_64
REMARK   28  A    between atoms: C_64  and  C_65
REMARK                            x       y       z     vdW  Elec       q    Type
REMARK                         _______ _______ _______ _____ _____    ______ ____
ROOT
ATOM      1  C   UNL     1      -5.729  -1.025 134.876  0.00  0.00    +0.000 C 
ATOM      2  N   UNL     1      -5.219   1.024 134.979  0.00  0.00    +0.000 N 
ATOM      3  C   UNL     1      -4.579   2.876 135.143  0.00  0.00    +0.000 C 
ATOM      4  O   UNL     1      -3.369   3.401 135.424  0.00  0.00    +0.000 OA
ATOM      5  C   UNL     1      -5.167   4.709 134.371  0.00  0.00    +0.000 C 
ATOM      6  N   UNL     1      -5.155   5.320 132.839  0.00  0.00    +0.000 N 
ATOM      7  C   UNL     1      -4.650   4.670 131.749  0.00  0.00    +0.000 C 
ATOM      8  O   UNL     1      -4.829   5.032 130.591  0.00  0.00    +0.000 OA
ATOM      9  C   UNL     1      -3.885   3.411 131.965  0.00  0.00    +0.000 C 
ATOM     10  C   UNL     1      -4.709   2.184 131.871  0.00  0.00    +0.000 C 
ATOM     11  C   UNL     1      -4.564   2.148 130.407  0.00  0.00    +0.000 C 
ATOM     12  S   UNL     1      -5.678   1.126 129.705  0.00  0.00    +0.000 S 
ATOM     13  C   UNL     1      -5.157   0.408 128.135  0.00  0.00    +0.000 C 
ATOM     14  C   UNL     1      -6.072  -0.951 127.815  0.00  0.00    +0.000 C 
ATOM     15  N   UNL     1      -5.591  -2.143 128.473  0.00  0.00    +0.000 N 
ATOM     16  C   UNL     1      -5.495  -2.344 129.806  0.00  0.00    +0.000 C 
ATOM     17  O   UNL     1      -4.739  -3.262 130.112  0.00  0.00    +0.000 OA
ATOM     18  C   UNL     1      -6.022  -1.237 130.755  0.00  0.00    +0.000 C 
ATOM     19  N   UNL     1      -7.066  -1.112 131.625  0.00  0.00    +0.000 N 
ATOM     20  C   UNL     1      -6.616  -1.542 132.773  0.00  0.00    +0.000 C 
ATOM     21  O   UNL     1      -7.640  -1.263 133.477  0.00  0.00    +0.000 OA
ATOM     22  C   UNL     1      -5.130  -2.948 132.876  0.00  0.00    +0.000 C 
ATOM     23  N   UNL     1      -4.310  -2.950 134.144  0.00  0.00    +0.000 N 
ATOM     24  C   UNL     1      -4.846  -2.404 135.305  0.00  0.00    +0.000 C 
ATOM     25  O   UNL     1      -5.005  -3.124 136.301  0.00  0.00    +0.000 OA
ATOM     26  H   UNL     1      -4.304   1.377 135.640  0.00  0.00    +0.000 HD
ATOM     27  H   UNL     1      -5.595   6.224 132.511  0.00  0.00    +0.000 HD
ATOM     28  H   UNL     1      -5.178  -2.875 127.907  0.00  0.00    +0.000 HD
ATOM     29  H   UNL     1      -8.093  -1.224 131.559  0.00  0.00    +0.000 HD
ATOM     30  H   UNL     1      -3.570  -2.322 134.015  0.00  0.00    +0.000 HD
ENDROOT
BRANCH   9  31
ATOM     31  N   UNL     1      -3.692   3.197 133.278  0.00  0.00    +0.000 NA
ATOM     32  H   UNL     1      -4.627   3.531 133.511  0.00  0.00    +0.000 HD
ATOM     33  H   UNL     1      -3.027   3.873 133.641  0.00  0.00    +0.000 HD
ENDBRANCH   9  31
BRANCH  14  34
ATOM     34  C   UNL     1      -6.149  -1.127 126.296  0.00  0.00    +0.000 C 
ATOM     35  O   UNL     1      -5.162  -0.858 125.611  0.00  0.00    +0.000 OA
ATOM     36  N   UNL     1      -7.346  -1.590 125.756  0.00  0.00    +0.000 N 
BRANCH  36  37
ATOM     37  C   UNL     1      -7.456  -1.696 124.246  0.00  0.00    +0.000 C 
BRANCH  37  38
ATOM     38  C   UNL     1      -7.903  -0.378 123.470  0.00  0.00    +0.000 C 
ATOM     39  O   UNL     1      -9.064  -0.236 123.068  0.00  0.00    +0.000 OA
ATOM     40  N   UNL     1      -7.121   0.773 123.594  0.00  0.00    +0.000 N 
ATOM     41  H   UNL     1      -6.133   0.726 123.815  0.00  0.00    +0.000 HD
BRANCH  40  42
ATOM     42  C   UNL     1      -7.710   2.156 123.452  0.00  0.00    +0.000 C 
BRANCH  42  43
ATOM     43  C   UNL     1      -6.610   3.121 122.924  0.00  0.00    +0.000 C 
ATOM     44  O   UNL     1      -6.210   4.051 123.624  0.00  0.00    +0.000 OA
ATOM     45  N   UNL     1      -6.119   2.902 121.651  0.00  0.00    +0.000 N 
ATOM     46  H   UNL     1      -6.468   2.144 121.094  0.00  0.00    +0.000 HD
BRANCH  45  47
ATOM     47  C   UNL     1      -5.072   3.746 121.069  0.00  0.00    +0.000 C 
BRANCH  47  48
ATOM     48  C   UNL     1      -5.583   4.866 120.140  0.00  0.00    +0.000 C 
ATOM     49  N   UNL     1      -6.757   4.651 119.462  0.00  0.00    +0.000 N 
ATOM     50  O   UNL     1      -4.974   5.925 120.000  0.00  0.00    +0.000 OA
ATOM     51  H   UNL     1      -7.324   3.825 119.508  0.00  0.00    +0.000 HD
ATOM     52  H   UNL     1      -7.107   5.376 118.846  0.00  0.00    +0.000 HD
ENDBRANCH  47  48
ENDBRANCH  45  47
ENDBRANCH  42  43
BRANCH  42  53
ATOM     53  C   UNL     1      -8.310   2.774 124.754  0.00  0.00    +0.000 C 
BRANCH  53  54
ATOM     54  C   UNL     1      -7.775   2.170 126.035  0.00  0.00    +0.000 C 
ATOM     55  C   UNL     1      -7.344   3.257 126.951  0.00  0.00    +0.000 C 
ATOM     56  C   UNL     1      -8.781   1.565 126.953  0.00  0.00    +0.000 C 
ENDBRANCH  53  54
ENDBRANCH  42  53
ENDBRANCH  40  42
ENDBRANCH  37  38
ENDBRANCH  36  37
BRANCH  36  57
ATOM     57  C   UNL     1      -8.527  -1.952 126.565  0.00  0.00    +0.000 C 
BRANCH  57  58
ATOM     58  C   UNL     1      -8.897  -3.353 126.822  0.00  0.00    +0.000 C 
BRANCH  58  59
ATOM     59  C   UNL     1      -8.949  -3.873 128.210  0.00  0.00    +0.000 C 
BRANCH  59  60
ATOM     60  O   UNL     1      -8.589  -2.872 129.160  0.00  0.00    +0.000 OA
ATOM     61  H   UNL     1      -9.091  -2.997 129.986  0.00  0.00    +0.000 HD
ENDBRANCH  59  60
ENDBRANCH  58  59
ENDBRANCH  57  58
ENDBRANCH  36  57
ENDBRANCH  14  34
BRANCH   1  62
ATOM     62  C   UNL     1      -6.932  -2.910 134.594  0.00  0.00    +0.000 C 
ATOM     63  C   UNL     1      -8.274  -4.456 134.496  0.00  0.00    +0.000 C 
BRANCH  62  65
ATOM     64  C   UNL     1      -8.480  -3.952 137.307  0.00  0.00    +0.000 C 
ATOM     65  C   UNL     1      -8.290  -3.445 135.808  0.00  0.00    +0.000 C 
ENDBRANCH  62  65
ENDBRANCH   1  62
BRANCH  18  66
ATOM     66  C   UNL     1      -4.834  -0.632 131.564  0.00  0.00    +0.000 C 
BRANCH  66  67
ATOM     67  C   UNL     1      -3.452  -1.157 131.280  0.00  0.00    +0.000 C 
ATOM     68  N   UNL     1      -2.976  -1.031 130.024  0.00  0.00    +0.000 N 
ATOM     69  O   UNL     1      -2.734  -1.626 132.149  0.00  0.00    +0.000 OA
ATOM     70  H   UNL     1      -3.441  -0.486 129.328  0.00  0.00    +0.000 HD
ATOM     71  H   UNL     1      -2.016  -1.127 129.765  0.00  0.00    +0.000 HD
ENDBRANCH  66  67
ENDBRANCH  18  66
BRANCH   5  72
ATOM     72  C   UNL     1      -6.428   4.232 134.769  0.00  0.00    +0.000 C 
BRANCH  72  73
ATOM     73  C   UNL     1      -6.648   5.221 135.899  0.00  0.00    +0.000 A 
ATOM     74  C   UNL     1      -5.991   5.280 137.185  0.00  0.00    +0.000 A 
ATOM     75  C   UNL     1      -6.411   6.193 138.138  0.00  0.00    +0.000 A 
ATOM     76  C   UNL     1      -7.510   6.976 137.829  0.00  0.00    +0.000 A 
ATOM     77  C   UNL     1      -8.249   6.772 136.670  0.00  0.00    +0.000 A 
ATOM     78  C   UNL     1      -7.842   5.875 135.725  0.00  0.00    +0.000 A 
BRANCH  76  79
ATOM     79  O   UNL     1      -7.938   8.000 138.613  0.00  0.00    +0.000 OA
ATOM     80  H   UNL     1      -8.868   8.201 138.432  0.00  0.00    +0.000 HD
ENDBRANCH  76  79
ENDBRANCH  72  73
ENDBRANCH   5  72
BRANCH  22  81
ATOM     81  C   UNL     1      -5.111  -4.767 132.475  0.00  0.00    +0.000 C 
BRANCH  81  82
ATOM     82  C   UNL     1      -4.741  -5.857 133.476  0.00  0.00    +0.000 C 
BRANCH  82  83
ATOM     83  C   UNL     1      -3.246  -5.863 133.816  0.00  0.00    +0.000 C 
ATOM     84  N   UNL     1      -2.802  -6.662 134.841  0.00  0.00    +0.000 N 
ATOM     85  O   UNL     1      -2.461  -5.137 133.210  0.00  0.00    +0.000 OA
ATOM     86  H   UNL     1      -3.379  -7.264 135.413  0.00  0.00    +0.000 HD
ATOM     87  H   UNL     1      -1.814  -6.702 135.047  0.00  0.00    +0.000 HD
ENDBRANCH  82  83
ENDBRANCH  81  82
ENDBRANCH  22  81
TORSDOF 24
ENDMDL
MODEL 6
REMARK VINA RESULT:      -8.7      2.521      4.614
REMARK  Name = CHEMBL4467042
REMARK  28 active torsions:
REMARK  status: ('A' for Active; 'I' for Inactive)
REMARK    1  A    between atoms: C_1  and  C_2
REMARK    2  A    between atoms: C_2  and  C_3
REMARK    3  A    between atoms: C_3  and  C_4
REMARK    4  A    between atoms: C_3  and  C_5
REMARK    5  A    between atoms: C_9  and  C_10
REMARK    6  A    between atoms: C_10  and  C_11
REMARK    7  A    between atoms: C_14  and  O_15
REMARK    8  A    between atoms: C_21  and  N_22
REMARK    9  A    between atoms: C_27  and  C_28
REMARK   10  A    between atoms: N_30  and  C_31
REMARK   11  A    between atoms: N_30  and  C_35
REMARK   12  A    between atoms: C_31  and  C_32
REMARK   13  A    between atoms: C_32  and  C_33
REMARK   14  A    between atoms: C_33  and  O_34
REMARK   15  A    between atoms: C_35  and  C_36
REMARK   16  A    between atoms: N_38  and  C_39
REMARK   17  A    between atoms: C_39  and  C_40
REMARK   18  A    between atoms: C_39  and  C_44
REMARK   19  A    between atoms: C_40  and  C_41
REMARK   20  A    between atoms: C_41  and  C_42
REMARK   21  A    between atoms: C_41  and  C_43
REMARK   22  A    between atoms: N_46  and  C_47
REMARK   23  A    between atoms: C_47  and  C_48
REMARK   24  A    between atoms: C_54  and  C_55
REMARK   25  A    between atoms: C_55  and  C_56
REMARK   26  A    between atoms: C_62  and  C_63
REMARK   27  A    between atoms: C_63  and  C_64
REMARK   28  A    between atoms: C_64  and  C_65
REMARK                            x       y       z     vdW  Elec       q    Type
REMARK                         _______ _______ _______ _____ _____    ______ ____
ROOT
ATOM      1  C   UNL     1      -5.665   2.811 134.305  0.00  0.00    +0.000 C 
ATOM      2  N   UNL     1      -5.177   0.925 135.126  0.00  0.00    +0.000 N 
ATOM      3  C   UNL     1      -4.894  -0.829 135.969  0.00  0.00    +0.000 C 
ATOM      4  O   UNL     1      -5.721  -1.672 136.620  0.00  0.00    +0.000 OA
ATOM      5  C   UNL     1      -3.556  -2.390 135.700  0.00  0.00    +0.000 C 
ATOM      6  N   UNL     1      -3.331  -3.456 134.462  0.00  0.00    +0.000 N 
ATOM      7  C   UNL     1      -4.110  -3.516 133.340  0.00  0.00    +0.000 C 
ATOM      8  O   UNL     1      -3.819  -4.160 132.337  0.00  0.00    +0.000 OA
ATOM      9  C   UNL     1      -5.360  -2.707 133.300  0.00  0.00    +0.000 C 
ATOM     10  C   UNL     1      -5.191  -1.373 132.679  0.00  0.00    +0.000 C 
ATOM     11  C   UNL     1      -5.380  -1.929 131.330  0.00  0.00    +0.000 C 
ATOM     12  S   UNL     1      -4.877  -0.864 130.151  0.00  0.00    +0.000 S 
ATOM     13  C   UNL     1      -5.715  -1.046 128.564  0.00  0.00    +0.000 C 
ATOM     14  C   UNL     1      -5.533   0.356 127.676  0.00  0.00    +0.000 C 
ATOM     15  N   UNL     1      -6.486   1.386 128.015  0.00  0.00    +0.000 N 
ATOM     16  C   UNL     1      -6.625   1.992 129.214  0.00  0.00    +0.000 C 
ATOM     17  O   UNL     1      -7.707   2.553 129.360  0.00  0.00    +0.000 OA
ATOM     18  C   UNL     1      -5.622   1.630 130.340  0.00  0.00    +0.000 C 
ATOM     19  N   UNL     1      -4.611   2.274 130.993  0.00  0.00    +0.000 N 
ATOM     20  C   UNL     1      -5.174   2.857 132.017  0.00  0.00    +0.000 C 
ATOM     21  O   UNL     1      -4.115   3.305 132.565  0.00  0.00    +0.000 OA
ATOM     22  C   UNL     1      -7.136   3.447 131.962  0.00  0.00    +0.000 C 
ATOM     23  N   UNL     1      -7.827   3.562 133.298  0.00  0.00    +0.000 N 
ATOM     24  C   UNL     1      -7.067   3.747 134.448  0.00  0.00    +0.000 C 
ATOM     25  O   UNL     1      -7.226   4.772 135.126  0.00  0.00    +0.000 OA
ATOM     26  H   UNL     1      -5.810   0.486 136.024  0.00  0.00    +0.000 HD
ATOM     27  H   UNL     1      -2.537  -4.144 134.350  0.00  0.00    +0.000 HD
ATOM     28  H   UNL     1      -7.204   1.621 127.339  0.00  0.00    +0.000 HD
ATOM     29  H   UNL     1      -3.751   2.773 130.702  0.00  0.00    +0.000 HD
ATOM     30  H   UNL     1      -8.201   2.682 133.511  0.00  0.00    +0.000 HD
ENDROOT
BRANCH   9  31
ATOM     31  N   UNL     1      -5.590  -2.137 134.495  0.00  0.00    +0.000 NA
ATOM     32  H   UNL     1      -5.849  -3.030 134.916  0.00  0.00    +0.000 HD
ATOM     33  H   UNL     1      -6.429  -1.569 134.448  0.00  0.00    +0.000 HD
ENDBRANCH   9  31
BRANCH  14  34
ATOM     34  C   UNL     1      -5.589  -0.012 126.191  0.00  0.00    +0.000 C 
ATOM     35  O   UNL     1      -4.611   0.215 125.479  0.00  0.00    +0.000 OA
ATOM     36  N   UNL     1      -6.759  -0.595 125.711  0.00  0.00    +0.000 N 
BRANCH  36  37
ATOM     37  C   UNL     1      -6.852  -0.894 124.226  0.00  0.00    +0.000 C 
BRANCH  37  38
ATOM     38  C   UNL     1      -7.212   0.332 123.273  0.00  0.00    +0.000 C 
ATOM     39  O   UNL     1      -8.376   0.541 122.912  0.00  0.00    +0.000 OA
ATOM     40  N   UNL     1      -6.308   1.393 123.173  0.00  0.00    +0.000 N 
ATOM     41  H   UNL     1      -5.317   1.269 123.349  0.00  0.00    +0.000 HD
BRANCH  40  42
ATOM     42  C   UNL     1      -6.758   2.796 122.843  0.00  0.00    +0.000 C 
BRANCH  42  43
ATOM     43  C   UNL     1      -6.343   3.128 121.382  0.00  0.00    +0.000 C 
ATOM     44  O   UNL     1      -5.437   2.500 120.834  0.00  0.00    +0.000 OA
ATOM     45  N   UNL     1      -7.014   4.150 120.738  0.00  0.00    +0.000 N 
ATOM     46  H   UNL     1      -7.742   4.657 121.209  0.00  0.00    +0.000 HD
BRANCH  45  47
ATOM     47  C   UNL     1      -6.707   4.530 119.357  0.00  0.00    +0.000 C 
BRANCH  47  48
ATOM     48  C   UNL     1      -5.725   5.710 119.210  0.00  0.00    +0.000 C 
ATOM     49  N   UNL     1      -5.740   6.413 118.030  0.00  0.00    +0.000 N 
ATOM     50  O   UNL     1      -4.949   6.028 120.108  0.00  0.00    +0.000 OA
ATOM     51  H   UNL     1      -6.333   6.233 117.241  0.00  0.00    +0.000 HD
ATOM     52  H   UNL     1      -5.101   7.191 117.916  0.00  0.00    +0.000 HD
ENDBRANCH  47  48
ENDBRANCH  45  47
ENDBRANCH  42  43
BRANCH  42  53
ATOM     53  C   UNL     1      -6.203   3.922 123.770  0.00  0.00    +0.000 C 
BRANCH  53  54
ATOM     54  C   UNL     1      -6.626   3.801 125.219  0.00  0.00    +0.000 C 
ATOM     55  C   UNL     1      -5.575   4.385 126.091  0.00  0.00    +0.000 C 
ATOM     56  C   UNL     1      -7.731   4.697 125.663  0.00  0.00    +0.000 C 
ENDBRANCH  53  54
ENDBRANCH  42  53
ENDBRANCH  40  42
ENDBRANCH  37  38
ENDBRANCH  36  37
BRANCH  36  57
ATOM     57  C   UNL     1      -7.928  -0.908 126.557  0.00  0.00    +0.000 C 
BRANCH  57  58
ATOM     58  C   UNL     1      -9.307  -0.664 126.103  0.00  0.00    +0.000 C 
BRANCH  58  59
ATOM     59  C   UNL     1      -9.804   0.722 125.924  0.00  0.00    +0.000 C 
BRANCH  59  60
ATOM     60  O   UNL     1      -9.142   1.634 126.799  0.00  0.00    +0.000 OA
ATOM     61  H   UNL     1      -8.178   1.498 126.759  0.00  0.00    +0.000 HD
ENDBRANCH  59  60
ENDBRANCH  58  59
ENDBRANCH  57  58
ENDBRANCH  36  57
ENDBRANCH  14  34
BRANCH   1  62
ATOM     62  C   UNL     1      -5.466   4.785 133.235  0.00  0.00    +0.000 C 
ATOM     63  C   UNL     1      -4.983   6.600 132.415  0.00  0.00    +0.000 C 
BRANCH  62  65
ATOM     64  C   UNL     1      -3.775   6.716 135.298  0.00  0.00    +0.000 C 
ATOM     65  C   UNL     1      -4.464   6.234 133.944  0.00  0.00    +0.000 C 
ENDBRANCH  62  65
ENDBRANCH   1  62
BRANCH  18  66
ATOM     66  C   UNL     1      -6.377   0.919 131.505  0.00  0.00    +0.000 C 
BRANCH  66  67
ATOM     67  C   UNL     1      -7.839   0.617 131.312  0.00  0.00    +0.000 C 
ATOM     68  N   UNL     1      -8.178  -0.279 130.361  0.00  0.00    +0.000 N 
ATOM     69  O   UNL     1      -8.710   1.098 132.020  0.00  0.00    +0.000 OA
ATOM     70  H   UNL     1      -7.499  -0.841 129.890  0.00  0.00    +0.000 HD
ATOM     71  H   UNL     1      -9.068  -0.726 130.289  0.00  0.00    +0.000 HD
ENDBRANCH  66  67
ENDBRANCH  18  66
BRANCH   5  72
ATOM     72  C   UNL     1      -2.642  -1.323 135.687  0.00  0.00    +0.000 C 
BRANCH  72  73
ATOM     73  C   UNL     1      -1.406  -2.147 135.375  0.00  0.00    +0.000 A 
ATOM     74  C   UNL     1      -0.837  -3.239 136.131  0.00  0.00    +0.000 A 
ATOM     75  C   UNL     1       0.370  -3.798 135.745  0.00  0.00    +0.000 A 
ATOM     76  C   UNL     1       1.022  -3.222 134.668  0.00  0.00    +0.000 A 
ATOM     77  C   UNL     1       0.561  -2.052 134.076  0.00  0.00    +0.000 A 
ATOM     78  C   UNL     1      -0.628  -1.496 134.449  0.00  0.00    +0.000 A 
BRANCH  76  79
ATOM     79  O   UNL     1       2.138  -3.753 134.103  0.00  0.00    +0.000 OA
ATOM     80  H   UNL     1       2.139  -4.717 134.193  0.00  0.00    +0.000 HD
ENDBRANCH  76  79
ENDBRANCH  72  73
ENDBRANCH   5  72
BRANCH  22  81
ATOM     81  C   UNL     1      -7.996   4.813 131.033  0.00  0.00    +0.000 C 
BRANCH  81  82
ATOM     82  C   UNL     1      -8.363   6.161 131.645  0.00  0.00    +0.000 C 
BRANCH  82  83
ATOM     83  C   UNL     1      -9.870   6.437 131.600  0.00  0.00    +0.000 C 
ATOM     84  N   UNL     1     -10.450   6.768 130.399  0.00  0.00    +0.000 N 
ATOM     85  O   UNL     1     -10.546   6.404 132.627  0.00  0.00    +0.000 OA
ATOM     86  H   UNL     1      -9.967   6.851 129.515  0.00  0.00    +0.000 HD
ATOM     87  H   UNL     1     -11.448   6.914 130.353  0.00  0.00    +0.000 HD
ENDBRANCH  82  83
ENDBRANCH  81  82
ENDBRANCH  22  81
TORSDOF 24
ENDMDL
MODEL 7
REMARK VINA RESULT:      -8.6      2.792      9.523
REMARK  Name = CHEMBL4467042
REMARK  28 active torsions:
REMARK  status: ('A' for Active; 'I' for Inactive)
REMARK    1  A    between atoms: C_1  and  C_2
REMARK    2  A    between atoms: C_2  and  C_3
REMARK    3  A    between atoms: C_3  and  C_4
REMARK    4  A    between atoms: C_3  and  C_5
REMARK    5  A    between atoms: C_9  and  C_10
REMARK    6  A    between atoms: C_10  and  C_11
REMARK    7  A    between atoms: C_14  and  O_15
REMARK    8  A    between atoms: C_21  and  N_22
REMARK    9  A    between atoms: C_27  and  C_28
REMARK   10  A    between atoms: N_30  and  C_31
REMARK   11  A    between atoms: N_30  and  C_35
REMARK   12  A    between atoms: C_31  and  C_32
REMARK   13  A    between atoms: C_32  and  C_33
REMARK   14  A    between atoms: C_33  and  O_34
REMARK   15  A    between atoms: C_35  and  C_36
REMARK   16  A    between atoms: N_38  and  C_39
REMARK   17  A    between atoms: C_39  and  C_40
REMARK   18  A    between atoms: C_39  and  C_44
REMARK   19  A    between atoms: C_40  and  C_41
REMARK   20  A    between atoms: C_41  and  C_42
REMARK   21  A    between atoms: C_41  and  C_43
REMARK   22  A    between atoms: N_46  and  C_47
REMARK   23  A    between atoms: C_47  and  C_48
REMARK   24  A    between atoms: C_54  and  C_55
REMARK   25  A    between atoms: C_55  and  C_56
REMARK   26  A    between atoms: C_62  and  C_63
REMARK   27  A    between atoms: C_63  and  C_64
REMARK   28  A    between atoms: C_64  and  C_65
REMARK                            x       y       z     vdW  Elec       q    Type
REMARK                         _______ _______ _______ _____ _____    ______ ____
ROOT
ATOM      1  C   UNL     1      -7.120   3.988 130.256  0.00  0.00    +0.000 C 
ATOM      2  N   UNL     1      -6.681   2.538 128.781  0.00  0.00    +0.000 N 
ATOM      3  C   UNL     1      -6.131   1.301 127.356  0.00  0.00    +0.000 C 
ATOM      4  O   UNL     1      -5.050   1.259 126.551  0.00  0.00    +0.000 OA
ATOM      5  C   UNL     1      -6.505  -0.690 126.912  0.00  0.00    +0.000 C 
ATOM      6  N   UNL     1      -6.081  -2.093 127.670  0.00  0.00    +0.000 N 
ATOM      7  C   UNL     1      -5.290  -2.165 128.781  0.00  0.00    +0.000 C 
ATOM      8  O   UNL     1      -5.148  -3.177 129.458  0.00  0.00    +0.000 OA
ATOM      9  C   UNL     1      -4.599  -0.928 129.241  0.00  0.00    +0.000 C 
ATOM     10  C   UNL     1      -5.352  -0.165 130.263  0.00  0.00    +0.000 C 
ATOM     11  C   UNL     1      -4.811  -1.000 131.347  0.00  0.00    +0.000 C 
ATOM     12  S   UNL     1      -5.679  -0.812 132.758  0.00  0.00    +0.000 S 
ATOM     13  C   UNL     1      -4.739  -1.119 134.266  0.00  0.00    +0.000 C 
ATOM     14  C   UNL     1      -5.517  -0.404 135.560  0.00  0.00    +0.000 C 
ATOM     15  N   UNL     1      -5.221   1.001 135.710  0.00  0.00    +0.000 N 
ATOM     16  C   UNL     1      -5.491   1.980 134.819  0.00  0.00    +0.000 C 
ATOM     17  O   UNL     1      -4.839   3.005 135.001  0.00  0.00    +0.000 OA
ATOM     18  C   UNL     1      -6.271   1.608 133.532  0.00  0.00    +0.000 C 
ATOM     19  N   UNL     1      -7.514   1.867 133.033  0.00  0.00    +0.000 N 
ATOM     20  C   UNL     1      -7.391   2.971 132.347  0.00  0.00    +0.000 C 
ATOM     21  O   UNL     1      -8.572   3.013 131.871  0.00  0.00    +0.000 OA
ATOM     22  C   UNL     1      -5.974   4.371 132.825  0.00  0.00    +0.000 C 
ATOM     23  N   UNL     1      -5.534   5.275 131.699  0.00  0.00    +0.000 N 
ATOM     24  C   UNL     1      -6.373   5.465 130.607  0.00  0.00    +0.000 C 
ATOM     25  O   UNL     1      -6.791   6.604 130.350  0.00  0.00    +0.000 OA
ATOM     26  H   UNL     1      -5.985   2.814 127.865  0.00  0.00    +0.000 HD
ATOM     27  H   UNL     1      -6.424  -3.067 127.445  0.00  0.00    +0.000 HD
ATOM     28  H   UNL     1      -4.661   1.295 136.502  0.00  0.00    +0.000 HD
ATOM     29  H   UNL     1      -8.483   1.746 133.379  0.00  0.00    +0.000 HD
ATOM     30  H   UNL     1      -4.794   4.828 131.239  0.00  0.00    +0.000 HD
ENDROOT
BRANCH   9  31
ATOM     31  N   UNL     1      -4.770   0.066 128.352  0.00  0.00    +0.000 NA
ATOM     32  H   UNL     1      -4.672  -0.571 127.561  0.00  0.00    +0.000 HD
ATOM     33  H   UNL     1      -3.958   0.674 128.357  0.00  0.00    +0.000 HD
ENDBRANCH   9  31
BRANCH  14  34
ATOM     34  C   UNL     1      -5.173  -1.201 136.821  0.00  0.00    +0.000 C 
ATOM     35  O   UNL     1      -4.205  -0.859 137.500  0.00  0.00    +0.000 OA
ATOM     36  N   UNL     1      -5.984  -2.285 137.145  0.00  0.00    +0.000 N 
BRANCH  36  37
ATOM     37  C   UNL     1      -5.607  -3.126 138.352  0.00  0.00    +0.000 C 
BRANCH  37  38
ATOM     38  C   UNL     1      -4.511  -4.258 138.116  0.00  0.00    +0.000 C 
ATOM     39  O   UNL     1      -4.560  -5.332 138.728  0.00  0.00    +0.000 OA
ATOM     40  N   UNL     1      -3.741  -4.217 136.951  0.00  0.00    +0.000 N 
ATOM     41  H   UNL     1      -3.568  -3.350 136.456  0.00  0.00    +0.000 HD
BRANCH  40  42
ATOM     42  C   UNL     1      -3.161  -5.467 136.334  0.00  0.00    +0.000 C 
BRANCH  42  43
ATOM     43  C   UNL     1      -1.643  -5.247 136.080  0.00  0.00    +0.000 C 
ATOM     44  O   UNL     1      -0.941  -6.169 135.666  0.00  0.00    +0.000 OA
ATOM     45  N   UNL     1      -1.120  -3.996 136.347  0.00  0.00    +0.000 N 
ATOM     46  H   UNL     1      -1.709  -3.262 136.696  0.00  0.00    +0.000 HD
BRANCH  45  47
ATOM     47  C   UNL     1       0.295  -3.684 136.127  0.00  0.00    +0.000 C 
BRANCH  47  48
ATOM     48  C   UNL     1       0.632  -3.152 134.720  0.00  0.00    +0.000 C 
ATOM     49  N   UNL     1       1.749  -3.651 134.097  0.00  0.00    +0.000 N 
ATOM     50  O   UNL     1      -0.066  -2.311 134.157  0.00  0.00    +0.000 OA
ATOM     51  H   UNL     1       2.380  -4.335 134.471  0.00  0.00    +0.000 HD
ATOM     52  H   UNL     1       1.987  -3.311 133.172  0.00  0.00    +0.000 HD
ENDBRANCH  47  48
ENDBRANCH  45  47
ENDBRANCH  42  43
BRANCH  42  53
ATOM     53  C   UNL     1      -3.814  -5.927 134.993  0.00  0.00    +0.000 C 
BRANCH  53  54
ATOM     54  C   UNL     1      -4.416  -4.804 134.176  0.00  0.00    +0.000 C 
ATOM     55  C   UNL     1      -3.482  -4.434 133.081  0.00  0.00    +0.000 C 
ATOM     56  C   UNL     1      -5.567  -5.165 133.300  0.00  0.00    +0.000 C 
ENDBRANCH  53  54
ENDBRANCH  42  53
ENDBRANCH  40  42
ENDBRANCH  37  38
ENDBRANCH  36  37
BRANCH  36  57
ATOM     57  C   UNL     1      -7.171  -2.687 136.363  0.00  0.00    +0.000 C 
BRANCH  57  58
ATOM     58  C   UNL     1      -7.524  -4.100 136.153  0.00  0.00    +0.000 C 
BRANCH  58  59
ATOM     59  C   UNL     1      -8.693  -4.465 135.317  0.00  0.00    +0.000 C 
BRANCH  59  60
ATOM     60  O   UNL     1      -8.791  -3.636 134.160  0.00  0.00    +0.000 OA
ATOM     61  H   UNL     1      -9.355  -4.061 133.488  0.00  0.00    +0.000 HD
ENDBRANCH  59  60
ENDBRANCH  58  59
ENDBRANCH  57  58
ENDBRANCH  36  57
ENDBRANCH  14  34
BRANCH   1  62
ATOM     62  C   UNL     1      -8.178   5.088 131.915  0.00  0.00    +0.000 C 
ATOM     63  C   UNL     1      -9.418   6.055 133.230  0.00  0.00    +0.000 C 
BRANCH  62  65
ATOM     64  C   UNL     1     -11.242   6.296 131.912  0.00  0.00    +0.000 C 
ATOM     65  C   UNL     1      -9.681   6.205 131.602  0.00  0.00    +0.000 C 
ENDBRANCH  62  65
ENDBRANCH   1  62
BRANCH  18  66
ATOM     66  C   UNL     1      -5.356   1.821 132.286  0.00  0.00    +0.000 C 
BRANCH  66  67
ATOM     67  C   UNL     1      -3.927   2.227 132.527  0.00  0.00    +0.000 C 
ATOM     68  N   UNL     1      -3.127   1.359 133.180  0.00  0.00    +0.000 N 
ATOM     69  O   UNL     1      -3.458   3.271 132.100  0.00  0.00    +0.000 OA
ATOM     70  H   UNL     1      -3.405   0.420 133.378  0.00  0.00    +0.000 HD
ATOM     71  H   UNL     1      -2.129   1.407 133.201  0.00  0.00    +0.000 HD
ENDBRANCH  66  67
ENDBRANCH  18  66
BRANCH   5  72
ATOM     72  C   UNL     1      -7.821  -0.284 127.192  0.00  0.00    +0.000 C 
BRANCH  72  73
ATOM     73  C   UNL     1      -8.515  -1.267 126.266  0.00  0.00    +0.000 A 
ATOM     74  C   UNL     1      -8.978  -2.605 126.556  0.00  0.00    +0.000 A 
ATOM     75  C   UNL     1      -9.488  -3.399 125.541  0.00  0.00    +0.000 A 
ATOM     76  C   UNL     1      -9.464  -2.884 124.257  0.00  0.00    +0.000 A 
ATOM     77  C   UNL     1      -8.837  -1.678 123.966  0.00  0.00    +0.000 A 
ATOM     78  C   UNL     1      -8.333  -0.889 124.959  0.00  0.00    +0.000 A 
BRANCH  76  79
ATOM     79  O   UNL     1     -10.054  -3.497 123.198  0.00  0.00    +0.000 OA
ATOM     80  H   UNL     1     -10.602  -4.239 123.496  0.00  0.00    +0.000 HD
ENDBRANCH  76  79
ENDBRANCH  72  73
ENDBRANCH   5  72
BRANCH  22  81
ATOM     81  C   UNL     1      -5.826   5.547 134.262  0.00  0.00    +0.000 C 
BRANCH  81  82
ATOM     82  C   UNL     1      -6.834   5.630 135.404  0.00  0.00    +0.000 C 
BRANCH  82  83
ATOM     83  C   UNL     1      -6.163   5.820 136.769  0.00  0.00    +0.000 C 
ATOM     84  N   UNL     1      -5.511   4.755 137.342  0.00  0.00    +0.000 N 
ATOM     85  O   UNL     1      -6.238   6.894 137.362  0.00  0.00    +0.000 OA
ATOM     86  H   UNL     1      -5.428   3.830 136.943  0.00  0.00    +0.000 HD
ATOM     87  H   UNL     1      -5.033   4.881 138.223  0.00  0.00    +0.000 HD
ENDBRANCH  82  83
ENDBRANCH  81  82
ENDBRANCH  22  81
TORSDOF 24
ENDMDL
MODEL 8
REMARK VINA RESULT:      -8.3      1.947      4.049
REMARK  Name = CHEMBL4467042
REMARK  28 active torsions:
REMARK  status: ('A' for Active; 'I' for Inactive)
REMARK    1  A    between atoms: C_1  and  C_2
REMARK    2  A    between atoms: C_2  and  C_3
REMARK    3  A    between atoms: C_3  and  C_4
REMARK    4  A    between atoms: C_3  and  C_5
REMARK    5  A    between atoms: C_9  and  C_10
REMARK    6  A    between atoms: C_10  and  C_11
REMARK    7  A    between atoms: C_14  and  O_15
REMARK    8  A    between atoms: C_21  and  N_22
REMARK    9  A    between atoms: C_27  and  C_28
REMARK   10  A    between atoms: N_30  and  C_31
REMARK   11  A    between atoms: N_30  and  C_35
REMARK   12  A    between atoms: C_31  and  C_32
REMARK   13  A    between atoms: C_32  and  C_33
REMARK   14  A    between atoms: C_33  and  O_34
REMARK   15  A    between atoms: C_35  and  C_36
REMARK   16  A    between atoms: N_38  and  C_39
REMARK   17  A    between atoms: C_39  and  C_40
REMARK   18  A    between atoms: C_39  and  C_44
REMARK   19  A    between atoms: C_40  and  C_41
REMARK   20  A    between atoms: C_41  and  C_42
REMARK   21  A    between atoms: C_41  and  C_43
REMARK   22  A    between atoms: N_46  and  C_47
REMARK   23  A    between atoms: C_47  and  C_48
REMARK   24  A    between atoms: C_54  and  C_55
REMARK   25  A    between atoms: C_55  and  C_56
REMARK   26  A    between atoms: C_62  and  C_63
REMARK   27  A    between atoms: C_63  and  C_64
REMARK   28  A    between atoms: C_64  and  C_65
REMARK                            x       y       z     vdW  Elec       q    Type
REMARK                         _______ _______ _______ _____ _____    ______ ____
ROOT
ATOM      1  C   UNL     1      -5.246   3.722 134.863  0.00  0.00    +0.000 C 
ATOM      2  N   UNL     1      -5.020   1.880 135.877  0.00  0.00    +0.000 N 
ATOM      3  C   UNL     1      -4.956   0.218 136.925  0.00  0.00    +0.000 C 
ATOM      4  O   UNL     1      -5.792  -0.317 137.839  0.00  0.00    +0.000 OA
ATOM      5  C   UNL     1      -4.077  -1.644 136.679  0.00  0.00    +0.000 C 
ATOM      6  N   UNL     1      -4.353  -2.866 135.606  0.00  0.00    +0.000 N 
ATOM      7  C   UNL     1      -5.342  -2.861 134.664  0.00  0.00    +0.000 C 
ATOM      8  O   UNL     1      -5.415  -3.667 133.742  0.00  0.00    +0.000 OA
ATOM      9  C   UNL     1      -6.367  -1.781 134.715  0.00  0.00    +0.000 C 
ATOM     10  C   UNL     1      -6.045  -0.609 133.870  0.00  0.00    +0.000 C 
ATOM     11  C   UNL     1      -6.627  -1.252 132.681  0.00  0.00    +0.000 C 
ATOM     12  S   UNL     1      -6.161  -0.484 131.277  0.00  0.00    +0.000 S 
ATOM     13  C   UNL     1      -7.331  -0.635 129.913  0.00  0.00    +0.000 C 
ATOM     14  C   UNL     1      -7.037   0.569 128.794  0.00  0.00    +0.000 C 
ATOM     15  N   UNL     1      -7.652   1.832 129.126  0.00  0.00    +0.000 N 
ATOM     16  C   UNL     1      -7.401   2.587 130.218  0.00  0.00    +0.000 C 
ATOM     17  O   UNL     1      -8.280   3.409 130.461  0.00  0.00    +0.000 OA
ATOM     18  C   UNL     1      -6.289   2.121 131.193  0.00  0.00    +0.000 C 
ATOM     19  N   UNL     1      -5.049   2.568 131.547  0.00  0.00    +0.000 N 
ATOM     20  C   UNL     1      -5.245   3.384 132.547  0.00  0.00    +0.000 C 
ATOM     21  O   UNL     1      -4.023   3.619 132.822  0.00  0.00    +0.000 OA
ATOM     22  C   UNL     1      -6.998   4.427 132.744  0.00  0.00    +0.000 C 
ATOM     23  N   UNL     1      -7.354   4.859 134.146  0.00  0.00    +0.000 N 
ATOM     24  C   UNL     1      -6.349   4.982 135.099  0.00  0.00    +0.000 C 
ATOM     25  O   UNL     1      -6.136   6.086 135.622  0.00  0.00    +0.000 OA
ATOM     26  H   UNL     1      -5.532   1.714 136.930  0.00  0.00    +0.000 HD
ATOM     27  H   UNL     1      -3.769  -3.736 135.468  0.00  0.00    +0.000 HD
ATOM     28  H   UNL     1      -8.426   2.158 128.559  0.00  0.00    +0.000 HD
ATOM     29  H   UNL     1      -4.181   2.805 131.033  0.00  0.00    +0.000 HD
ATOM     30  H   UNL     1      -7.858   4.128 134.559  0.00  0.00    +0.000 HD
ENDROOT
BRANCH   9  31
ATOM     31  N   UNL     1      -6.213  -1.039 135.826  0.00  0.00    +0.000 NA
ATOM     32  H   UNL     1      -6.054  -0.189 135.286  0.00  0.00    +0.000 HD
ATOM     33  H   UNL     1      -5.338  -1.280 136.280  0.00  0.00    +0.000 HD
ENDBRANCH   9  31
BRANCH  14  34
ATOM     34  C   UNL     1      -7.481   0.059 127.420  0.00  0.00    +0.000 C 
ATOM     35  O   UNL     1      -8.545   0.459 126.947  0.00  0.00    +0.000 OA
ATOM     36  N   UNL     1      -6.647  -0.841 126.761  0.00  0.00    +0.000 N 
BRANCH  36  37
ATOM     37  C   UNL     1      -7.114  -1.408 125.433  0.00  0.00    +0.000 C 
BRANCH  37  38
ATOM     38  C   UNL     1      -6.818  -0.527 124.138  0.00  0.00    +0.000 C 
ATOM     39  O   UNL     1      -6.995  -0.982 123.002  0.00  0.00    +0.000 OA
ATOM     40  N   UNL     1      -6.751   0.862 124.271  0.00  0.00    +0.000 N 
ATOM     41  H   UNL     1      -6.503   1.303 125.149  0.00  0.00    +0.000 HD
BRANCH  40  42
ATOM     42  C   UNL     1      -7.088   1.789 123.128  0.00  0.00    +0.000 C 
BRANCH  42  43
ATOM     43  C   UNL     1      -6.423   3.171 123.387  0.00  0.00    +0.000 C 
ATOM     44  O   UNL     1      -6.226   3.951 122.455  0.00  0.00    +0.000 OA
ATOM     45  N   UNL     1      -6.055   3.476 124.683  0.00  0.00    +0.000 N 
ATOM     46  H   UNL     1      -6.215   2.820 125.425  0.00  0.00    +0.000 HD
BRANCH  45  47
ATOM     47  C   UNL     1      -5.435   4.758 125.032  0.00  0.00    +0.000 C 
BRANCH  47  48
ATOM     48  C   UNL     1      -5.014   4.895 126.508  0.00  0.00    +0.000 C 
ATOM     49  N   UNL     1      -4.945   3.751 127.265  0.00  0.00    +0.000 N 
ATOM     50  O   UNL     1      -4.743   5.984 127.010  0.00  0.00    +0.000 OA
ATOM     51  H   UNL     1      -5.146   2.820 126.949  0.00  0.00    +0.000 HD
ATOM     52  H   UNL     1      -4.671   3.823 128.238  0.00  0.00    +0.000 HD
ENDBRANCH  47  48
ENDBRANCH  45  47
ENDBRANCH  42  43
BRANCH  42  53
ATOM     53  C   UNL     1      -8.610   2.026 122.873  0.00  0.00    +0.000 C 
BRANCH  53  54
ATOM     54  C   UNL     1      -9.507   0.922 123.390  0.00  0.00    +0.000 C 
ATOM     55  C   UNL     1     -10.629   1.517 124.160  0.00  0.00    +0.000 C 
ATOM     56  C   UNL     1     -10.350   0.224 122.378  0.00  0.00    +0.000 C 
ENDBRANCH  53  54
ENDBRANCH  42  53
ENDBRANCH  40  42
ENDBRANCH  37  38
ENDBRANCH  36  37
BRANCH  36  57
ATOM     57  C   UNL     1      -5.350  -1.302 127.295  0.00  0.00    +0.000 C 
BRANCH  57  58
ATOM     58  C   UNL     1      -5.181  -2.641 127.884  0.00  0.00    +0.000 C 
BRANCH  58  59
ATOM     59  C   UNL     1      -4.247  -2.851 129.016  0.00  0.00    +0.000 C 
BRANCH  59  60
ATOM     60  O   UNL     1      -4.817  -3.691 130.018  0.00  0.00    +0.000 OA
ATOM     61  H   UNL     1      -4.124  -3.999 130.631  0.00  0.00    +0.000 HD
ENDBRANCH  59  60
ENDBRANCH  58  59
ENDBRANCH  57  58
ENDBRANCH  36  57
ENDBRANCH  14  34
BRANCH   1  62
ATOM     62  C   UNL     1      -4.849   5.451 133.473  0.00  0.00    +0.000 C 
ATOM     63  C   UNL     1      -4.164   6.987 132.301  0.00  0.00    +0.000 C 
BRANCH  62  65
ATOM     64  C   UNL     1      -2.684   7.895 133.039  0.00  0.00    +0.000 C 
ATOM     65  C   UNL     1      -3.431   6.682 133.755  0.00  0.00    +0.000 C 
ENDBRANCH  62  65
ENDBRANCH   1  62
BRANCH  18  66
ATOM     66  C   UNL     1      -6.921   1.754 132.571  0.00  0.00    +0.000 C 
BRANCH  66  67
ATOM     67  C   UNL     1      -8.420   1.817 132.694  0.00  0.00    +0.000 C 
ATOM     68  N   UNL     1      -9.148   0.942 131.970  0.00  0.00    +0.000 N 
ATOM     69  O   UNL     1      -8.987   2.576 133.464  0.00  0.00    +0.000 OA
ATOM     70  H   UNL     1      -8.732   0.178 131.477  0.00  0.00    +0.000 HD
ATOM     71  H   UNL     1     -10.112   0.731 132.130  0.00  0.00    +0.000 HD
ENDBRANCH  66  67
ENDBRANCH  18  66
BRANCH   5  72
ATOM     72  C   UNL     1      -2.975  -0.842 136.334  0.00  0.00    +0.000 C 
BRANCH  72  73
ATOM     73  C   UNL     1      -1.968  -1.968 136.192  0.00  0.00    +0.000 A 
ATOM     74  C   UNL     1      -1.530  -2.915 137.191  0.00  0.00    +0.000 A 
ATOM     75  C   UNL     1      -0.508  -3.806 136.903  0.00  0.00    +0.000 A 
ATOM     76  C   UNL     1       0.103  -3.696 135.666  0.00  0.00    +0.000 A 
ATOM     77  C   UNL     1      -0.197  -2.655 134.794  0.00  0.00    +0.000 A 
ATOM     78  C   UNL     1      -1.202  -1.774 135.069  0.00  0.00    +0.000 A 
BRANCH  76  79
ATOM     79  O   UNL     1       1.018  -4.589 135.205  0.00  0.00    +0.000 OA
ATOM     80  H   UNL     1       1.430  -4.264 134.391  0.00  0.00    +0.000 HD
ENDBRANCH  76  79
ENDBRANCH  72  73
ENDBRANCH   5  72
BRANCH  22  81
ATOM     81  C   UNL     1      -7.715   5.846 131.775  0.00  0.00    +0.000 C 
BRANCH  81  82
ATOM     82  C   UNL     1      -9.176   6.279 131.850  0.00  0.00    +0.000 C 
BRANCH  82  83
ATOM     83  C   UNL     1      -9.735   6.706 130.489  0.00  0.00    +0.000 C 
ATOM     84  N   UNL     1     -11.026   7.169 130.417  0.00  0.00    +0.000 N 
ATOM     85  O   UNL     1      -9.056   6.600 129.469  0.00  0.00    +0.000 OA
ATOM     86  H   UNL     1     -11.665   7.258 131.195  0.00  0.00    +0.000 HD
ATOM     87  H   UNL     1     -11.391   7.489 129.531  0.00  0.00    +0.000 HD
ENDBRANCH  82  83
ENDBRANCH  81  82
ENDBRANCH  22  81
TORSDOF 24
ENDMDL
MODEL 9
REMARK VINA RESULT:      -8.1      2.477      4.838
REMARK  Name = CHEMBL4467042
REMARK  28 active torsions:
REMARK  status: ('A' for Active; 'I' for Inactive)
REMARK    1  A    between atoms: C_1  and  C_2
REMARK    2  A    between atoms: C_2  and  C_3
REMARK    3  A    between atoms: C_3  and  C_4
REMARK    4  A    between atoms: C_3  and  C_5
REMARK    5  A    between atoms: C_9  and  C_10
REMARK    6  A    between atoms: C_10  and  C_11
REMARK    7  A    between atoms: C_14  and  O_15
REMARK    8  A    between atoms: C_21  and  N_22
REMARK    9  A    between atoms: C_27  and  C_28
REMARK   10  A    between atoms: N_30  and  C_31
REMARK   11  A    between atoms: N_30  and  C_35
REMARK   12  A    between atoms: C_31  and  C_32
REMARK   13  A    between atoms: C_32  and  C_33
REMARK   14  A    between atoms: C_33  and  O_34
REMARK   15  A    between atoms: C_35  and  C_36
REMARK   16  A    between atoms: N_38  and  C_39
REMARK   17  A    between atoms: C_39  and  C_40
REMARK   18  A    between atoms: C_39  and  C_44
REMARK   19  A    between atoms: C_40  and  C_41
REMARK   20  A    between atoms: C_41  and  C_42
REMARK   21  A    between atoms: C_41  and  C_43
REMARK   22  A    between atoms: N_46  and  C_47
REMARK   23  A    between atoms: C_47  and  C_48
REMARK   24  A    between atoms: C_54  and  C_55
REMARK   25  A    between atoms: C_55  and  C_56
REMARK   26  A    between atoms: C_62  and  C_63
REMARK   27  A    between atoms: C_63  and  C_64
REMARK   28  A    between atoms: C_64  and  C_65
REMARK                            x       y       z     vdW  Elec       q    Type
REMARK                         _______ _______ _______ _____ _____    ______ ____
ROOT
ATOM      1  C   UNL     1      -6.364   2.420 134.106  0.00  0.00    +0.000 C 
ATOM      2  N   UNL     1      -5.632   0.658 135.017  0.00  0.00    +0.000 N 
ATOM      3  C   UNL     1      -5.122  -1.003 135.937  0.00  0.00    +0.000 C 
ATOM      4  O   UNL     1      -5.840  -1.943 136.587  0.00  0.00    +0.000 OA
ATOM      5  C   UNL     1      -3.551  -2.348 135.781  0.00  0.00    +0.000 C 
ATOM      6  N   UNL     1      -3.112  -3.405 134.594  0.00  0.00    +0.000 N 
ATOM      7  C   UNL     1      -3.820  -3.620 133.445  0.00  0.00    +0.000 C 
ATOM      8  O   UNL     1      -3.391  -4.243 132.480  0.00  0.00    +0.000 OA
ATOM      9  C   UNL     1      -5.177  -3.014 133.325  0.00  0.00    +0.000 C 
ATOM     10  C   UNL     1      -5.185  -1.691 132.661  0.00  0.00    +0.000 C 
ATOM     11  C   UNL     1      -5.226  -2.312 131.328  0.00  0.00    +0.000 C 
ATOM     12  S   UNL     1      -4.839  -1.220 130.130  0.00  0.00    +0.000 S 
ATOM     13  C   UNL     1      -5.568  -1.579 128.519  0.00  0.00    +0.000 C 
ATOM     14  C   UNL     1      -5.561  -0.195 127.586  0.00  0.00    +0.000 C 
ATOM     15  N   UNL     1      -6.675   0.686 127.847  0.00  0.00    +0.000 N 
ATOM     16  C   UNL     1      -6.958   1.302 129.016  0.00  0.00    +0.000 C 
ATOM     17  O   UNL     1      -8.118   1.694 129.098  0.00  0.00    +0.000 OA
ATOM     18  C   UNL     1      -5.963   1.134 130.193  0.00  0.00    +0.000 C 
ATOM     19  N   UNL     1      -5.093   1.946 130.861  0.00  0.00    +0.000 N 
ATOM     20  C   UNL     1      -5.784   2.468 131.839  0.00  0.00    +0.000 C 
ATOM     21  O   UNL     1      -4.831   3.091 132.411  0.00  0.00    +0.000 OA
ATOM     22  C   UNL     1      -7.807   2.748 131.684  0.00  0.00    +0.000 C 
ATOM     23  N   UNL     1      -8.568   2.796 132.987  0.00  0.00    +0.000 N 
ATOM     24  C   UNL     1      -7.897   3.133 134.157  0.00  0.00    +0.000 C 
ATOM     25  O   UNL     1      -8.241   4.142 134.789  0.00  0.00    +0.000 OA
ATOM     26  H   UNL     1      -6.230   0.156 135.905  0.00  0.00    +0.000 HD
ATOM     27  H   UNL     1      -2.217  -3.966 134.540  0.00  0.00    +0.000 HD
ATOM     28  H   UNL     1      -7.390   0.787 127.135  0.00  0.00    +0.000 HD
ATOM     29  H   UNL     1      -4.307   2.562 130.586  0.00  0.00    +0.000 HD
ATOM     30  H   UNL     1      -8.813   1.877 133.217  0.00  0.00    +0.000 HD
ENDROOT
BRANCH   9  31
ATOM     31  N   UNL     1      -5.545  -2.450 134.488  0.00  0.00    +0.000 NA
ATOM     32  H   UNL     1      -6.394  -3.012 134.539  0.00  0.00    +0.000 HD
ATOM     33  H   UNL     1      -5.824  -1.488 134.328  0.00  0.00    +0.000 HD
ENDBRANCH   9  31
BRANCH  14  34
ATOM     34  C   UNL     1      -5.494  -0.613 126.115  0.00  0.00    +0.000 C 
ATOM     35  O   UNL     1      -4.614  -0.140 125.396  0.00  0.00    +0.000 OA
ATOM     36  N   UNL     1      -6.443  -1.523 125.655  0.00  0.00    +0.000 N 
BRANCH  36  37
ATOM     37  C   UNL     1      -6.431  -1.887 124.182  0.00  0.00    +0.000 C 
BRANCH  37  38
ATOM     38  C   UNL     1      -7.000  -0.792 123.173  0.00  0.00    +0.000 C 
ATOM     39  O   UNL     1      -8.009  -1.012 122.494  0.00  0.00    +0.000 OA
ATOM     40  N   UNL     1      -6.617   0.541 123.343  0.00  0.00    +0.000 N 
ATOM     41  H   UNL     1      -5.746   0.793 123.795  0.00  0.00    +0.000 HD
BRANCH  40  42
ATOM     42  C   UNL     1      -7.499   1.686 122.905  0.00  0.00    +0.000 C 
BRANCH  42  43
ATOM     43  C   UNL     1      -6.607   2.922 122.599  0.00  0.00    +0.000 C 
ATOM     44  O   UNL     1      -6.563   3.867 123.386  0.00  0.00    +0.000 OA
ATOM     45  N   UNL     1      -5.888   2.922 121.419  0.00  0.00    +0.000 N 
ATOM     46  H   UNL     1      -5.948   2.144 120.787  0.00  0.00    +0.000 HD
BRANCH  45  47
ATOM     47  C   UNL     1      -5.008   4.033 121.047  0.00  0.00    +0.000 C 
BRANCH  47  48
ATOM     48  C   UNL     1      -5.596   5.008 120.008  0.00  0.00    +0.000 C 
ATOM     49  N   UNL     1      -6.702   4.601 119.302  0.00  0.00    +0.000 N 
ATOM     50  O   UNL     1      -5.108   6.118 119.806  0.00  0.00    +0.000 OA
ATOM     51  H   UNL     1      -7.171   3.720 119.393  0.00  0.00    +0.000 HD
ATOM     52  H   UNL     1      -7.101   5.229 118.614  0.00  0.00    +0.000 HD
ENDBRANCH  47  48
ENDBRANCH  45  47
ENDBRANCH  42  43
BRANCH  42  53
ATOM     53  C   UNL     1      -8.598   2.123 123.923  0.00  0.00    +0.000 C 
BRANCH  53  54
ATOM     54  C   UNL     1      -9.556   1.019 124.318  0.00  0.00    +0.000 C 
ATOM     55  C   UNL     1      -9.580   0.894 125.798  0.00  0.00    +0.000 C 
ATOM     56  C   UNL     1     -11.008   1.311 124.150  0.00  0.00    +0.000 C 
ENDBRANCH  53  54
ENDBRANCH  42  53
ENDBRANCH  40  42
ENDBRANCH  37  38
ENDBRANCH  36  37
BRANCH  36  57
ATOM     57  C   UNL     1      -7.482  -2.129 126.511  0.00  0.00    +0.000 C 
BRANCH  57  58
ATOM     58  C   UNL     1      -8.589  -2.922 125.951  0.00  0.00    +0.000 C 
BRANCH  58  59
ATOM     59  C   UNL     1      -9.505  -3.669 126.847  0.00  0.00    +0.000 C 
BRANCH  59  60
ATOM     60  O   UNL     1      -9.012  -3.713 128.184  0.00  0.00    +0.000 OA
ATOM     61  H   UNL     1      -8.189  -4.234 128.222  0.00  0.00    +0.000 HD
ENDBRANCH  59  60
ENDBRANCH  58  59
ENDBRANCH  57  58
ENDBRANCH  36  57
ENDBRANCH  14  34
BRANCH   1  62
ATOM     62  C   UNL     1      -6.420   4.366 132.970  0.00  0.00    +0.000 C 
ATOM     63  C   UNL     1      -6.156   6.181 132.055  0.00  0.00    +0.000 C 
BRANCH  62  65
ATOM     64  C   UNL     1      -4.666   6.479 134.788  0.00  0.00    +0.000 C 
ATOM     65  C   UNL     1      -5.450   5.901 133.527  0.00  0.00    +0.000 C 
ENDBRANCH  62  65
ENDBRANCH   1  62
BRANCH  18  66
ATOM     66  C   UNL     1      -6.653   0.353 131.354  0.00  0.00    +0.000 C 
BRANCH  66  67
ATOM     67  C   UNL     1      -8.024  -0.214 131.100  0.00  0.00    +0.000 C 
ATOM     68  N   UNL     1      -8.150  -1.153 130.140  0.00  0.00    +0.000 N 
ATOM     69  O   UNL     1      -8.999   0.095 131.768  0.00  0.00    +0.000 OA
ATOM     70  H   UNL     1      -7.359  -1.578 129.700  0.00  0.00    +0.000 HD
ATOM     71  H   UNL     1      -8.938  -1.757 130.031  0.00  0.00    +0.000 HD
ENDBRANCH  66  67
ENDBRANCH  18  66
BRANCH   5  72
ATOM     72  C   UNL     1      -2.811  -1.154 135.763  0.00  0.00    +0.000 C 
BRANCH  72  73
ATOM     73  C   UNL     1      -1.488  -1.754 136.201  0.00  0.00    +0.000 A 
ATOM     74  C   UNL     1      -0.353  -2.126 135.386  0.00  0.00    +0.000 A 
ATOM     75  C   UNL     1       0.731  -2.772 135.958  0.00  0.00    +0.000 A 
ATOM     76  C   UNL     1       0.642  -3.099 137.300  0.00  0.00    +0.000 A 
ATOM     77  C   UNL     1      -0.532  -2.910 138.021  0.00  0.00    +0.000 A 
ATOM     78  C   UNL     1      -1.604  -2.274 137.466  0.00  0.00    +0.000 A 
BRANCH  76  79
ATOM     79  O   UNL     1       1.681  -3.606 138.013  0.00  0.00    +0.000 OA
ATOM     80  H   UNL     1       1.361  -4.215 138.695  0.00  0.00    +0.000 HD
ENDBRANCH  76  79
ENDBRANCH  72  73
ENDBRANCH   5  72
BRANCH  22  81
ATOM     81  C   UNL     1      -8.823   3.934 130.670  0.00  0.00    +0.000 C 
BRANCH  81  82
ATOM     82  C   UNL     1     -10.324   3.791 130.439  0.00  0.00    +0.000 C 
BRANCH  82  83
ATOM     83  C   UNL     1     -11.046   5.142 130.397  0.00  0.00    +0.000 C 
ATOM     84  N   UNL     1     -11.520   5.679 131.570  0.00  0.00    +0.000 N 
ATOM     85  O   UNL     1     -11.234   5.721 129.329  0.00  0.00    +0.000 OA
ATOM     86  H   UNL     1     -11.441   5.258 132.485  0.00  0.00    +0.000 HD
ATOM     87  H   UNL     1     -11.963   6.586 131.557  0.00  0.00    +0.000 HD
ENDBRANCH  82  83
ENDBRANCH  81  82
ENDBRANCH  22  81
TORSDOF 24
ENDMDL
