MODEL 1
REMARK VINA RESULT:     -11.4      0.000      0.000
REMARK  Name = CHEMBL3813858
REMARK  25 active torsions:
REMARK  status: ('A' for Active; 'I' for Inactive)
REMARK    1  A    between atoms: C_1  and  C_2
REMARK    2  A    between atoms: C_2  and  C_3
REMARK    3  A    between atoms: C_3  and  C_4
REMARK    4  A    between atoms: C_3  and  C_5
REMARK    5  A    between atoms: C_9  and  C_10
REMARK    6  A    between atoms: C_10  and  C_11
REMARK    7  A    between atoms: C_14  and  O_15
REMARK    8  A    between atoms: C_21  and  N_22
REMARK    9  A    between atoms: C_27  and  C_28
REMARK   10  A    between atoms: C_34  and  C_35
REMARK   11  A    between atoms: N_37  and  C_38
REMARK   12  A    between atoms: N_37  and  C_39
REMARK   13  A    between atoms: C_39  and  C_40
REMARK   14  A    between atoms: C_39  and  C_44
REMARK   15  A    between atoms: C_40  and  C_41
REMARK   16  A    between atoms: C_41  and  C_42
REMARK   17  A    between atoms: C_41  and  C_43
REMARK   18  A    between atoms: N_46  and  C_47
REMARK   19  A    between atoms: C_47  and  C_48
REMARK   20  A    between atoms: N_51  and  C_52
REMARK   21  A    between atoms: C_55  and  C_56
REMARK   22  A    between atoms: C_56  and  C_57
REMARK   23  A    between atoms: C_63  and  C_64
REMARK   24  A    between atoms: C_64  and  C_65
REMARK   25  A    between atoms: C_65  and  C_66
REMARK                            x       y       z     vdW  Elec       q    Type
REMARK                         _______ _______ _______ _____ _____    ______ ____
ROOT
ATOM      1  C   UNL     1      -4.175   2.109 132.102  0.00  0.00    +0.000 C 
ATOM      2  N   UNL     1      -3.103   4.360 133.475  0.00  0.00    +0.000 N 
ATOM      3  C   UNL     1      -2.206   6.604 134.782  0.00  0.00    +0.000 C 
ATOM      4  O   UNL     1      -1.116   7.671 135.863  0.00  0.00    +0.000 OA
ATOM      5  C   UNL     1      -2.186   9.151 135.957  0.00  0.00    +0.000 C 
ATOM      6  N   UNL     1      -2.476  10.789 135.475  0.00  0.00    +0.000 N 
ATOM      7  C   UNL     1      -2.386   9.727 134.704  0.00  0.00    +0.000 C 
ATOM      8  O   UNL     1      -2.453   9.628 133.523  0.00  0.00    +0.000 OA
ATOM      9  C   UNL     1      -2.572   8.196 135.105  0.00  0.00    +0.000 C 
ATOM     10  C   UNL     1      -3.523   7.239 135.469  0.00  0.00    +0.000 C 
ATOM     11  S   UNL     1      -3.393   7.045 133.419  0.00  0.00    +0.000 S 
ATOM     12  S   UNL     1      -4.769   5.618 133.378  0.00  0.00    +0.000 S 
ATOM     13  C   UNL     1      -4.731   5.039 131.658  0.00  0.00    +0.000 C 
ATOM     14  C   UNL     1      -5.787   4.047 131.461  0.00  0.00    +0.000 C 
ATOM     15  N   UNL     1      -5.407   3.158 132.355  0.00  0.00    +0.000 N 
ATOM     16  C   UNL     1      -5.218   2.860 133.728  0.00  0.00    +0.000 C 
ATOM     17  C   UNL     1      -6.114   2.072 132.171  0.00  0.00    +0.000 C 
ATOM     18  O   UNL     1      -5.631   1.947 130.982  0.00  0.00    +0.000 OA
ATOM     19  C   UNL     1      -5.074   0.393 132.549  0.00  0.00    +0.000 C 
ATOM     20  N   UNL     1      -5.712  -0.892 132.343  0.00  0.00    +0.000 N 
ATOM     21  C   UNL     1      -5.618  -1.773 130.934  0.00  0.00    +0.000 C 
ATOM     22  O   UNL     1      -7.093  -2.826 130.542  0.00  0.00    +0.000 OA
ATOM     23  C   UNL     1      -5.211  -0.440 129.256  0.00  0.00    +0.000 C 
ATOM     24  N   UNL     1      -4.503  -1.460 129.037  0.00  0.00    +0.000 N 
ATOM     25  C   UNL     1      -4.470  -0.107 130.618  0.00  0.00    +0.000 C 
ATOM     26  O   UNL     1      -4.520  -1.739 129.684  0.00  0.00    +0.000 OA
ATOM     27  H   UNL     1      -2.315   5.642 134.327  0.00  0.00    +0.000 HD
ATOM     28  H   UNL     1      -2.767  11.710 135.030  0.00  0.00    +0.000 HD
ATOM     29  H   UNL     1      -6.342  -1.200 132.963  0.00  0.00    +0.000 HD
ATOM     30  H   UNL     1      -3.605  -1.834 128.764  0.00  0.00    +0.000 HD
ENDROOT
BRANCH  14  31
ATOM     31  C   UNL     1      -5.922   3.667 129.939  0.00  0.00    +0.000 C 
ATOM     32  O   UNL     1      -6.851   3.093 129.400  0.00  0.00    +0.000 OA
ATOM     33  N   UNL     1      -4.887   4.008 129.085  0.00  0.00    +0.000 N 
ATOM     34  C   UNL     1      -3.465   3.809 129.297  0.00  0.00    +0.000 C 
ATOM     35  C   UNL     1      -2.884   5.095 128.781  0.00  0.00    +0.000 C 
ATOM     36  C   UNL     1      -3.665   5.336 127.497  0.00  0.00    +0.000 C 
ATOM     37  C   UNL     1      -5.035   4.775 127.805  0.00  0.00    +0.000 C 
BRANCH  37  38
ATOM     38  C   UNL     1      -5.085   3.910 126.574  0.00  0.00    +0.000 C 
ATOM     39  O   UNL     1      -4.727   2.522 126.829  0.00  0.00    +0.000 OA
ATOM     40  N   UNL     1      -6.038   4.174 125.484  0.00  0.00    +0.000 N 
ATOM     41  C   UNL     1      -6.335   5.552 125.242  0.00  0.00    +0.000 C 
BRANCH  40  42
ATOM     42  C   UNL     1      -6.444   3.128 124.473  0.00  0.00    +0.000 C 
BRANCH  42  43
ATOM     43  C   UNL     1      -6.027   3.593 123.055  0.00  0.00    +0.000 C 
ATOM     44  O   UNL     1      -4.898   4.051 122.854  0.00  0.00    +0.000 OA
ATOM     45  N   UNL     1      -6.943   3.487 121.992  0.00  0.00    +0.000 N 
ATOM     46  H   UNL     1      -7.870   3.121 122.125  0.00  0.00    +0.000 HD
BRANCH  45  47
ATOM     47  C   UNL     1      -6.580   3.920 120.637  0.00  0.00    +0.000 C 
BRANCH  47  48
ATOM     48  C   UNL     1      -7.819   4.161 119.753  0.00  0.00    +0.000 C 
ATOM     49  N   UNL     1      -9.090   3.871 120.301  0.00  0.00    +0.000 N 
ATOM     50  O   UNL     1      -7.686   4.591 118.604  0.00  0.00    +0.000 OA
ATOM     51  H   UNL     1      -9.236   3.522 121.231  0.00  0.00    +0.000 HD
ATOM     52  H   UNL     1      -9.934   4.018 119.752  0.00  0.00    +0.000 HD
ENDBRANCH  47  48
ENDBRANCH  45  47
ENDBRANCH  42  43
BRANCH  42  53
ATOM     53  C   UNL     1      -7.920   2.851 124.510  0.00  0.00    +0.000 C 
BRANCH  53  54
ATOM     54  C   UNL     1      -8.229   1.400 124.765  0.00  0.00    +0.000 C 
ATOM     55  C   UNL     1      -9.264   1.187 125.749  0.00  0.00    +0.000 C 
ATOM     56  C   UNL     1      -8.747   0.712 123.583  0.00  0.00    +0.000 C 
ENDBRANCH  53  54
ENDBRANCH  42  53
ENDBRANCH  40  42
ENDBRANCH  37  38
ENDBRANCH  14  31
BRANCH   9  57
ATOM     57  N   UNL     1      -1.978   8.240 137.263  0.00  0.00    +0.000 NA
ATOM     58  H   UNL     1      -1.863   7.342 137.464  0.00  0.00    +0.000 HD
ATOM     59  H   UNL     1      -2.951   7.735 137.885  0.00  0.00    +0.000 HD
ENDBRANCH   9  57
BRANCH   1  60
ATOM     60  C   UNL     1      -6.053   0.461 130.766  0.00  0.00    +0.000 C 
ATOM     61  C   UNL     1      -7.856  -0.819 129.472  0.00  0.00    +0.000 C 
BRANCH  60  63
ATOM     62  C   UNL     1      -9.105   0.041 131.527  0.00  0.00    +0.000 C 
ATOM     63  C   UNL     1      -7.997  -0.134 130.482  0.00  0.00    +0.000 C 
ENDBRANCH  60  63
ENDBRANCH   1  60
BRANCH  19  64
ATOM     64  C   UNL     1      -3.364  -0.230 131.918  0.00  0.00    +0.000 C 
BRANCH  64  65
ATOM     65  C   UNL     1      -2.510  -0.957 133.001  0.00  0.00    +0.000 C 
ATOM     66  N   UNL     1      -1.871  -0.372 134.119  0.00  0.00    +0.000 N 
ATOM     67  O   UNL     1      -2.388  -2.160 132.943  0.00  0.00    +0.000 OA
ATOM     68  H   UNL     1      -1.676   0.675 134.661  0.00  0.00    +0.000 HD
ATOM     69  H   UNL     1      -1.431  -0.624 134.882  0.00  0.00    +0.000 HD
ENDBRANCH  64  65
ENDBRANCH  19  64
BRANCH   5  70
ATOM     70  C   UNL     1      -3.354  10.041 137.622  0.00  0.00    +0.000 C 
BRANCH  70  71
ATOM     71  C   UNL     1      -4.900  10.172 137.844  0.00  0.00    +0.000 A 
ATOM     72  C   UNL     1      -5.831   9.228 137.440  0.00  0.00    +0.000 A 
ATOM     73  C   UNL     1      -7.159   9.307 137.840  0.00  0.00    +0.000 A 
ATOM     74  C   UNL     1      -7.550  10.350 138.658  0.00  0.00    +0.000 A 
ATOM     75  C   UNL     1      -6.637  11.313 139.030  0.00  0.00    +0.000 A 
ATOM     76  C   UNL     1      -5.330  11.220 138.627  0.00  0.00    +0.000 A 
BRANCH  74  77
ATOM     77  O   UNL     1      -8.813  10.511 139.126  0.00  0.00    +0.000 OA
ATOM     78  H   UNL     1      -9.490  10.758 138.483  0.00  0.00    +0.000 HD
ENDBRANCH  74  77
ENDBRANCH  70  71
ENDBRANCH   5  70
BRANCH  23  79
ATOM     79  C   UNL     1      -6.273  -0.034 128.464  0.00  0.00    +0.000 C 
BRANCH  79  80
ATOM     80  C   UNL     1      -5.919  -0.155 126.807  0.00  0.00    +0.000 C 
BRANCH  80  81
ATOM     81  C   UNL     1      -6.371  -1.546 126.423  0.00  0.00    +0.000 C 
ATOM     82  N   UNL     1      -7.671  -1.852 126.111  0.00  0.00    +0.000 N 
ATOM     83  O   UNL     1      -5.514  -2.414 126.407  0.00  0.00    +0.000 OA
ATOM     84  H   UNL     1      -8.373  -1.253 126.067  0.00  0.00    +0.000 HD
ATOM     85  H   UNL     1      -8.007  -2.719 125.698  0.00  0.00    +0.000 HD
ENDBRANCH  80  81
ENDBRANCH  79  80
ENDBRANCH  23  79
TORSDOF 19
ENDMDL
MODEL 2
REMARK VINA RESULT:     -11.1      1.325      2.024
REMARK  Name = CHEMBL3813858
REMARK  25 active torsions:
REMARK  status: ('A' for Active; 'I' for Inactive)
REMARK    1  A    between atoms: C_1  and  C_2
REMARK    2  A    between atoms: C_2  and  C_3
REMARK    3  A    between atoms: C_3  and  C_4
REMARK    4  A    between atoms: C_3  and  C_5
REMARK    5  A    between atoms: C_9  and  C_10
REMARK    6  A    between atoms: C_10  and  C_11
REMARK    7  A    between atoms: C_14  and  O_15
REMARK    8  A    between atoms: C_21  and  N_22
REMARK    9  A    between atoms: C_27  and  C_28
REMARK   10  A    between atoms: C_34  and  C_35
REMARK   11  A    between atoms: N_37  and  C_38
REMARK   12  A    between atoms: N_37  and  C_39
REMARK   13  A    between atoms: C_39  and  C_40
REMARK   14  A    between atoms: C_39  and  C_44
REMARK   15  A    between atoms: C_40  and  C_41
REMARK   16  A    between atoms: C_41  and  C_42
REMARK   17  A    between atoms: C_41  and  C_43
REMARK   18  A    between atoms: N_46  and  C_47
REMARK   19  A    between atoms: C_47  and  C_48
REMARK   20  A    between atoms: N_51  and  C_52
REMARK   21  A    between atoms: C_55  and  C_56
REMARK   22  A    between atoms: C_56  and  C_57
REMARK   23  A    between atoms: C_63  and  C_64
REMARK   24  A    between atoms: C_64  and  C_65
REMARK   25  A    between atoms: C_65  and  C_66
REMARK                            x       y       z     vdW  Elec       q    Type
REMARK                         _______ _______ _______ _____ _____    ______ ____
ROOT
ATOM      1  C   UNL     1      -3.892   1.811 132.332  0.00  0.00    +0.000 C 
ATOM      2  N   UNL     1      -2.879   4.166 133.568  0.00  0.00    +0.000 N 
ATOM      3  C   UNL     1      -2.039   6.505 134.741  0.00  0.00    +0.000 C 
ATOM      4  O   UNL     1      -0.975   7.661 135.752  0.00  0.00    +0.000 OA
ATOM      5  C   UNL     1      -2.086   9.113 135.770  0.00  0.00    +0.000 C 
ATOM      6  N   UNL     1      -2.426  10.712 135.197  0.00  0.00    +0.000 N 
ATOM      7  C   UNL     1      -2.309   9.611 134.487  0.00  0.00    +0.000 C 
ATOM      8  O   UNL     1      -2.378   9.444 133.314  0.00  0.00    +0.000 OA
ATOM      9  C   UNL     1      -2.449   8.101 134.976  0.00  0.00    +0.000 C 
ATOM     10  C   UNL     1      -3.371   7.140 135.400  0.00  0.00    +0.000 C 
ATOM     11  S   UNL     1      -3.245   6.834 133.363  0.00  0.00    +0.000 S 
ATOM     12  S   UNL     1      -4.580   5.369 133.412  0.00  0.00    +0.000 S 
ATOM     13  C   UNL     1      -4.533   4.694 131.727  0.00  0.00    +0.000 C 
ATOM     14  C   UNL     1      -5.562   3.663 131.593  0.00  0.00    +0.000 C 
ATOM     15  N   UNL     1      -5.153   2.837 132.533  0.00  0.00    +0.000 N 
ATOM     16  C   UNL     1      -4.949   2.623 133.920  0.00  0.00    +0.000 C 
ATOM     17  C   UNL     1      -5.830   1.723 132.416  0.00  0.00    +0.000 C 
ATOM     18  O   UNL     1      -5.349   1.545 131.233  0.00  0.00    +0.000 OA
ATOM     19  C   UNL     1      -4.740   0.098 132.882  0.00  0.00    +0.000 C 
ATOM     20  N   UNL     1      -5.342  -1.214 132.753  0.00  0.00    +0.000 N 
ATOM     21  C   UNL     1      -5.230  -2.170 131.396  0.00  0.00    +0.000 C 
ATOM     22  O   UNL     1      -6.677  -3.285 131.073  0.00  0.00    +0.000 OA
ATOM     23  C   UNL     1      -4.870  -0.924 129.642  0.00  0.00    +0.000 C 
ATOM     24  N   UNL     1      -4.134  -1.934 129.477  0.00  0.00    +0.000 N 
ATOM     25  C   UNL     1      -4.131  -0.493 130.979  0.00  0.00    +0.000 C 
ATOM     26  O   UNL     1      -4.139  -2.176 130.138  0.00  0.00    +0.000 OA
ATOM     27  H   UNL     1      -2.124   5.515 134.342  0.00  0.00    +0.000 HD
ATOM     28  H   UNL     1      -2.744  11.599 134.703  0.00  0.00    +0.000 HD
ATOM     29  H   UNL     1      -5.961  -1.504 133.393  0.00  0.00    +0.000 HD
ATOM     30  H   UNL     1      -3.226  -2.298 129.219  0.00  0.00    +0.000 HD
ENDROOT
BRANCH  14  31
ATOM     31  C   UNL     1      -5.693   3.194 130.096  0.00  0.00    +0.000 C 
ATOM     32  O   UNL     1      -4.830   2.689 129.401  0.00  0.00    +0.000 OA
ATOM     33  N   UNL     1      -6.914   3.357 129.464  0.00  0.00    +0.000 N 
ATOM     34  C   UNL     1      -7.756   4.540 129.460  0.00  0.00    +0.000 C 
ATOM     35  C   UNL     1      -9.130   3.952 129.619  0.00  0.00    +0.000 C 
ATOM     36  C   UNL     1      -9.105   2.757 128.677  0.00  0.00    +0.000 C 
ATOM     37  C   UNL     1      -7.672   2.280 128.748  0.00  0.00    +0.000 C 
BRANCH  37  38
ATOM     38  C   UNL     1      -7.476   2.280 127.255  0.00  0.00    +0.000 C 
ATOM     39  O   UNL     1      -6.188   2.817 126.842  0.00  0.00    +0.000 OA
ATOM     40  N   UNL     1      -8.088   1.253 126.397  0.00  0.00    +0.000 N 
ATOM     41  C   UNL     1      -9.371   0.777 126.818  0.00  0.00    +0.000 C 
BRANCH  40  42
ATOM     42  C   UNL     1      -7.586   0.932 125.009  0.00  0.00    +0.000 C 
BRANCH  42  43
ATOM     43  C   UNL     1      -7.509   2.236 124.175  0.00  0.00    +0.000 C 
ATOM     44  O   UNL     1      -8.537   2.863 123.899  0.00  0.00    +0.000 OA
ATOM     45  N   UNL     1      -6.259   2.707 123.735  0.00  0.00    +0.000 N 
ATOM     46  H   UNL     1      -5.405   2.217 123.941  0.00  0.00    +0.000 HD
BRANCH  45  47
ATOM     47  C   UNL     1      -6.153   3.937 122.941  0.00  0.00    +0.000 C 
BRANCH  47  48
ATOM     48  C   UNL     1      -6.449   3.692 121.449  0.00  0.00    +0.000 C 
ATOM     49  N   UNL     1      -7.773   3.890 120.994  0.00  0.00    +0.000 N 
ATOM     50  O   UNL     1      -5.545   3.332 120.689  0.00  0.00    +0.000 OA
ATOM     51  H   UNL     1      -8.532   4.185 121.582  0.00  0.00    +0.000 HD
ATOM     52  H   UNL     1      -8.011   3.742 120.017  0.00  0.00    +0.000 HD
ENDBRANCH  47  48
ENDBRANCH  45  47
ENDBRANCH  42  43
BRANCH  42  53
ATOM     53  C   UNL     1      -8.457  -0.073 124.312  0.00  0.00    +0.000 C 
BRANCH  53  54
ATOM     54  C   UNL     1      -7.766  -0.727 123.146  0.00  0.00    +0.000 C 
ATOM     55  C   UNL     1      -6.387  -1.067 123.399  0.00  0.00    +0.000 C 
ATOM     56  C   UNL     1      -8.363  -2.010 122.777  0.00  0.00    +0.000 C 
ENDBRANCH  53  54
ENDBRANCH  42  53
ENDBRANCH  40  42
ENDBRANCH  37  38
ENDBRANCH  14  31
BRANCH   9  57
ATOM     57  N   UNL     1      -1.846   8.284 137.124  0.00  0.00    +0.000 NA
ATOM     58  H   UNL     1      -2.204   7.518 137.505  0.00  0.00    +0.000 HD
ATOM     59  H   UNL     1      -2.919   8.490 137.753  0.00  0.00    +0.000 HD
ENDBRANCH   9  57
BRANCH   1  60
ATOM     60  C   UNL     1      -5.729   0.038 131.104  0.00  0.00    +0.000 C 
ATOM     61  C   UNL     1      -7.502  -1.364 129.897  0.00  0.00    +0.000 C 
BRANCH  60  63
ATOM     62  C   UNL     1      -8.872   0.019 131.542  0.00  0.00    +0.000 C 
ATOM     63  C   UNL     1      -7.656  -0.631 130.871  0.00  0.00    +0.000 C 
ENDBRANCH  60  63
ENDBRANCH   1  60
BRANCH  19  64
ATOM     64  C   UNL     1      -3.016  -0.511 132.276  0.00  0.00    +0.000 C 
BRANCH  64  65
ATOM     65  C   UNL     1      -2.186  -1.260 133.362  0.00  0.00    +0.000 C 
ATOM     66  N   UNL     1      -1.225  -0.701 134.238  0.00  0.00    +0.000 N 
ATOM     67  O   UNL     1      -2.380  -2.441 133.540  0.00  0.00    +0.000 OA
ATOM     68  H   UNL     1      -0.678   0.323 134.519  0.00  0.00    +0.000 HD
ATOM     69  H   UNL     1      -0.729  -0.937 134.971  0.00  0.00    +0.000 HD
ENDBRANCH  64  65
ENDBRANCH  19  64
BRANCH   5  70
ATOM     70  C   UNL     1      -3.271  10.063 137.389  0.00  0.00    +0.000 C 
BRANCH  70  71
ATOM     71  C   UNL     1      -4.814  10.081 137.665  0.00  0.00    +0.000 A 
ATOM     72  C   UNL     1      -5.688   9.074 137.286  0.00  0.00    +0.000 A 
ATOM     73  C   UNL     1      -7.004   9.055 137.732  0.00  0.00    +0.000 A 
ATOM     74  C   UNL     1      -7.440  10.062 138.571  0.00  0.00    +0.000 A 
ATOM     75  C   UNL     1      -6.587  11.087 138.920  0.00  0.00    +0.000 A 
ATOM     76  C   UNL     1      -5.291  11.090 138.471  0.00  0.00    +0.000 A 
BRANCH  74  77
ATOM     77  O   UNL     1      -8.695  10.129 139.084  0.00  0.00    +0.000 OA
ATOM     78  H   UNL     1      -8.825  10.705 139.848  0.00  0.00    +0.000 HD
ENDBRANCH  74  77
ENDBRANCH  70  71
ENDBRANCH   5  70
BRANCH  23  79
ATOM     79  C   UNL     1      -5.945  -0.593 128.835  0.00  0.00    +0.000 C 
BRANCH  79  80
ATOM     80  C   UNL     1      -5.556  -0.671 127.183  0.00  0.00    +0.000 C 
BRANCH  80  81
ATOM     81  C   UNL     1      -6.008  -2.048 126.751  0.00  0.00    +0.000 C 
ATOM     82  N   UNL     1      -7.328  -2.388 126.593  0.00  0.00    +0.000 N 
ATOM     83  O   UNL     1      -5.132  -2.871 126.546  0.00  0.00    +0.000 OA
ATOM     84  H   UNL     1      -8.049  -1.820 126.695  0.00  0.00    +0.000 HD
ATOM     85  H   UNL     1      -7.687  -3.236 126.160  0.00  0.00    +0.000 HD
ENDBRANCH  80  81
ENDBRANCH  79  80
ENDBRANCH  23  79
TORSDOF 19
ENDMDL
MODEL 3
REMARK VINA RESULT:     -10.5      1.954      2.549
REMARK  Name = CHEMBL3813858
REMARK  25 active torsions:
REMARK  status: ('A' for Active; 'I' for Inactive)
REMARK    1  A    between atoms: C_1  and  C_2
REMARK    2  A    between atoms: C_2  and  C_3
REMARK    3  A    between atoms: C_3  and  C_4
REMARK    4  A    between atoms: C_3  and  C_5
REMARK    5  A    between atoms: C_9  and  C_10
REMARK    6  A    between atoms: C_10  and  C_11
REMARK    7  A    between atoms: C_14  and  O_15
REMARK    8  A    between atoms: C_21  and  N_22
REMARK    9  A    between atoms: C_27  and  C_28
REMARK   10  A    between atoms: C_34  and  C_35
REMARK   11  A    between atoms: N_37  and  C_38
REMARK   12  A    between atoms: N_37  and  C_39
REMARK   13  A    between atoms: C_39  and  C_40
REMARK   14  A    between atoms: C_39  and  C_44
REMARK   15  A    between atoms: C_40  and  C_41
REMARK   16  A    between atoms: C_41  and  C_42
REMARK   17  A    between atoms: C_41  and  C_43
REMARK   18  A    between atoms: N_46  and  C_47
REMARK   19  A    between atoms: C_47  and  C_48
REMARK   20  A    between atoms: N_51  and  C_52
REMARK   21  A    between atoms: C_55  and  C_56
REMARK   22  A    between atoms: C_56  and  C_57
REMARK   23  A    between atoms: C_63  and  C_64
REMARK   24  A    between atoms: C_64  and  C_65
REMARK   25  A    between atoms: C_65  and  C_66
REMARK                            x       y       z     vdW  Elec       q    Type
REMARK                         _______ _______ _______ _____ _____    ______ ____
ROOT
ATOM      1  C   UNL     1      -4.578   2.045 133.923  0.00  0.00    +0.000 C 
ATOM      2  N   UNL     1      -3.678   4.418 135.211  0.00  0.00    +0.000 N 
ATOM      3  C   UNL     1      -2.932   6.783 136.396  0.00  0.00    +0.000 C 
ATOM      4  O   UNL     1      -2.038   7.942 137.557  0.00  0.00    +0.000 OA
ATOM      5  C   UNL     1      -2.986   9.466 137.208  0.00  0.00    +0.000 C 
ATOM      6  N   UNL     1      -3.034  11.031 136.466  0.00  0.00    +0.000 N 
ATOM      7  C   UNL     1      -2.852   9.867 135.880  0.00  0.00    +0.000 C 
ATOM      8  O   UNL     1      -2.657   9.606 134.739  0.00  0.00    +0.000 OA
ATOM      9  C   UNL     1      -3.240   8.419 136.418  0.00  0.00    +0.000 C 
ATOM     10  C   UNL     1      -4.319   7.566 136.667  0.00  0.00    +0.000 C 
ATOM     11  S   UNL     1      -3.743   7.078 134.747  0.00  0.00    +0.000 S 
ATOM     12  S   UNL     1      -5.178   5.722 134.566  0.00  0.00    +0.000 S 
ATOM     13  C   UNL     1      -4.794   4.904 132.991  0.00  0.00    +0.000 C 
ATOM     14  C   UNL     1      -5.851   3.942 132.680  0.00  0.00    +0.000 C 
ATOM     15  N   UNL     1      -5.752   3.172 133.744  0.00  0.00    +0.000 N 
ATOM     16  C   UNL     1      -5.903   3.063 135.149  0.00  0.00    +0.000 C 
ATOM     17  C   UNL     1      -6.480   2.104 133.539  0.00  0.00    +0.000 C 
ATOM     18  O   UNL     1      -5.751   1.791 132.523  0.00  0.00    +0.000 OA
ATOM     19  C   UNL     1      -5.683   0.451 134.362  0.00  0.00    +0.000 C 
ATOM     20  N   UNL     1      -6.354  -0.821 134.177  0.00  0.00    +0.000 N 
ATOM     21  C   UNL     1      -6.010  -1.896 132.954  0.00  0.00    +0.000 C 
ATOM     22  O   UNL     1      -7.433  -2.927 132.363  0.00  0.00    +0.000 OA
ATOM     23  C   UNL     1      -5.133  -0.833 131.262  0.00  0.00    +0.000 C 
ATOM     24  N   UNL     1      -4.473  -1.904 131.348  0.00  0.00    +0.000 N 
ATOM     25  C   UNL     1      -4.697  -0.344 132.707  0.00  0.00    +0.000 C 
ATOM     26  O   UNL     1      -4.657  -2.088 132.002  0.00  0.00    +0.000 OA
ATOM     27  H   UNL     1      -3.009   5.771 136.054  0.00  0.00    +0.000 HD
ATOM     28  H   UNL     1      -3.145  11.892 135.852  0.00  0.00    +0.000 HD
ATOM     29  H   UNL     1      -7.129  -1.010 134.666  0.00  0.00    +0.000 HD
ATOM     30  H   UNL     1      -3.567  -2.353 131.343  0.00  0.00    +0.000 HD
ENDROOT
BRANCH  14  31
ATOM     31  C   UNL     1      -5.666   3.357 131.230  0.00  0.00    +0.000 C 
ATOM     32  O   UNL     1      -4.728   2.702 130.811  0.00  0.00    +0.000 OA
ATOM     33  N   UNL     1      -6.662   3.592 130.297  0.00  0.00    +0.000 N 
ATOM     34  C   UNL     1      -7.320   4.853 130.007  0.00  0.00    +0.000 C 
ATOM     35  C   UNL     1      -8.753   4.432 129.844  0.00  0.00    +0.000 C 
ATOM     36  C   UNL     1      -8.647   3.161 129.013  0.00  0.00    +0.000 C 
ATOM     37  C   UNL     1      -7.348   2.542 129.477  0.00  0.00    +0.000 C 
BRANCH  37  38
ATOM     38  C   UNL     1      -6.791   2.387 128.087  0.00  0.00    +0.000 C 
ATOM     39  O   UNL     1      -5.403   2.810 127.972  0.00  0.00    +0.000 OA
ATOM     40  N   UNL     1      -7.249   1.316 127.187  0.00  0.00    +0.000 N 
ATOM     41  C   UNL     1      -8.629   0.955 127.307  0.00  0.00    +0.000 C 
BRANCH  40  42
ATOM     42  C   UNL     1      -6.446   0.836 126.002  0.00  0.00    +0.000 C 
BRANCH  42  43
ATOM     43  C   UNL     1      -6.406   1.948 124.923  0.00  0.00    +0.000 C 
ATOM     44  O   UNL     1      -5.451   2.729 124.865  0.00  0.00    +0.000 OA
ATOM     45  N   UNL     1      -7.463   2.062 124.002  0.00  0.00    +0.000 N 
ATOM     46  H   UNL     1      -8.255   1.443 124.025  0.00  0.00    +0.000 HD
BRANCH  45  47
ATOM     47  C   UNL     1      -7.455   3.105 122.969  0.00  0.00    +0.000 C 
BRANCH  47  48
ATOM     48  C   UNL     1      -8.680   3.009 122.039  0.00  0.00    +0.000 C 
ATOM     49  N   UNL     1      -8.731   3.869 120.917  0.00  0.00    +0.000 N 
ATOM     50  O   UNL     1      -9.581   2.201 122.282  0.00  0.00    +0.000 OA
ATOM     51  H   UNL     1      -8.016   4.536 120.687  0.00  0.00    +0.000 HD
ATOM     52  H   UNL     1      -9.520   3.837 120.277  0.00  0.00    +0.000 HD
ENDBRANCH  47  48
ENDBRANCH  45  47
ENDBRANCH  42  43
BRANCH  42  53
ATOM     53  C   UNL     1      -7.007  -0.428 125.415  0.00  0.00    +0.000 C 
BRANCH  53  54
ATOM     54  C   UNL     1      -6.086  -1.053 124.403  0.00  0.00    +0.000 C 
ATOM     55  C   UNL     1      -5.542  -2.325 124.813  0.00  0.00    +0.000 C 
ATOM     56  C   UNL     1      -6.757  -1.370 123.142  0.00  0.00    +0.000 C 
ENDBRANCH  53  54
ENDBRANCH  42  53
ENDBRANCH  40  42
ENDBRANCH  37  38
ENDBRANCH  14  31
BRANCH   9  57
ATOM     57  N   UNL     1      -3.149   8.741 138.631  0.00  0.00    +0.000 NA
ATOM     58  H   UNL     1      -2.876   9.624 138.701  0.00  0.00    +0.000 HD
ATOM     59  H   UNL     1      -1.923   8.869 138.897  0.00  0.00    +0.000 HD
ENDBRANCH   9  57
BRANCH   1  60
ATOM     60  C   UNL     1      -6.224   0.309 132.405  0.00  0.00    +0.000 C 
ATOM     61  C   UNL     1      -7.787  -1.058 130.905  0.00  0.00    +0.000 C 
BRANCH  60  63
ATOM     62  C   UNL     1      -9.326   0.654 131.828  0.00  0.00    +0.000 C 
ATOM     63  C   UNL     1      -8.097  -0.262 131.787  0.00  0.00    +0.000 C 
ENDBRANCH  60  63
ENDBRANCH   1  60
BRANCH  19  64
ATOM     64  C   UNL     1      -3.927  -0.330 134.234  0.00  0.00    +0.000 C 
BRANCH  64  65
ATOM     65  C   UNL     1      -3.417  -0.973 135.560  0.00  0.00    +0.000 C 
ATOM     66  N   UNL     1      -2.604  -0.366 136.546  0.00  0.00    +0.000 N 
ATOM     67  O   UNL     1      -3.763  -2.099 135.839  0.00  0.00    +0.000 OA
ATOM     68  H   UNL     1      -2.024   0.645 136.808  0.00  0.00    +0.000 HD
ATOM     69  H   UNL     1      -2.295  -0.530 137.392  0.00  0.00    +0.000 HD
ENDBRANCH  64  65
ENDBRANCH  19  64
BRANCH   5  70
ATOM     70  C   UNL     1      -4.430  10.634 138.425  0.00  0.00    +0.000 C 
BRANCH  70  71
ATOM     71  C   UNL     1      -5.969  10.447 138.662  0.00  0.00    +0.000 A 
ATOM     72  C   UNL     1      -6.712  11.172 139.578  0.00  0.00    +0.000 A 
ATOM     73  C   UNL     1      -8.100  11.100 139.600  0.00  0.00    +0.000 A 
ATOM     74  C   UNL     1      -8.742  10.288 138.685  0.00  0.00    +0.000 A 
ATOM     75  C   UNL     1      -8.005   9.534 137.797  0.00  0.00    +0.000 A 
ATOM     76  C   UNL     1      -6.636   9.618 137.788  0.00  0.00    +0.000 A 
BRANCH  74  77
ATOM     77  O   UNL     1     -10.090  10.160 138.602  0.00  0.00    +0.000 OA
ATOM     78  H   UNL     1     -10.544  10.723 137.963  0.00  0.00    +0.000 HD
ENDBRANCH  74  77
ENDBRANCH  70  71
ENDBRANCH   5  70
BRANCH  23  79
ATOM     79  C   UNL     1      -5.953  -0.497 130.197  0.00  0.00    +0.000 C 
BRANCH  79  80
ATOM     80  C   UNL     1      -5.309  -0.999 128.708  0.00  0.00    +0.000 C 
BRANCH  80  81
ATOM     81  C   UNL     1      -5.888  -2.379 128.490  0.00  0.00    +0.000 C 
ATOM     82  N   UNL     1      -7.106  -2.596 127.898  0.00  0.00    +0.000 N 
ATOM     83  O   UNL     1      -5.216  -3.321 128.878  0.00  0.00    +0.000 OA
ATOM     84  H   UNL     1      -7.661  -1.945 127.548  0.00  0.00    +0.000 HD
ATOM     85  H   UNL     1      -7.477  -3.490 127.584  0.00  0.00    +0.000 HD
ENDBRANCH  80  81
ENDBRANCH  79  80
ENDBRANCH  23  79
TORSDOF 19
ENDMDL
MODEL 4
REMARK VINA RESULT:     -10.2      3.803      7.930
REMARK  Name = CHEMBL3813858
REMARK  25 active torsions:
REMARK  status: ('A' for Active; 'I' for Inactive)
REMARK    1  A    between atoms: C_1  and  C_2
REMARK    2  A    between atoms: C_2  and  C_3
REMARK    3  A    between atoms: C_3  and  C_4
REMARK    4  A    between atoms: C_3  and  C_5
REMARK    5  A    between atoms: C_9  and  C_10
REMARK    6  A    between atoms: C_10  and  C_11
REMARK    7  A    between atoms: C_14  and  O_15
REMARK    8  A    between atoms: C_21  and  N_22
REMARK    9  A    between atoms: C_27  and  C_28
REMARK   10  A    between atoms: C_34  and  C_35
REMARK   11  A    between atoms: N_37  and  C_38
REMARK   12  A    between atoms: N_37  and  C_39
REMARK   13  A    between atoms: C_39  and  C_40
REMARK   14  A    between atoms: C_39  and  C_44
REMARK   15  A    between atoms: C_40  and  C_41
REMARK   16  A    between atoms: C_41  and  C_42
REMARK   17  A    between atoms: C_41  and  C_43
REMARK   18  A    between atoms: N_46  and  C_47
REMARK   19  A    between atoms: C_47  and  C_48
REMARK   20  A    between atoms: N_51  and  C_52
REMARK   21  A    between atoms: C_55  and  C_56
REMARK   22  A    between atoms: C_56  and  C_57
REMARK   23  A    between atoms: C_63  and  C_64
REMARK   24  A    between atoms: C_64  and  C_65
REMARK   25  A    between atoms: C_65  and  C_66
REMARK                            x       y       z     vdW  Elec       q    Type
REMARK                         _______ _______ _______ _____ _____    ______ ____
ROOT
ATOM      1  C   UNL     1      -6.419   4.645 132.545  0.00  0.00    +0.000 C 
ATOM      2  N   UNL     1      -5.014   6.468 134.219  0.00  0.00    +0.000 N 
ATOM      3  C   UNL     1      -3.529   8.196 135.755  0.00  0.00    +0.000 C 
ATOM      4  O   UNL     1      -3.158   9.586 136.948  0.00  0.00    +0.000 OA
ATOM      5  C   UNL     1      -1.346   9.671 136.717  0.00  0.00    +0.000 C 
ATOM      6  N   UNL     1       0.234   9.358 137.353  0.00  0.00    +0.000 N 
ATOM      7  C   UNL     1      -0.718   8.487 137.099  0.00  0.00    +0.000 C 
ATOM      8  O   UNL     1      -0.745   7.311 137.259  0.00  0.00    +0.000 OA
ATOM      9  C   UNL     1      -1.969   8.647 136.125  0.00  0.00    +0.000 C 
ATOM     10  C   UNL     1      -2.345   8.705 134.781  0.00  0.00    +0.000 C 
ATOM     11  S   UNL     1      -2.532   6.706 135.257  0.00  0.00    +0.000 S 
ATOM     12  S   UNL     1      -3.099   6.230 133.418  0.00  0.00    +0.000 S 
ATOM     13  C   UNL     1      -3.584   4.486 133.560  0.00  0.00    +0.000 C 
ATOM     14  C   UNL     1      -3.926   3.972 132.234  0.00  0.00    +0.000 C 
ATOM     15  N   UNL     1      -4.907   4.799 131.936  0.00  0.00    +0.000 N 
ATOM     16  C   UNL     1      -5.290   6.134 131.650  0.00  0.00    +0.000 C 
ATOM     17  C   UNL     1      -5.502   4.351 130.860  0.00  0.00    +0.000 C 
ATOM     18  O   UNL     1      -5.821   3.265 131.478  0.00  0.00    +0.000 OA
ATOM     19  C   UNL     1      -7.483   4.695 130.866  0.00  0.00    +0.000 C 
ATOM     20  N   UNL     1      -8.285   4.212 129.759  0.00  0.00    +0.000 N 
ATOM     21  C   UNL     1      -9.067   2.743 129.736  0.00  0.00    +0.000 C 
ATOM     22  O   UNL     1      -9.252   1.954 128.068  0.00  0.00    +0.000 OA
ATOM     23  C   UNL     1      -8.068   1.353 131.089  0.00  0.00    +0.000 C 
ATOM     24  N   UNL     1      -9.299   1.139 131.258  0.00  0.00    +0.000 N 
ATOM     25  C   UNL     1      -8.172   2.860 131.575  0.00  0.00    +0.000 C 
ATOM     26  O   UNL     1      -9.548   1.731 130.967  0.00  0.00    +0.000 OA
ATOM     27  H   UNL     1      -4.303   7.609 135.307  0.00  0.00    +0.000 HD
ATOM     28  H   UNL     1       1.189   8.989 137.642  0.00  0.00    +0.000 HD
ATOM     29  H   UNL     1      -8.258   4.661 128.939  0.00  0.00    +0.000 HD
ATOM     30  H   UNL     1     -10.060   0.990 131.907  0.00  0.00    +0.000 HD
ENDROOT
BRANCH  14  31
ATOM     31  C   UNL     1      -4.157   2.416 132.278  0.00  0.00    +0.000 C 
ATOM     32  O   UNL     1      -4.081   1.631 131.350  0.00  0.00    +0.000 OA
ATOM     33  N   UNL     1      -4.485   1.837 133.492  0.00  0.00    +0.000 N 
ATOM     34  C   UNL     1      -5.476   2.293 134.449  0.00  0.00    +0.000 C 
ATOM     35  C   UNL     1      -4.772   2.086 135.760  0.00  0.00    +0.000 C 
ATOM     36  C   UNL     1      -4.121   0.721 135.590  0.00  0.00    +0.000 C 
ATOM     37  C   UNL     1      -3.777   0.673 134.118  0.00  0.00    +0.000 C 
BRANCH  37  38
ATOM     38  C   UNL     1      -4.451  -0.653 133.884  0.00  0.00    +0.000 C 
ATOM     39  O   UNL     1      -5.903  -0.579 133.939  0.00  0.00    +0.000 OA
ATOM     40  N   UNL     1      -3.858  -1.676 133.008  0.00  0.00    +0.000 N 
ATOM     41  C   UNL     1      -2.428  -1.740 133.011  0.00  0.00    +0.000 C 
BRANCH  40  42
ATOM     42  C   UNL     1      -4.660  -2.796 132.389  0.00  0.00    +0.000 C 
BRANCH  42  43
ATOM     43  C   UNL     1      -5.279  -3.667 133.510  0.00  0.00    +0.000 C 
ATOM     44  O   UNL     1      -4.557  -4.356 134.238  0.00  0.00    +0.000 OA
ATOM     45  N   UNL     1      -6.674  -3.669 133.699  0.00  0.00    +0.000 N 
ATOM     46  H   UNL     1      -7.288  -3.122 133.121  0.00  0.00    +0.000 HD
BRANCH  45  47
ATOM     47  C   UNL     1      -7.292  -4.486 134.751  0.00  0.00    +0.000 C 
BRANCH  47  48
ATOM     48  C   UNL     1      -8.151  -3.641 135.711  0.00  0.00    +0.000 C 
ATOM     49  N   UNL     1      -9.334  -4.220 136.227  0.00  0.00    +0.000 N 
ATOM     50  O   UNL     1      -7.804  -2.494 136.007  0.00  0.00    +0.000 OA
ATOM     51  H   UNL     1      -9.646  -5.149 136.010  0.00  0.00    +0.000 HD
ATOM     52  H   UNL     1      -9.928  -3.697 136.865  0.00  0.00    +0.000 HD
ENDBRANCH  47  48
ENDBRANCH  45  47
ENDBRANCH  42  43
BRANCH  42  53
ATOM     53  C   UNL     1      -3.825  -3.649 131.476  0.00  0.00    +0.000 C 
BRANCH  53  54
ATOM     54  C   UNL     1      -4.087  -3.367 130.022  0.00  0.00    +0.000 C 
ATOM     55  C   UNL     1      -4.088  -1.963 129.689  0.00  0.00    +0.000 C 
ATOM     56  C   UNL     1      -3.058  -3.918 129.141  0.00  0.00    +0.000 C 
ENDBRANCH  53  54
ENDBRANCH  42  53
ENDBRANCH  40  42
ENDBRANCH  37  38
ENDBRANCH  14  31
BRANCH   9  57
ATOM     57  N   UNL     1      -2.271  10.865 136.171  0.00  0.00    +0.000 NA
ATOM     58  H   UNL     1      -1.407  11.193 136.098  0.00  0.00    +0.000 HD
ATOM     59  H   UNL     1      -1.782  11.243 137.270  0.00  0.00    +0.000 HD
ENDBRANCH   9  57
BRANCH   1  60
ATOM     60  C   UNL     1      -6.904   2.786 130.463  0.00  0.00    +0.000 C 
ATOM     61  C   UNL     1      -7.108   1.026 128.613  0.00  0.00    +0.000 C 
BRANCH  60  63
ATOM     62  C   UNL     1      -5.044   2.119 127.979  0.00  0.00    +0.000 C 
ATOM     63  C   UNL     1      -6.446   2.061 128.598  0.00  0.00    +0.000 C 
ENDBRANCH  60  63
ENDBRANCH   1  60
BRANCH  19  64
ATOM     64  C   UNL     1      -8.850   4.314 132.169  0.00  0.00    +0.000 C 
BRANCH  64  65
ATOM     65  C   UNL     1      -9.823   5.502 132.439  0.00  0.00    +0.000 C 
ATOM     66  N   UNL     1     -11.149   5.644 131.968  0.00  0.00    +0.000 N 
ATOM     67  O   UNL     1      -9.462   6.405 133.160  0.00  0.00    +0.000 OA
ATOM     68  H   UNL     1     -11.980   5.111 131.294  0.00  0.00    +0.000 HD
ATOM     69  H   UNL     1     -11.878   6.186 132.088  0.00  0.00    +0.000 HD
ENDBRANCH  64  65
ENDBRANCH  19  64
BRANCH   5  70
ATOM     70  C   UNL     1      -0.035  11.194 135.772  0.00  0.00    +0.000 C 
BRANCH  70  71
ATOM     71  C   UNL     1       0.132  11.626 134.274  0.00  0.00    +0.000 A 
ATOM     72  C   UNL     1      -0.780  12.403 133.578  0.00  0.00    +0.000 A 
ATOM     73  C   UNL     1      -0.481  12.915 132.322  0.00  0.00    +0.000 A 
ATOM     74  C   UNL     1       0.753  12.642 131.765  0.00  0.00    +0.000 A 
ATOM     75  C   UNL     1       1.649  11.837 132.436  0.00  0.00    +0.000 A 
ATOM     76  C   UNL     1       1.338  11.339 133.676  0.00  0.00    +0.000 A 
BRANCH  74  77
ATOM     77  O   UNL     1       1.158  13.109 130.557  0.00  0.00    +0.000 OA
ATOM     78  H   UNL     1       0.468  13.343 129.925  0.00  0.00    +0.000 HD
ENDBRANCH  74  77
ENDBRANCH  70  71
ENDBRANCH   5  70
BRANCH  23  79
ATOM     79  C   UNL     1      -7.176   0.438 130.554  0.00  0.00    +0.000 C 
BRANCH  79  80
ATOM     80  C   UNL     1      -7.174  -1.030 131.409  0.00  0.00    +0.000 C 
BRANCH  80  81
ATOM     81  C   UNL     1      -7.647  -2.055 130.403  0.00  0.00    +0.000 C 
ATOM     82  N   UNL     1      -7.965  -1.742 129.106  0.00  0.00    +0.000 N 
ATOM     83  O   UNL     1      -7.743  -3.205 130.799  0.00  0.00    +0.000 OA
ATOM     84  H   UNL     1      -7.890  -0.907 128.717  0.00  0.00    +0.000 HD
ATOM     85  H   UNL     1      -8.135  -2.399 128.349  0.00  0.00    +0.000 HD
ENDBRANCH  80  81
ENDBRANCH  79  80
ENDBRANCH  23  79
TORSDOF 19
ENDMDL
MODEL 5
REMARK VINA RESULT:     -10.1      1.815      2.600
REMARK  Name = CHEMBL3813858
REMARK  25 active torsions:
REMARK  status: ('A' for Active; 'I' for Inactive)
REMARK    1  A    between atoms: C_1  and  C_2
REMARK    2  A    between atoms: C_2  and  C_3
REMARK    3  A    between atoms: C_3  and  C_4
REMARK    4  A    between atoms: C_3  and  C_5
REMARK    5  A    between atoms: C_9  and  C_10
REMARK    6  A    between atoms: C_10  and  C_11
REMARK    7  A    between atoms: C_14  and  O_15
REMARK    8  A    between atoms: C_21  and  N_22
REMARK    9  A    between atoms: C_27  and  C_28
REMARK   10  A    between atoms: C_34  and  C_35
REMARK   11  A    between atoms: N_37  and  C_38
REMARK   12  A    between atoms: N_37  and  C_39
REMARK   13  A    between atoms: C_39  and  C_40
REMARK   14  A    between atoms: C_39  and  C_44
REMARK   15  A    between atoms: C_40  and  C_41
REMARK   16  A    between atoms: C_41  and  C_42
REMARK   17  A    between atoms: C_41  and  C_43
REMARK   18  A    between atoms: N_46  and  C_47
REMARK   19  A    between atoms: C_47  and  C_48
REMARK   20  A    between atoms: N_51  and  C_52
REMARK   21  A    between atoms: C_55  and  C_56
REMARK   22  A    between atoms: C_56  and  C_57
REMARK   23  A    between atoms: C_63  and  C_64
REMARK   24  A    between atoms: C_64  and  C_65
REMARK   25  A    between atoms: C_65  and  C_66
REMARK                            x       y       z     vdW  Elec       q    Type
REMARK                         _______ _______ _______ _____ _____    ______ ____
ROOT
ATOM      1  C   UNL     1      -4.199   1.836 132.421  0.00  0.00    +0.000 C 
ATOM      2  N   UNL     1      -2.928   4.266 133.184  0.00  0.00    +0.000 N 
ATOM      3  C   UNL     1      -1.839   6.677 133.926  0.00  0.00    +0.000 C 
ATOM      4  O   UNL     1      -0.573   7.892 134.568  0.00  0.00    +0.000 OA
ATOM      5  C   UNL     1      -1.646   9.367 134.697  0.00  0.00    +0.000 C 
ATOM      6  N   UNL     1      -2.097  10.917 134.070  0.00  0.00    +0.000 N 
ATOM      7  C   UNL     1      -2.145   9.755 133.455  0.00  0.00    +0.000 C 
ATOM      8  O   UNL     1      -2.473   9.487 132.346  0.00  0.00    +0.000 OA
ATOM      9  C   UNL     1      -2.180   8.298 134.098  0.00  0.00    +0.000 C 
ATOM     10  C   UNL     1      -2.990   7.400 134.800  0.00  0.00    +0.000 C 
ATOM     11  S   UNL     1      -3.319   6.913 132.822  0.00  0.00    +0.000 S 
ATOM     12  S   UNL     1      -4.616   5.491 133.296  0.00  0.00    +0.000 S 
ATOM     13  C   UNL     1      -4.946   4.670 131.711  0.00  0.00    +0.000 C 
ATOM     14  C   UNL     1      -5.983   3.656 131.901  0.00  0.00    +0.000 C 
ATOM     15  N   UNL     1      -5.380   2.907 132.800  0.00  0.00    +0.000 N 
ATOM     16  C   UNL     1      -4.875   2.810 134.121  0.00  0.00    +0.000 C 
ATOM     17  C   UNL     1      -6.071   1.804 132.936  0.00  0.00    +0.000 C 
ATOM     18  O   UNL     1      -5.864   1.511 131.698  0.00  0.00    +0.000 OA
ATOM     19  C   UNL     1      -4.913   0.200 133.297  0.00  0.00    +0.000 C 
ATOM     20  N   UNL     1      -5.534  -1.104 133.424  0.00  0.00    +0.000 N 
ATOM     21  C   UNL     1      -5.729  -2.178 132.168  0.00  0.00    +0.000 C 
ATOM     22  O   UNL     1      -7.216  -3.281 132.274  0.00  0.00    +0.000 OA
ATOM     23  C   UNL     1      -5.759  -1.100 130.272  0.00  0.00    +0.000 C 
ATOM     24  N   UNL     1      -5.083  -2.138 130.042  0.00  0.00    +0.000 N 
ATOM     25  C   UNL     1      -4.742  -0.571 131.369  0.00  0.00    +0.000 C 
ATOM     26  O   UNL     1      -4.943  -2.321 130.708  0.00  0.00    +0.000 OA
ATOM     27  H   UNL     1      -2.014   5.659 133.647  0.00  0.00    +0.000 HD
ATOM     28  H   UNL     1      -2.513  11.764 133.578  0.00  0.00    +0.000 HD
ATOM     29  H   UNL     1      -5.997  -1.321 134.209  0.00  0.00    +0.000 HD
ATOM     30  H   UNL     1      -4.256  -2.546 129.626  0.00  0.00    +0.000 HD
ENDROOT
BRANCH  14  31
ATOM     31  C   UNL     1      -6.444   3.061 130.519  0.00  0.00    +0.000 C 
ATOM     32  O   UNL     1      -7.500   2.507 130.268  0.00  0.00    +0.000 OA
ATOM     33  N   UNL     1      -5.579   3.159 129.442  0.00  0.00    +0.000 N 
ATOM     34  C   UNL     1      -4.161   2.853 129.418  0.00  0.00    +0.000 C 
ATOM     35  C   UNL     1      -3.607   3.979 128.590  0.00  0.00    +0.000 C 
ATOM     36  C   UNL     1      -4.610   4.095 127.451  0.00  0.00    +0.000 C 
ATOM     37  C   UNL     1      -5.926   3.729 128.100  0.00  0.00    +0.000 C 
BRANCH  37  38
ATOM     38  C   UNL     1      -6.280   2.693 127.066  0.00  0.00    +0.000 C 
ATOM     39  O   UNL     1      -5.839   1.352 127.420  0.00  0.00    +0.000 OA
ATOM     40  N   UNL     1      -7.491   2.811 126.237  0.00  0.00    +0.000 N 
ATOM     41  C   UNL     1      -7.869   4.145 125.881  0.00  0.00    +0.000 C 
BRANCH  40  42
ATOM     42  C   UNL     1      -8.126   1.636 125.534  0.00  0.00    +0.000 C 
BRANCH  42  43
ATOM     43  C   UNL     1      -7.050   0.887 124.707  0.00  0.00    +0.000 C 
ATOM     44  O   UNL     1      -6.154   1.515 124.134  0.00  0.00    +0.000 OA
ATOM     45  N   UNL     1      -7.096  -0.516 124.614  0.00  0.00    +0.000 N 
ATOM     46  H   UNL     1      -7.815  -1.054 125.067  0.00  0.00    +0.000 HD
BRANCH  45  47
ATOM     47  C   UNL     1      -6.093  -1.254 123.837  0.00  0.00    +0.000 C 
BRANCH  47  48
ATOM     48  C   UNL     1      -6.194  -2.776 124.057  0.00  0.00    +0.000 C 
ATOM     49  N   UNL     1      -7.467  -3.321 124.347  0.00  0.00    +0.000 N 
ATOM     50  O   UNL     1      -5.184  -3.481 123.981  0.00  0.00    +0.000 OA
ATOM     51  H   UNL     1      -8.309  -2.779 124.414  0.00  0.00    +0.000 HD
ATOM     52  H   UNL     1      -7.578  -4.321 124.496  0.00  0.00    +0.000 HD
ENDBRANCH  47  48
ENDBRANCH  45  47
ENDBRANCH  42  43
BRANCH  42  53
ATOM     53  C   UNL     1      -9.259   2.057 124.642  0.00  0.00    +0.000 C 
BRANCH  53  54
ATOM     54  C   UNL     1      -9.052   1.640 123.211  0.00  0.00    +0.000 C 
ATOM     55  C   UNL     1     -10.157   0.899 122.652  0.00  0.00    +0.000 C 
ATOM     56  C   UNL     1      -8.920   2.777 122.300  0.00  0.00    +0.000 C 
ENDBRANCH  53  54
ENDBRANCH  42  53
ENDBRANCH  40  42
ENDBRANCH  37  38
ENDBRANCH  14  31
BRANCH   9  57
ATOM     57  N   UNL     1      -1.116   8.654 136.035  0.00  0.00    +0.000 NA
ATOM     58  H   UNL     1      -0.225   8.553 135.802  0.00  0.00    +0.000 HD
ATOM     59  H   UNL     1      -0.636   7.535 136.360  0.00  0.00    +0.000 HD
ENDBRANCH   9  57
BRANCH   1  60
ATOM     60  C   UNL     1      -6.270   0.007 131.793  0.00  0.00    +0.000 C 
ATOM     61  C   UNL     1      -8.265  -1.454 131.124  0.00  0.00    +0.000 C 
BRANCH  60  63
ATOM     62  C   UNL     1      -9.420   0.366 131.936  0.00  0.00    +0.000 C 
ATOM     63  C   UNL     1      -8.223  -0.591 131.996  0.00  0.00    +0.000 C 
ENDBRANCH  60  63
ENDBRANCH   1  60
BRANCH  19  64
ATOM     64  C   UNL     1      -3.368  -0.502 132.385  0.00  0.00    +0.000 C 
BRANCH  64  65
ATOM     65  C   UNL     1      -2.343  -1.213 133.321  0.00  0.00    +0.000 C 
ATOM     66  N   UNL     1      -1.305  -0.606 134.067  0.00  0.00    +0.000 N 
ATOM     67  O   UNL     1      -2.432  -2.408 133.491  0.00  0.00    +0.000 OA
ATOM     68  H   UNL     1      -0.790   0.448 134.296  0.00  0.00    +0.000 HD
ATOM     69  H   UNL     1      -0.694  -0.822 134.714  0.00  0.00    +0.000 HD
ENDBRANCH  64  65
ENDBRANCH  19  64
BRANCH   5  70
ATOM     70  C   UNL     1      -2.440  10.484 136.444  0.00  0.00    +0.000 C 
BRANCH  70  71
ATOM     71  C   UNL     1      -3.778  10.330 137.247  0.00  0.00    +0.000 A 
ATOM     72  C   UNL     1      -4.254  11.258 138.159  0.00  0.00    +0.000 A 
ATOM     73  C   UNL     1      -5.536  11.160 138.686  0.00  0.00    +0.000 A 
ATOM     74  C   UNL     1      -6.345  10.115 138.285  0.00  0.00    +0.000 A 
ATOM     75  C   UNL     1      -5.863   9.167 137.408  0.00  0.00    +0.000 A 
ATOM     76  C   UNL     1      -4.595   9.279 136.897  0.00  0.00    +0.000 A 
BRANCH  74  77
ATOM     77  O   UNL     1      -7.619   9.935 138.717  0.00  0.00    +0.000 OA
ATOM     78  H   UNL     1      -8.017   9.071 138.558  0.00  0.00    +0.000 HD
ENDBRANCH  74  77
ENDBRANCH  70  71
ENDBRANCH   5  70
BRANCH  23  79
ATOM     79  C   UNL     1      -6.986  -0.815 129.694  0.00  0.00    +0.000 C 
BRANCH  79  80
ATOM     80  C   UNL     1      -6.944  -0.950 128.002  0.00  0.00    +0.000 C 
BRANCH  80  81
ATOM     81  C   UNL     1      -7.906  -2.074 127.687  0.00  0.00    +0.000 C 
ATOM     82  N   UNL     1      -7.881  -3.285 128.331  0.00  0.00    +0.000 N 
ATOM     83  O   UNL     1      -8.726  -1.860 126.809  0.00  0.00    +0.000 OA
ATOM     84  H   UNL     1      -7.318  -3.517 129.025  0.00  0.00    +0.000 HD
ATOM     85  H   UNL     1      -8.589  -4.013 128.277  0.00  0.00    +0.000 HD
ENDBRANCH  80  81
ENDBRANCH  79  80
ENDBRANCH  23  79
TORSDOF 19
ENDMDL
MODEL 6
REMARK VINA RESULT:     -10.1      1.654      2.034
REMARK  Name = CHEMBL3813858
REMARK  25 active torsions:
REMARK  status: ('A' for Active; 'I' for Inactive)
REMARK    1  A    between atoms: C_1  and  C_2
REMARK    2  A    between atoms: C_2  and  C_3
REMARK    3  A    between atoms: C_3  and  C_4
REMARK    4  A    between atoms: C_3  and  C_5
REMARK    5  A    between atoms: C_9  and  C_10
REMARK    6  A    between atoms: C_10  and  C_11
REMARK    7  A    between atoms: C_14  and  O_15
REMARK    8  A    between atoms: C_21  and  N_22
REMARK    9  A    between atoms: C_27  and  C_28
REMARK   10  A    between atoms: C_34  and  C_35
REMARK   11  A    between atoms: N_37  and  C_38
REMARK   12  A    between atoms: N_37  and  C_39
REMARK   13  A    between atoms: C_39  and  C_40
REMARK   14  A    between atoms: C_39  and  C_44
REMARK   15  A    between atoms: C_40  and  C_41
REMARK   16  A    between atoms: C_41  and  C_42
REMARK   17  A    between atoms: C_41  and  C_43
REMARK   18  A    between atoms: N_46  and  C_47
REMARK   19  A    between atoms: C_47  and  C_48
REMARK   20  A    between atoms: N_51  and  C_52
REMARK   21  A    between atoms: C_55  and  C_56
REMARK   22  A    between atoms: C_56  and  C_57
REMARK   23  A    between atoms: C_63  and  C_64
REMARK   24  A    between atoms: C_64  and  C_65
REMARK   25  A    between atoms: C_65  and  C_66
REMARK                            x       y       z     vdW  Elec       q    Type
REMARK                         _______ _______ _______ _____ _____    ______ ____
ROOT
ATOM      1  C   UNL     1      -4.126   2.040 131.886  0.00  0.00    +0.000 C 
ATOM      2  N   UNL     1      -3.064   4.378 133.112  0.00  0.00    +0.000 N 
ATOM      3  C   UNL     1      -2.175   6.706 134.271  0.00  0.00    +0.000 C 
ATOM      4  O   UNL     1      -1.099   7.841 135.294  0.00  0.00    +0.000 OA
ATOM      5  C   UNL     1      -2.158   9.331 135.257  0.00  0.00    +0.000 C 
ATOM      6  N   UNL     1      -2.425  10.931 134.650  0.00  0.00    +0.000 N 
ATOM      7  C   UNL     1      -2.328   9.815 133.961  0.00  0.00    +0.000 C 
ATOM      8  O   UNL     1      -2.372   9.631 132.789  0.00  0.00    +0.000 OA
ATOM      9  C   UNL     1      -2.535   8.320 134.469  0.00  0.00    +0.000 C 
ATOM     10  C   UNL     1      -3.501   7.398 134.882  0.00  0.00    +0.000 C 
ATOM     11  S   UNL     1      -3.331   7.054 132.855  0.00  0.00    +0.000 S 
ATOM     12  S   UNL     1      -4.717   5.637 132.889  0.00  0.00    +0.000 S 
ATOM     13  C   UNL     1      -4.648   4.933 131.217  0.00  0.00    +0.000 C 
ATOM     14  C   UNL     1      -5.708   3.937 131.071  0.00  0.00    +0.000 C 
ATOM     15  N   UNL     1      -5.355   3.113 132.035  0.00  0.00    +0.000 N 
ATOM     16  C   UNL     1      -5.196   2.914 133.430  0.00  0.00    +0.000 C 
ATOM     17  C   UNL     1      -6.067   2.021 131.916  0.00  0.00    +0.000 C 
ATOM     18  O   UNL     1      -5.560   1.807 130.750  0.00  0.00    +0.000 OA
ATOM     19  C   UNL     1      -5.049   0.367 132.438  0.00  0.00    +0.000 C 
ATOM     20  N   UNL     1      -5.693  -0.925 132.313  0.00  0.00    +0.000 N 
ATOM     21  C   UNL     1      -5.578  -1.907 130.974  0.00  0.00    +0.000 C 
ATOM     22  O   UNL     1      -7.053  -2.976 130.629  0.00  0.00    +0.000 OA
ATOM     23  C   UNL     1      -5.125  -0.703 129.212  0.00  0.00    +0.000 C 
ATOM     24  N   UNL     1      -4.421  -1.741 129.083  0.00  0.00    +0.000 N 
ATOM     25  C   UNL     1      -4.409  -0.277 130.562  0.00  0.00    +0.000 C 
ATOM     26  O   UNL     1      -4.453  -1.972 129.748  0.00  0.00    +0.000 OA
ATOM     27  H   UNL     1      -2.284   5.713 133.886  0.00  0.00    +0.000 HD
ATOM     28  H   UNL     1      -2.699  11.820 134.133  0.00  0.00    +0.000 HD
ATOM     29  H   UNL     1      -6.338  -1.183 132.940  0.00  0.00    +0.000 HD
ATOM     30  H   UNL     1      -3.520  -2.141 128.857  0.00  0.00    +0.000 HD
ENDROOT
BRANCH  14  31
ATOM     31  C   UNL     1      -5.815   3.447 129.578  0.00  0.00    +0.000 C 
ATOM     32  O   UNL     1      -6.733   2.832 129.066  0.00  0.00    +0.000 OA
ATOM     33  N   UNL     1      -4.766   3.730 128.720  0.00  0.00    +0.000 N 
ATOM     34  C   UNL     1      -3.348   3.553 128.970  0.00  0.00    +0.000 C 
ATOM     35  C   UNL     1      -2.762   4.801 128.373  0.00  0.00    +0.000 C 
ATOM     36  C   UNL     1      -3.520   4.946 127.062  0.00  0.00    +0.000 C 
ATOM     37  C   UNL     1      -4.894   4.402 127.386  0.00  0.00    +0.000 C 
BRANCH  37  38
ATOM     38  C   UNL     1      -4.920   3.450 126.220  0.00  0.00    +0.000 C 
ATOM     39  O   UNL     1      -4.597   2.079 126.587  0.00  0.00    +0.000 OA
ATOM     40  N   UNL     1      -5.830   3.649 125.081  0.00  0.00    +0.000 N 
ATOM     41  C   UNL     1      -6.093   5.012 124.729  0.00  0.00    +0.000 C 
BRANCH  40  42
ATOM     42  C   UNL     1      -6.222   2.539 124.135  0.00  0.00    +0.000 C 
BRANCH  42  43
ATOM     43  C   UNL     1      -6.655   3.148 122.777  0.00  0.00    +0.000 C 
ATOM     44  O   UNL     1      -7.830   3.478 122.586  0.00  0.00    +0.000 OA
ATOM     45  N   UNL     1      -5.700   3.327 121.760  0.00  0.00    +0.000 N 
ATOM     46  H   UNL     1      -4.737   3.065 121.884  0.00  0.00    +0.000 HD
BRANCH  45  47
ATOM     47  C   UNL     1      -6.078   3.899 120.462  0.00  0.00    +0.000 C 
BRANCH  47  48
ATOM     48  C   UNL     1      -5.323   5.208 120.163  0.00  0.00    +0.000 C 
ATOM     49  N   UNL     1      -5.491   5.796 118.887  0.00  0.00    +0.000 N 
ATOM     50  O   UNL     1      -4.595   5.714 121.023  0.00  0.00    +0.000 OA
ATOM     51  H   UNL     1      -6.075   5.414 118.165  0.00  0.00    +0.000 HD
ATOM     52  H   UNL     1      -5.013   6.661 118.650  0.00  0.00    +0.000 HD
ENDBRANCH  47  48
ENDBRANCH  45  47
ENDBRANCH  42  43
BRANCH  42  53
ATOM     53  C   UNL     1      -7.328   1.688 124.692  0.00  0.00    +0.000 C 
BRANCH  53  54
ATOM     54  C   UNL     1      -7.896   0.739 123.672  0.00  0.00    +0.000 C 
ATOM     55  C   UNL     1      -7.028  -0.370 123.358  0.00  0.00    +0.000 C 
ATOM     56  C   UNL     1      -9.123   0.084 124.125  0.00  0.00    +0.000 C 
ENDBRANCH  53  54
ENDBRANCH  42  53
ENDBRANCH  40  42
ENDBRANCH  37  38
ENDBRANCH  14  31
BRANCH   9  57
ATOM     57  N   UNL     1      -1.985   8.517 136.630  0.00  0.00    +0.000 NA
ATOM     58  H   UNL     1      -2.805   8.464 137.058  0.00  0.00    +0.000 HD
ATOM     59  H   UNL     1      -2.439   9.638 136.987  0.00  0.00    +0.000 HD
ENDBRANCH   9  57
BRANCH   1  60
ATOM     60  C   UNL     1      -5.990   0.312 130.634  0.00  0.00    +0.000 C 
ATOM     61  C   UNL     1      -7.787  -1.046 129.413  0.00  0.00    +0.000 C 
BRANCH  60  63
ATOM     62  C   UNL     1      -9.045  -0.052 131.414  0.00  0.00    +0.000 C 
ATOM     63  C   UNL     1      -7.924  -0.337 130.406  0.00  0.00    +0.000 C 
ENDBRANCH  60  63
ENDBRANCH   1  60
BRANCH  19  64
ATOM     64  C   UNL     1      -3.331  -0.312 131.890  0.00  0.00    +0.000 C 
BRANCH  64  65
ATOM     65  C   UNL     1      -2.585  -1.123 132.992  0.00  0.00    +0.000 C 
ATOM     66  N   UNL     1      -2.597  -2.526 133.175  0.00  0.00    +0.000 N 
ATOM     67  O   UNL     1      -1.872  -0.535 133.774  0.00  0.00    +0.000 OA
ATOM     68  H   UNL     1      -3.061  -3.537 132.738  0.00  0.00    +0.000 HD
ATOM     69  H   UNL     1      -2.172  -3.168 133.671  0.00  0.00    +0.000 HD
ENDBRANCH  64  65
ENDBRANCH  19  64
BRANCH   5  70
ATOM     70  C   UNL     1      -3.353  10.349 136.828  0.00  0.00    +0.000 C 
BRANCH  70  71
ATOM     71  C   UNL     1      -3.032  11.594 137.724  0.00  0.00    +0.000 A 
ATOM     72  C   UNL     1      -3.978  12.299 138.451  0.00  0.00    +0.000 A 
ATOM     73  C   UNL     1      -3.603  13.265 139.378  0.00  0.00    +0.000 A 
ATOM     74  C   UNL     1      -2.259  13.518 139.573  0.00  0.00    +0.000 A 
ATOM     75  C   UNL     1      -1.316  12.848 138.824  0.00  0.00    +0.000 A 
ATOM     76  C   UNL     1      -1.703  11.898 137.914  0.00  0.00    +0.000 A 
BRANCH  74  77
ATOM     77  O   UNL     1      -1.781  14.421 140.466  0.00  0.00    +0.000 OA
ATOM     78  H   UNL     1      -2.303  14.563 141.266  0.00  0.00    +0.000 HD
ENDBRANCH  74  77
ENDBRANCH  70  71
ENDBRANCH   5  70
BRANCH  23  79
ATOM     79  C   UNL     1      -6.166  -0.349 128.370  0.00  0.00    +0.000 C 
BRANCH  79  80
ATOM     80  C   UNL     1      -5.778  -0.589 126.734  0.00  0.00    +0.000 C 
BRANCH  80  81
ATOM     81  C   UNL     1      -6.247  -1.995 126.435  0.00  0.00    +0.000 C 
ATOM     82  N   UNL     1      -7.537  -2.296 126.080  0.00  0.00    +0.000 N 
ATOM     83  O   UNL     1      -5.413  -2.881 126.529  0.00  0.00    +0.000 OA
ATOM     84  H   UNL     1      -8.220  -1.686 125.954  0.00  0.00    +0.000 HD
ATOM     85  H   UNL     1      -7.875  -3.184 125.718  0.00  0.00    +0.000 HD
ENDBRANCH  80  81
ENDBRANCH  79  80
ENDBRANCH  23  79
TORSDOF 19
ENDMDL
MODEL 7
REMARK VINA RESULT:     -10.1      1.711      2.665
REMARK  Name = CHEMBL3813858
REMARK  25 active torsions:
REMARK  status: ('A' for Active; 'I' for Inactive)
REMARK    1  A    between atoms: C_1  and  C_2
REMARK    2  A    between atoms: C_2  and  C_3
REMARK    3  A    between atoms: C_3  and  C_4
REMARK    4  A    between atoms: C_3  and  C_5
REMARK    5  A    between atoms: C_9  and  C_10
REMARK    6  A    between atoms: C_10  and  C_11
REMARK    7  A    between atoms: C_14  and  O_15
REMARK    8  A    between atoms: C_21  and  N_22
REMARK    9  A    between atoms: C_27  and  C_28
REMARK   10  A    between atoms: C_34  and  C_35
REMARK   11  A    between atoms: N_37  and  C_38
REMARK   12  A    between atoms: N_37  and  C_39
REMARK   13  A    between atoms: C_39  and  C_40
REMARK   14  A    between atoms: C_39  and  C_44
REMARK   15  A    between atoms: C_40  and  C_41
REMARK   16  A    between atoms: C_41  and  C_42
REMARK   17  A    between atoms: C_41  and  C_43
REMARK   18  A    between atoms: N_46  and  C_47
REMARK   19  A    between atoms: C_47  and  C_48
REMARK   20  A    between atoms: N_51  and  C_52
REMARK   21  A    between atoms: C_55  and  C_56
REMARK   22  A    between atoms: C_56  and  C_57
REMARK   23  A    between atoms: C_63  and  C_64
REMARK   24  A    between atoms: C_64  and  C_65
REMARK   25  A    between atoms: C_65  and  C_66
REMARK                            x       y       z     vdW  Elec       q    Type
REMARK                         _______ _______ _______ _____ _____    ______ ____
ROOT
ATOM      1  C   UNL     1      -3.855   1.561 132.188  0.00  0.00    +0.000 C 
ATOM      2  N   UNL     1      -2.890   3.954 133.388  0.00  0.00    +0.000 N 
ATOM      3  C   UNL     1      -2.097   6.328 134.523  0.00  0.00    +0.000 C 
ATOM      4  O   UNL     1      -1.060   7.520 135.521  0.00  0.00    +0.000 OA
ATOM      5  C   UNL     1      -2.194   8.954 135.501  0.00  0.00    +0.000 C 
ATOM      6  N   UNL     1      -2.552  10.537 134.895  0.00  0.00    +0.000 N 
ATOM      7  C   UNL     1      -2.412   9.424 134.207  0.00  0.00    +0.000 C 
ATOM      8  O   UNL     1      -2.468   9.234 133.037  0.00  0.00    +0.000 OA
ATOM      9  C   UNL     1      -2.534   7.922 134.723  0.00  0.00    +0.000 C 
ATOM     10  C   UNL     1      -3.444   6.955 135.157  0.00  0.00    +0.000 C 
ATOM     11  S   UNL     1      -3.295   6.612 133.128  0.00  0.00    +0.000 S 
ATOM     12  S   UNL     1      -4.607   5.127 133.192  0.00  0.00    +0.000 S 
ATOM     13  C   UNL     1      -4.535   4.421 131.521  0.00  0.00    +0.000 C 
ATOM     14  C   UNL     1      -5.546   3.372 131.398  0.00  0.00    +0.000 C 
ATOM     15  N   UNL     1      -5.133   2.571 132.357  0.00  0.00    +0.000 N 
ATOM     16  C   UNL     1      -4.938   2.386 133.750  0.00  0.00    +0.000 C 
ATOM     17  C   UNL     1      -5.791   1.445 132.256  0.00  0.00    +0.000 C 
ATOM     18  O   UNL     1      -5.297   1.251 131.081  0.00  0.00    +0.000 OA
ATOM     19  C   UNL     1      -4.682  -0.154 132.762  0.00  0.00    +0.000 C 
ATOM     20  N   UNL     1      -5.262  -1.478 132.653  0.00  0.00    +0.000 N 
ATOM     21  C   UNL     1      -5.123  -2.458 131.315  0.00  0.00    +0.000 C 
ATOM     22  O   UNL     1      -6.549  -3.601 131.001  0.00  0.00    +0.000 OA
ATOM     23  C   UNL     1      -4.765  -1.240 129.541  0.00  0.00    +0.000 C 
ATOM     24  N   UNL     1      -4.012  -2.241 129.402  0.00  0.00    +0.000 N 
ATOM     25  C   UNL     1      -4.046  -0.772 130.876  0.00  0.00    +0.000 C 
ATOM     26  O   UNL     1      -4.020  -2.471 130.068  0.00  0.00    +0.000 OA
ATOM     27  H   UNL     1      -2.162   5.329 134.142  0.00  0.00    +0.000 HD
ATOM     28  H   UNL     1      -2.880  11.408 134.380  0.00  0.00    +0.000 HD
ATOM     29  H   UNL     1      -5.882  -1.765 133.294  0.00  0.00    +0.000 HD
ATOM     30  H   UNL     1      -3.097  -2.596 129.160  0.00  0.00    +0.000 HD
ENDROOT
BRANCH  14  31
ATOM     31  C   UNL     1      -5.656   2.873 129.909  0.00  0.00    +0.000 C 
ATOM     32  O   UNL     1      -4.772   2.392 129.223  0.00  0.00    +0.000 OA
ATOM     33  N   UNL     1      -6.882   2.974 129.274  0.00  0.00    +0.000 N 
ATOM     34  C   UNL     1      -7.772   4.121 129.250  0.00  0.00    +0.000 C 
ATOM     35  C   UNL     1      -9.121   3.479 129.418  0.00  0.00    +0.000 C 
ATOM     36  C   UNL     1      -9.045   2.270 128.497  0.00  0.00    +0.000 C 
ATOM     37  C   UNL     1      -7.593   1.854 128.576  0.00  0.00    +0.000 C 
BRANCH  37  38
ATOM     38  C   UNL     1      -7.396   1.837 127.084  0.00  0.00    +0.000 C 
ATOM     39  O   UNL     1      -8.046   0.712 126.429  0.00  0.00    +0.000 OA
ATOM     40  N   UNL     1      -7.255   3.082 126.310  0.00  0.00    +0.000 N 
ATOM     41  C   UNL     1      -6.579   4.152 126.977  0.00  0.00    +0.000 C 
BRANCH  40  42
ATOM     42  C   UNL     1      -7.505   3.160 124.823  0.00  0.00    +0.000 C 
BRANCH  42  43
ATOM     43  C   UNL     1      -8.638   2.175 124.438  0.00  0.00    +0.000 C 
ATOM     44  O   UNL     1      -9.795   2.374 124.820  0.00  0.00    +0.000 OA
ATOM     45  N   UNL     1      -8.342   1.051 123.645  0.00  0.00    +0.000 N 
ATOM     46  H   UNL     1      -7.410   0.860 123.322  0.00  0.00    +0.000 HD
BRANCH  45  47
ATOM     47  C   UNL     1      -9.393   0.098 123.265  0.00  0.00    +0.000 C 
BRANCH  47  48
ATOM     48  C   UNL     1      -8.936  -1.364 123.427  0.00  0.00    +0.000 C 
ATOM     49  N   UNL     1      -7.797  -1.788 122.703  0.00  0.00    +0.000 N 
ATOM     50  O   UNL     1      -9.559  -2.129 124.169  0.00  0.00    +0.000 OA
ATOM     51  H   UNL     1      -7.266  -1.194 122.093  0.00  0.00    +0.000 HD
ATOM     52  H   UNL     1      -7.461  -2.744 122.784  0.00  0.00    +0.000 HD
ENDBRANCH  47  48
ENDBRANCH  45  47
ENDBRANCH  42  43
BRANCH  42  53
ATOM     53  C   UNL     1      -6.267   2.855 124.027  0.00  0.00    +0.000 C 
BRANCH  53  54
ATOM     54  C   UNL     1      -6.121   3.746 122.823  0.00  0.00    +0.000 C 
ATOM     55  C   UNL     1      -4.906   4.525 122.816  0.00  0.00    +0.000 C 
ATOM     56  C   UNL     1      -6.045   2.999 121.568  0.00  0.00    +0.000 C 
ENDBRANCH  53  54
ENDBRANCH  42  53
ENDBRANCH  40  42
ENDBRANCH  37  38
ENDBRANCH  14  31
BRANCH   9  57
ATOM     57  N   UNL     1      -1.953   8.155 136.872  0.00  0.00    +0.000 NA
ATOM     58  H   UNL     1      -1.122   7.746 136.908  0.00  0.00    +0.000 HD
ATOM     59  H   UNL     1      -1.986   6.989 137.353  0.00  0.00    +0.000 HD
ENDBRANCH   9  57
BRANCH   1  60
ATOM     60  C   UNL     1      -5.653  -0.264 130.977  0.00  0.00    +0.000 C 
ATOM     61  C   UNL     1      -7.390  -1.716 129.778  0.00  0.00    +0.000 C 
BRANCH  60  63
ATOM     62  C   UNL     1      -8.797  -0.332 131.401  0.00  0.00    +0.000 C 
ATOM     63  C   UNL     1      -7.569  -0.956 130.726  0.00  0.00    +0.000 C 
ENDBRANCH  60  63
ENDBRANCH   1  60
BRANCH  19  64
ATOM     64  C   UNL     1      -2.943  -0.748 132.184  0.00  0.00    +0.000 C 
BRANCH  64  65
ATOM     65  C   UNL     1      -2.083  -1.398 133.310  0.00  0.00    +0.000 C 
ATOM     66  N   UNL     1      -1.103  -0.765 134.110  0.00  0.00    +0.000 N 
ATOM     67  O   UNL     1      -2.269  -2.560 133.594  0.00  0.00    +0.000 OA
ATOM     68  H   UNL     1      -0.553   0.281 134.287  0.00  0.00    +0.000 HD
ATOM     69  H   UNL     1      -0.589  -0.936 134.848  0.00  0.00    +0.000 HD
ENDBRANCH  64  65
ENDBRANCH  19  64
BRANCH   5  70
ATOM     70  C   UNL     1      -3.408   9.916 137.091  0.00  0.00    +0.000 C 
BRANCH  70  71
ATOM     71  C   UNL     1      -4.917   9.748 137.482  0.00  0.00    +0.000 A 
ATOM     72  C   UNL     1      -5.660   8.601 137.254  0.00  0.00    +0.000 A 
ATOM     73  C   UNL     1      -6.929   8.443 137.800  0.00  0.00    +0.000 A 
ATOM     74  C   UNL     1      -7.450   9.454 138.585  0.00  0.00    +0.000 A 
ATOM     75  C   UNL     1      -6.731  10.614 138.781  0.00  0.00    +0.000 A 
ATOM     76  C   UNL     1      -5.480  10.753 138.236  0.00  0.00    +0.000 A 
BRANCH  74  77
ATOM     77  O   UNL     1      -8.665   9.396 139.184  0.00  0.00    +0.000 OA
ATOM     78  H   UNL     1      -8.678   9.192 140.128  0.00  0.00    +0.000 HD
ENDBRANCH  74  77
ENDBRANCH  70  71
ENDBRANCH   5  70
BRANCH  23  79
ATOM     79  C   UNL     1      -5.838  -0.941 128.718  0.00  0.00    +0.000 C 
BRANCH  79  80
ATOM     80  C   UNL     1      -5.378  -0.801 127.089  0.00  0.00    +0.000 C 
BRANCH  80  81
ATOM     81  C   UNL     1      -6.045  -1.973 126.404  0.00  0.00    +0.000 C 
ATOM     82  N   UNL     1      -7.404  -2.158 126.390  0.00  0.00    +0.000 N 
ATOM     83  O   UNL     1      -5.309  -2.774 125.853  0.00  0.00    +0.000 OA
ATOM     84  H   UNL     1      -8.032  -1.585 126.752  0.00  0.00    +0.000 HD
ATOM     85  H   UNL     1      -7.918  -2.828 125.822  0.00  0.00    +0.000 HD
ENDBRANCH  80  81
ENDBRANCH  79  80
ENDBRANCH  23  79
TORSDOF 19
ENDMDL
MODEL 8
REMARK VINA RESULT:      -9.8      2.941      4.141
REMARK  Name = CHEMBL3813858
REMARK  25 active torsions:
REMARK  status: ('A' for Active; 'I' for Inactive)
REMARK    1  A    between atoms: C_1  and  C_2
REMARK    2  A    between atoms: C_2  and  C_3
REMARK    3  A    between atoms: C_3  and  C_4
REMARK    4  A    between atoms: C_3  and  C_5
REMARK    5  A    between atoms: C_9  and  C_10
REMARK    6  A    between atoms: C_10  and  C_11
REMARK    7  A    between atoms: C_14  and  O_15
REMARK    8  A    between atoms: C_21  and  N_22
REMARK    9  A    between atoms: C_27  and  C_28
REMARK   10  A    between atoms: C_34  and  C_35
REMARK   11  A    between atoms: N_37  and  C_38
REMARK   12  A    between atoms: N_37  and  C_39
REMARK   13  A    between atoms: C_39  and  C_40
REMARK   14  A    between atoms: C_39  and  C_44
REMARK   15  A    between atoms: C_40  and  C_41
REMARK   16  A    between atoms: C_41  and  C_42
REMARK   17  A    between atoms: C_41  and  C_43
REMARK   18  A    between atoms: N_46  and  C_47
REMARK   19  A    between atoms: C_47  and  C_48
REMARK   20  A    between atoms: N_51  and  C_52
REMARK   21  A    between atoms: C_55  and  C_56
REMARK   22  A    between atoms: C_56  and  C_57
REMARK   23  A    between atoms: C_63  and  C_64
REMARK   24  A    between atoms: C_64  and  C_65
REMARK   25  A    between atoms: C_65  and  C_66
REMARK                            x       y       z     vdW  Elec       q    Type
REMARK                         _______ _______ _______ _____ _____    ______ ____
ROOT
ATOM      1  C   UNL     1      -3.989   0.861 134.863  0.00  0.00    +0.000 C 
ATOM      2  N   UNL     1      -3.690   3.326 136.253  0.00  0.00    +0.000 N 
ATOM      3  C   UNL     1      -3.539   5.749 137.540  0.00  0.00    +0.000 C 
ATOM      4  O   UNL     1      -2.949   7.043 138.753  0.00  0.00    +0.000 OA
ATOM      5  C   UNL     1      -4.243   8.302 138.464  0.00  0.00    +0.000 C 
ATOM      6  N   UNL     1      -4.678   9.836 137.788  0.00  0.00    +0.000 N 
ATOM      7  C   UNL     1      -4.220   8.778 137.154  0.00  0.00    +0.000 C 
ATOM      8  O   UNL     1      -3.974   8.621 136.004  0.00  0.00    +0.000 OA
ATOM      9  C   UNL     1      -4.238   7.258 137.629  0.00  0.00    +0.000 C 
ATOM     10  C   UNL     1      -5.074   6.157 137.838  0.00  0.00    +0.000 C 
ATOM     11  S   UNL     1      -4.407   5.906 135.901  0.00  0.00    +0.000 S 
ATOM     12  S   UNL     1      -5.467   4.249 135.657  0.00  0.00    +0.000 S 
ATOM     13  C   UNL     1      -4.905   3.616 134.051  0.00  0.00    +0.000 C 
ATOM     14  C   UNL     1      -5.695   2.439 133.694  0.00  0.00    +0.000 C 
ATOM     15  N   UNL     1      -5.405   1.673 134.725  0.00  0.00    +0.000 N 
ATOM     16  C   UNL     1      -5.515   1.472 136.125  0.00  0.00    +0.000 C 
ATOM     17  C   UNL     1      -5.850   0.468 134.473  0.00  0.00    +0.000 C 
ATOM     18  O   UNL     1      -5.072   0.386 133.447  0.00  0.00    +0.000 OA
ATOM     19  C   UNL     1      -4.668  -0.972 135.229  0.00  0.00    +0.000 C 
ATOM     20  N   UNL     1      -5.007  -2.361 134.988  0.00  0.00    +0.000 N 
ATOM     21  C   UNL     1      -4.418  -3.266 133.722  0.00  0.00    +0.000 C 
ATOM     22  O   UNL     1      -5.549  -4.589 133.082  0.00  0.00    +0.000 OA
ATOM     23  C   UNL     1      -3.838  -1.951 132.080  0.00  0.00    +0.000 C 
ATOM     24  N   UNL     1      -2.936  -2.831 132.123  0.00  0.00    +0.000 N 
ATOM     25  C   UNL     1      -3.526  -1.431 133.546  0.00  0.00    +0.000 C 
ATOM     26  O   UNL     1      -3.065  -3.081 132.769  0.00  0.00    +0.000 OA
ATOM     27  H   UNL     1      -3.367   4.765 137.156  0.00  0.00    +0.000 HD
ATOM     28  H   UNL     1      -5.000  10.669 137.210  0.00  0.00    +0.000 HD
ATOM     29  H   UNL     1      -5.710  -2.754 135.465  0.00  0.00    +0.000 HD
ATOM     30  H   UNL     1      -1.948  -3.043 132.104  0.00  0.00    +0.000 HD
ENDROOT
BRANCH  14  31
ATOM     31  C   UNL     1      -5.381   1.978 132.222  0.00  0.00    +0.000 C 
ATOM     32  O   UNL     1      -4.327   1.547 131.792  0.00  0.00    +0.000 OA
ATOM     33  N   UNL     1      -6.395   2.057 131.282  0.00  0.00    +0.000 N 
ATOM     34  C   UNL     1      -7.290   3.173 131.040  0.00  0.00    +0.000 C 
ATOM     35  C   UNL     1      -8.607   2.482 130.826  0.00  0.00    +0.000 C 
ATOM     36  C   UNL     1      -8.239   1.303 129.938  0.00  0.00    +0.000 C 
ATOM     37  C   UNL     1      -6.847   0.934 130.398  0.00  0.00    +0.000 C 
BRANCH  37  38
ATOM     38  C   UNL     1      -6.255   0.966 129.014  0.00  0.00    +0.000 C 
ATOM     39  O   UNL     1      -4.921   1.544 128.970  0.00  0.00    +0.000 OA
ATOM     40  N   UNL     1      -6.581  -0.063 128.012  0.00  0.00    +0.000 N 
ATOM     41  C   UNL     1      -7.914  -0.580 128.066  0.00  0.00    +0.000 C 
BRANCH  40  42
ATOM     42  C   UNL     1      -5.713  -0.345 126.809  0.00  0.00    +0.000 C 
BRANCH  42  43
ATOM     43  C   UNL     1      -5.256   0.994 126.178  0.00  0.00    +0.000 C 
ATOM     44  O   UNL     1      -6.006   1.614 125.417  0.00  0.00    +0.000 OA
ATOM     45  N   UNL     1      -3.980   1.506 126.478  0.00  0.00    +0.000 N 
ATOM     46  H   UNL     1      -3.347   1.023 127.090  0.00  0.00    +0.000 HD
BRANCH  45  47
ATOM     47  C   UNL     1      -3.518   2.771 125.894  0.00  0.00    +0.000 C 
BRANCH  47  48
ATOM     48  C   UNL     1      -3.715   3.959 126.855  0.00  0.00    +0.000 C 
ATOM     49  N   UNL     1      -5.033   4.268 127.266  0.00  0.00    +0.000 N 
ATOM     50  O   UNL     1      -2.741   4.612 127.241  0.00  0.00    +0.000 OA
ATOM     51  H   UNL     1      -5.848   3.758 126.974  0.00  0.00    +0.000 HD
ATOM     52  H   UNL     1      -5.207   5.043 127.902  0.00  0.00    +0.000 HD
ENDBRANCH  47  48
ENDBRANCH  45  47
ENDBRANCH  42  43
BRANCH  42  53
ATOM     53  C   UNL     1      -6.424  -1.181 125.783  0.00  0.00    +0.000 C 
BRANCH  53  54
ATOM     54  C   UNL     1      -5.497  -1.701 124.718  0.00  0.00    +0.000 C 
ATOM     55  C   UNL     1      -5.210  -3.111 124.831  0.00  0.00    +0.000 C 
ATOM     56  C   UNL     1      -6.054  -1.582 123.371  0.00  0.00    +0.000 C 
ENDBRANCH  53  54
ENDBRANCH  42  53
ENDBRANCH  40  42
ENDBRANCH  37  38
ENDBRANCH  14  31
BRANCH   9  57
ATOM     57  N   UNL     1      -4.215   7.500 139.855  0.00  0.00    +0.000 NA
ATOM     58  H   UNL     1      -4.942   8.054 140.010  0.00  0.00    +0.000 HD
ATOM     59  H   UNL     1      -3.896   8.703 140.054  0.00  0.00    +0.000 HD
ENDBRANCH   9  57
BRANCH   1  60
ATOM     60  C   UNL     1      -5.169  -1.160 133.265  0.00  0.00    +0.000 C 
ATOM     61  C   UNL     1      -6.347  -2.803 131.693  0.00  0.00    +0.000 C 
BRANCH  60  63
ATOM     62  C   UNL     1      -8.257  -1.492 132.612  0.00  0.00    +0.000 C 
ATOM     63  C   UNL     1      -6.852  -2.106 132.568  0.00  0.00    +0.000 C 
ENDBRANCH  60  63
ENDBRANCH   1  60
BRANCH  19  64
ATOM     64  C   UNL     1      -2.774  -1.293 135.076  0.00  0.00    +0.000 C 
BRANCH  64  65
ATOM     65  C   UNL     1      -2.097  -1.758 136.402  0.00  0.00    +0.000 C 
ATOM     66  N   UNL     1      -1.206  -1.015 137.211  0.00  0.00    +0.000 N 
ATOM     67  O   UNL     1      -2.366  -2.851 136.847  0.00  0.00    +0.000 OA
ATOM     68  H   UNL     1      -0.641   0.035 137.285  0.00  0.00    +0.000 HD
ATOM     69  H   UNL     1      -0.799  -1.067 138.030  0.00  0.00    +0.000 HD
ENDBRANCH  64  65
ENDBRANCH  19  64
BRANCH   5  70
ATOM     70  C   UNL     1      -5.923   9.028 139.722  0.00  0.00    +0.000 C 
BRANCH  70  71
ATOM     71  C   UNL     1      -7.453   9.172 139.418  0.00  0.00    +0.000 A 
ATOM     72  C   UNL     1      -8.251  10.202 139.889  0.00  0.00    +0.000 A 
ATOM     73  C   UNL     1      -9.548  10.381 139.423  0.00  0.00    +0.000 A 
ATOM     74  C   UNL     1     -10.042   9.511 138.470  0.00  0.00    +0.000 A 
ATOM     75  C   UNL     1      -9.267   8.461 138.028  0.00  0.00    +0.000 A 
ATOM     76  C   UNL     1      -7.989   8.299 138.497  0.00  0.00    +0.000 A 
BRANCH  74  77
ATOM     77  O   UNL     1     -11.283   9.607 137.930  0.00  0.00    +0.000 OA
ATOM     78  H   UNL     1     -11.510  10.441 137.500  0.00  0.00    +0.000 HD
ENDBRANCH  74  77
ENDBRANCH  70  71
ENDBRANCH   5  70
BRANCH  23  79
ATOM     79  C   UNL     1      -4.722  -1.782 131.027  0.00  0.00    +0.000 C 
BRANCH  79  80
ATOM     80  C   UNL     1      -3.923  -1.661 129.533  0.00  0.00    +0.000 C 
BRANCH  80  81
ATOM     81  C   UNL     1      -4.112  -3.017 128.891  0.00  0.00    +0.000 C 
ATOM     82  N   UNL     1      -3.124  -3.966 128.840  0.00  0.00    +0.000 N 
ATOM     83  O   UNL     1      -5.206  -3.240 128.399  0.00  0.00    +0.000 OA
ATOM     84  H   UNL     1      -2.282  -3.892 129.214  0.00  0.00    +0.000 HD
ATOM     85  H   UNL     1      -3.233  -4.940 128.568  0.00  0.00    +0.000 HD
ENDBRANCH  80  81
ENDBRANCH  79  80
ENDBRANCH  23  79
TORSDOF 19
ENDMDL
MODEL 9
REMARK VINA RESULT:      -9.7      3.174      3.986
REMARK  Name = CHEMBL3813858
REMARK  25 active torsions:
REMARK  status: ('A' for Active; 'I' for Inactive)
REMARK    1  A    between atoms: C_1  and  C_2
REMARK    2  A    between atoms: C_2  and  C_3
REMARK    3  A    between atoms: C_3  and  C_4
REMARK    4  A    between atoms: C_3  and  C_5
REMARK    5  A    between atoms: C_9  and  C_10
REMARK    6  A    between atoms: C_10  and  C_11
REMARK    7  A    between atoms: C_14  and  O_15
REMARK    8  A    between atoms: C_21  and  N_22
REMARK    9  A    between atoms: C_27  and  C_28
REMARK   10  A    between atoms: C_34  and  C_35
REMARK   11  A    between atoms: N_37  and  C_38
REMARK   12  A    between atoms: N_37  and  C_39
REMARK   13  A    between atoms: C_39  and  C_40
REMARK   14  A    between atoms: C_39  and  C_44
REMARK   15  A    between atoms: C_40  and  C_41
REMARK   16  A    between atoms: C_41  and  C_42
REMARK   17  A    between atoms: C_41  and  C_43
REMARK   18  A    between atoms: N_46  and  C_47
REMARK   19  A    between atoms: C_47  and  C_48
REMARK   20  A    between atoms: N_51  and  C_52
REMARK   21  A    between atoms: C_55  and  C_56
REMARK   22  A    between atoms: C_56  and  C_57
REMARK   23  A    between atoms: C_63  and  C_64
REMARK   24  A    between atoms: C_64  and  C_65
REMARK   25  A    between atoms: C_65  and  C_66
REMARK                            x       y       z     vdW  Elec       q    Type
REMARK                         _______ _______ _______ _____ _____    ______ ____
ROOT
ATOM      1  C   UNL     1      -3.829   0.444 134.233  0.00  0.00    +0.000 C 
ATOM      2  N   UNL     1      -3.555   2.545 136.133  0.00  0.00    +0.000 N 
ATOM      3  C   UNL     1      -3.444   4.585 137.971  0.00  0.00    +0.000 C 
ATOM      4  O   UNL     1      -2.732   5.711 139.281  0.00  0.00    +0.000 OA
ATOM      5  C   UNL     1      -4.270   6.573 139.768  0.00  0.00    +0.000 C 
ATOM      6  N   UNL     1      -5.218   8.022 139.732  0.00  0.00    +0.000 N 
ATOM      7  C   UNL     1      -4.815   7.298 138.710  0.00  0.00    +0.000 C 
ATOM      8  O   UNL     1      -4.972   7.462 137.545  0.00  0.00    +0.000 OA
ATOM      9  C   UNL     1      -4.354   5.773 138.701  0.00  0.00    +0.000 C 
ATOM     10  C   UNL     1      -4.818   4.460 138.813  0.00  0.00    +0.000 C 
ATOM     11  S   UNL     1      -4.856   4.821 136.781  0.00  0.00    +0.000 S 
ATOM     12  S   UNL     1      -5.574   3.017 136.384  0.00  0.00    +0.000 S 
ATOM     13  C   UNL     1      -5.511   2.923 134.572  0.00  0.00    +0.000 C 
ATOM     14  C   UNL     1      -6.121   1.668 134.134  0.00  0.00    +0.000 C 
ATOM     15  N   UNL     1      -5.332   0.822 134.762  0.00  0.00    +0.000 N 
ATOM     16  C   UNL     1      -4.890   0.311 136.008  0.00  0.00    +0.000 C 
ATOM     17  C   UNL     1      -5.585  -0.379 134.309  0.00  0.00    +0.000 C 
ATOM     18  O   UNL     1      -5.228  -0.018 133.124  0.00  0.00    +0.000 OA
ATOM     19  C   UNL     1      -3.945  -1.541 134.226  0.00  0.00    +0.000 C 
ATOM     20  N   UNL     1      -4.061  -2.886 133.699  0.00  0.00    +0.000 N 
ATOM     21  C   UNL     1      -3.796  -3.298 132.109  0.00  0.00    +0.000 C 
ATOM     22  O   UNL     1      -4.789  -4.728 131.470  0.00  0.00    +0.000 OA
ATOM     23  C   UNL     1      -4.123  -1.560 130.831  0.00  0.00    +0.000 C 
ATOM     24  N   UNL     1      -3.107  -2.130 130.348  0.00  0.00    +0.000 N 
ATOM     25  C   UNL     1      -3.417  -1.289 132.226  0.00  0.00    +0.000 C 
ATOM     26  O   UNL     1      -2.943  -2.536 130.900  0.00  0.00    +0.000 OA
ATOM     27  H   UNL     1      -3.227   3.795 137.282  0.00  0.00    +0.000 HD
ATOM     28  H   UNL     1      -5.888   8.827 139.545  0.00  0.00    +0.000 HD
ATOM     29  H   UNL     1      -4.451  -3.556 134.224  0.00  0.00    +0.000 HD
ATOM     30  H   UNL     1      -2.171  -2.039 129.977  0.00  0.00    +0.000 HD
ENDROOT
BRANCH  14  31
ATOM     31  C   UNL     1      -6.271   1.635 132.567  0.00  0.00    +0.000 C 
ATOM     32  O   UNL     1      -7.041   0.955 131.912  0.00  0.00    +0.000 OA
ATOM     33  N   UNL     1      -5.452   2.460 131.814  0.00  0.00    +0.000 N 
ATOM     34  C   UNL     1      -4.020   2.648 131.953  0.00  0.00    +0.000 C 
ATOM     35  C   UNL     1      -3.875   4.132 131.768  0.00  0.00    +0.000 C 
ATOM     36  C   UNL     1      -4.798   4.426 130.595  0.00  0.00    +0.000 C 
ATOM     37  C   UNL     1      -5.921   3.426 130.768  0.00  0.00    +0.000 C 
BRANCH  37  38
ATOM     38  C   UNL     1      -5.826   2.901 129.360  0.00  0.00    +0.000 C 
ATOM     39  O   UNL     1      -4.744   1.946 129.172  0.00  0.00    +0.000 OA
ATOM     40  N   UNL     1      -7.020   2.748 128.512  0.00  0.00    +0.000 N 
ATOM     41  C   UNL     1      -8.045   3.728 128.703  0.00  0.00    +0.000 C 
BRANCH  40  42
ATOM     42  C   UNL     1      -7.063   1.838 127.308  0.00  0.00    +0.000 C 
BRANCH  42  43
ATOM     43  C   UNL     1      -6.013   2.307 126.270  0.00  0.00    +0.000 C 
ATOM     44  O   UNL     1      -5.118   1.542 125.895  0.00  0.00    +0.000 OA
ATOM     45  N   UNL     1      -6.083   3.613 125.750  0.00  0.00    +0.000 N 
ATOM     46  H   UNL     1      -6.797   4.260 126.038  0.00  0.00    +0.000 HD
BRANCH  45  47
ATOM     47  C   UNL     1      -5.102   4.088 124.767  0.00  0.00    +0.000 C 
BRANCH  47  48
ATOM     48  C   UNL     1      -5.721   4.257 123.366  0.00  0.00    +0.000 C 
ATOM     49  N   UNL     1      -7.062   3.847 123.179  0.00  0.00    +0.000 N 
ATOM     50  O   UNL     1      -5.050   4.735 122.446  0.00  0.00    +0.000 OA
ATOM     51  H   UNL     1      -7.637   3.457 123.903  0.00  0.00    +0.000 HD
ATOM     52  H   UNL     1      -7.509   3.944 122.271  0.00  0.00    +0.000 HD
ENDBRANCH  47  48
ENDBRANCH  45  47
ENDBRANCH  42  43
BRANCH  42  53
ATOM     53  C   UNL     1      -8.426   1.801 126.678  0.00  0.00    +0.000 C 
BRANCH  53  54
ATOM     54  C   UNL     1      -8.488   0.881 125.488  0.00  0.00    +0.000 C 
ATOM     55  C   UNL     1      -9.142  -0.377 125.755  0.00  0.00    +0.000 C 
ATOM     56  C   UNL     1      -9.268   1.434 124.381  0.00  0.00    +0.000 C 
ENDBRANCH  53  54
ENDBRANCH  42  53
ENDBRANCH  40  42
ENDBRANCH  37  38
ENDBRANCH  14  31
BRANCH   9  57
ATOM     57  N   UNL     1      -3.583   5.542 140.789  0.00  0.00    +0.000 NA
ATOM     58  H   UNL     1      -4.276   5.880 141.304  0.00  0.00    +0.000 HD
ATOM     59  H   UNL     1      -3.378   6.717 141.199  0.00  0.00    +0.000 HD
ENDBRANCH   9  57
BRANCH   1  60
ATOM     60  C   UNL     1      -5.069  -1.452 132.532  0.00  0.00    +0.000 C 
ATOM     61  C   UNL     1      -6.371  -2.998 130.958  0.00  0.00    +0.000 C 
BRANCH  60  63
ATOM     62  C   UNL     1      -7.643  -3.203 133.151  0.00  0.00    +0.000 C 
ATOM     63  C   UNL     1      -6.678  -2.650 132.095  0.00  0.00    +0.000 C 
ENDBRANCH  60  63
ENDBRANCH   1  60
BRANCH  19  64
ATOM     64  C   UNL     1      -2.210  -1.262 133.438  0.00  0.00    +0.000 C 
BRANCH  64  65
ATOM     65  C   UNL     1      -1.028  -1.832 134.279  0.00  0.00    +0.000 C 
ATOM     66  N   UNL     1      -0.029  -1.094 134.958  0.00  0.00    +0.000 N 
ATOM     67  O   UNL     1      -0.938  -3.029 134.430  0.00  0.00    +0.000 OA
ATOM     68  H   UNL     1       0.350   0.019 135.170  0.00  0.00    +0.000 HD
ATOM     69  H   UNL     1       0.653  -1.229 135.554  0.00  0.00    +0.000 HD
ENDBRANCH  64  65
ENDBRANCH  19  64
BRANCH   5  70
ATOM     70  C   UNL     1      -5.494   6.504 141.619  0.00  0.00    +0.000 C 
BRANCH  70  71
ATOM     71  C   UNL     1      -6.781   5.683 141.976  0.00  0.00    +0.000 A 
ATOM     72  C   UNL     1      -7.450   4.854 141.089  0.00  0.00    +0.000 A 
ATOM     73  C   UNL     1      -8.461   4.003 141.520  0.00  0.00    +0.000 A 
ATOM     74  C   UNL     1      -8.797   3.989 142.860  0.00  0.00    +0.000 A 
ATOM     75  C   UNL     1      -8.162   4.841 143.739  0.00  0.00    +0.000 A 
ATOM     76  C   UNL     1      -7.166   5.673 143.297  0.00  0.00    +0.000 A 
BRANCH  74  77
ATOM     77  O   UNL     1      -9.751   3.184 143.392  0.00  0.00    +0.000 OA
ATOM     78  H   UNL     1      -9.968   2.381 142.903  0.00  0.00    +0.000 HD
ENDBRANCH  74  77
ENDBRANCH  70  71
ENDBRANCH   5  70
BRANCH  23  79
ATOM     79  C   UNL     1      -5.341  -1.438 130.182  0.00  0.00    +0.000 C 
BRANCH  79  80
ATOM     80  C   UNL     1      -5.159  -0.951 128.565  0.00  0.00    +0.000 C 
BRANCH  80  81
ATOM     81  C   UNL     1      -5.478  -2.189 127.758  0.00  0.00    +0.000 C 
ATOM     82  N   UNL     1      -6.688  -2.394 127.145  0.00  0.00    +0.000 N 
ATOM     83  O   UNL     1      -4.596  -3.028 127.674  0.00  0.00    +0.000 OA
ATOM     84  H   UNL     1      -7.395  -1.799 127.131  0.00  0.00    +0.000 HD
ATOM     85  H   UNL     1      -6.908  -3.120 126.468  0.00  0.00    +0.000 HD
ENDBRANCH  80  81
ENDBRANCH  79  80
ENDBRANCH  23  79
TORSDOF 19
ENDMDL
