MODEL 1
REMARK VINA RESULT:      -7.3      0.000      0.000
REMARK  Name = CHEMBL491421
REMARK  9 active torsions:
REMARK  status: ('A' for Active; 'I' for Inactive)
REMARK    1  A    between atoms: C_1  and  C_2
REMARK    2  A    between atoms: C_2  and  O_3
REMARK    3  A    between atoms: O_3  and  C_4
REMARK    4  A    between atoms: C_7  and  C_8
REMARK    5  A    between atoms: C_11  and  C_12
REMARK    6  A    between atoms: N_13  and  C_14
REMARK    7  A    between atoms: C_17  and  O_18
REMARK    8  A    between atoms: O_18  and  C_19
REMARK    9  A    between atoms: C_23  and  C_24
REMARK                            x       y       z     vdW  Elec       q    Type
REMARK                         _______ _______ _______ _____ _____    ______ ____
ROOT
ATOM      1  C   UNL     1      -7.655   1.493 125.974  0.00  0.00    +0.000 A 
ATOM      2  N   UNL     1      -8.056   1.701 127.219  0.00  0.00    +0.000 NA
ATOM      3  N   UNL     1      -8.273   3.056 127.400  0.00  0.00    +0.000 NA
ATOM      4  C   UNL     1      -8.017   3.672 126.261  0.00  0.00    +0.000 A 
ATOM      5  C   UNL     1      -8.273   5.102 125.923  0.00  0.00    +0.000 C 
ATOM      6  N   UNL     1      -7.614   2.726 125.339  0.00  0.00    +0.000 N 
ENDROOT
BRANCH   1  10
ATOM      7  C   UNL     1      -6.510  -2.338 124.284  0.00  0.00    +0.000 A 
ATOM      8  C   UNL     1      -5.558  -1.494 124.882  0.00  0.00    +0.000 A 
ATOM      9  C   UNL     1      -5.910  -0.229 125.402  0.00  0.00    +0.000 A 
ATOM     10  C   UNL     1      -7.235   0.213 125.366  0.00  0.00    +0.000 A 
ATOM     11  C   UNL     1      -8.184  -0.647 124.787  0.00  0.00    +0.000 A 
ATOM     12  C   UNL     1      -7.849  -1.920 124.263  0.00  0.00    +0.000 A 
ATOM     13  C   UNL     1      -8.975  -2.768 123.748  0.00  0.00    +0.000 C 
BRANCH   7  14
ATOM     14  O   UNL     1      -6.041  -3.570 123.879  0.00  0.00    +0.000 OA
BRANCH  14  16
ATOM     15  C   UNL     1      -4.165  -5.068 123.451  0.00  0.00    +0.000 C 
ATOM     16  C   UNL     1      -4.667  -3.632 123.474  0.00  0.00    +0.000 C 
ENDBRANCH  14  16
ENDBRANCH   7  14
ENDBRANCH   1  10
BRANCH   6  17
ATOM     17  C   UNL     1      -7.407   2.974 123.975  0.00  0.00    +0.000 A 
ATOM     18  C   UNL     1      -8.473   2.861 123.099  0.00  0.00    +0.000 A 
ATOM     19  C   UNL     1      -8.277   3.243 121.780  0.00  0.00    +0.000 A 
ATOM     20  C   UNL     1      -7.025   3.706 121.387  0.00  0.00    +0.000 A 
ATOM     21  N   UNL     1      -5.976   3.790 122.235  0.00  0.00    +0.000 NA
ATOM     22  C   UNL     1      -6.182   3.424 123.517  0.00  0.00    +0.000 A 
BRANCH  20  23
ATOM     23  O   UNL     1      -6.722   4.135 120.126  0.00  0.00    +0.000 OA
ATOM     24  C   UNL     1      -5.496   4.839 119.992  0.00  0.00    +0.000 C 
ENDBRANCH  20  23
ENDBRANCH   6  17
TORSDOF 5
ENDMDL
MODEL 2
REMARK VINA RESULT:      -6.9      1.520      5.987
REMARK  Name = CHEMBL491421
REMARK  9 active torsions:
REMARK  status: ('A' for Active; 'I' for Inactive)
REMARK    1  A    between atoms: C_1  and  C_2
REMARK    2  A    between atoms: C_2  and  O_3
REMARK    3  A    between atoms: O_3  and  C_4
REMARK    4  A    between atoms: C_7  and  C_8
REMARK    5  A    between atoms: C_11  and  C_12
REMARK    6  A    between atoms: N_13  and  C_14
REMARK    7  A    between atoms: C_17  and  O_18
REMARK    8  A    between atoms: O_18  and  C_19
REMARK    9  A    between atoms: C_23  and  C_24
REMARK                            x       y       z     vdW  Elec       q    Type
REMARK                         _______ _______ _______ _____ _____    ______ ____
ROOT
ATOM      1  C   UNL     1      -7.625   3.155 125.705  0.00  0.00    +0.000 A 
ATOM      2  N   UNL     1      -8.060   4.032 126.597  0.00  0.00    +0.000 NA
ATOM      3  N   UNL     1      -8.373   3.363 127.768  0.00  0.00    +0.000 NA
ATOM      4  C   UNL     1      -8.115   2.080 127.592  0.00  0.00    +0.000 A 
ATOM      5  C   UNL     1      -8.131   1.000 128.622  0.00  0.00    +0.000 C 
ATOM      6  N   UNL     1      -7.653   1.904 126.304  0.00  0.00    +0.000 N 
ENDROOT
BRANCH   1  10
ATOM      7  C   UNL     1      -6.580   3.771 121.536  0.00  0.00    +0.000 A 
ATOM      8  C   UNL     1      -5.612   3.869 122.550  0.00  0.00    +0.000 A 
ATOM      9  C   UNL     1      -5.944   3.708 123.913  0.00  0.00    +0.000 A 
ATOM     10  C   UNL     1      -7.255   3.412 124.297  0.00  0.00    +0.000 A 
ATOM     11  C   UNL     1      -8.213   3.292 123.275  0.00  0.00    +0.000 A 
ATOM     12  C   UNL     1      -7.895   3.449 121.902  0.00  0.00    +0.000 A 
ATOM     13  C   UNL     1      -8.999   3.214 120.912  0.00  0.00    +0.000 C 
BRANCH   7  14
ATOM     14  O   UNL     1      -6.104   3.885 120.247  0.00  0.00    +0.000 OA
BRANCH  14  16
ATOM     15  C   UNL     1      -5.912   5.731 118.666  0.00  0.00    +0.000 C 
ATOM     16  C   UNL     1      -5.379   5.080 119.933  0.00  0.00    +0.000 C 
ENDBRANCH  14  16
ENDBRANCH   7  14
ENDBRANCH   1  10
BRANCH   6  17
ATOM     17  C   UNL     1      -7.129   0.707 125.797  0.00  0.00    +0.000 A 
ATOM     18  C   UNL     1      -5.786   0.423 125.987  0.00  0.00    +0.000 A 
ATOM     19  C   UNL     1      -5.322  -0.825 125.598  0.00  0.00    +0.000 A 
ATOM     20  C   UNL     1      -6.209  -1.730 125.024  0.00  0.00    +0.000 A 
ATOM     21  N   UNL     1      -7.513  -1.443 124.812  0.00  0.00    +0.000 NA
ATOM     22  C   UNL     1      -7.954  -0.230 125.202  0.00  0.00    +0.000 A 
BRANCH  20  23
ATOM     23  O   UNL     1      -5.873  -2.994 124.629  0.00  0.00    +0.000 OA
ATOM     24  C   UNL     1      -4.920  -3.079 123.580  0.00  0.00    +0.000 C 
ENDBRANCH  20  23
ENDBRANCH   6  17
TORSDOF 5
ENDMDL
MODEL 3
REMARK VINA RESULT:      -6.9      2.794      6.817
REMARK  Name = CHEMBL491421
REMARK  9 active torsions:
REMARK  status: ('A' for Active; 'I' for Inactive)
REMARK    1  A    between atoms: C_1  and  C_2
REMARK    2  A    between atoms: C_2  and  O_3
REMARK    3  A    between atoms: O_3  and  C_4
REMARK    4  A    between atoms: C_7  and  C_8
REMARK    5  A    between atoms: C_11  and  C_12
REMARK    6  A    between atoms: N_13  and  C_14
REMARK    7  A    between atoms: C_17  and  O_18
REMARK    8  A    between atoms: O_18  and  C_19
REMARK    9  A    between atoms: C_23  and  C_24
REMARK                            x       y       z     vdW  Elec       q    Type
REMARK                         _______ _______ _______ _____ _____    ______ ____
ROOT
ATOM      1  C   UNL     1      -8.849   0.750 123.593  0.00  0.00    +0.000 A 
ATOM      2  N   UNL     1      -9.866   0.723 122.745  0.00  0.00    +0.000 NA
ATOM      3  N   UNL     1     -10.163  -0.596 122.444  0.00  0.00    +0.000 NA
ATOM      4  C   UNL     1      -9.336  -1.370 123.119  0.00  0.00    +0.000 A 
ATOM      5  C   UNL     1      -9.383  -2.856 123.249  0.00  0.00    +0.000 C 
ATOM      6  N   UNL     1      -8.484  -0.564 123.847  0.00  0.00    +0.000 N 
ENDROOT
BRANCH   1  10
ATOM      7  C   UNL     1      -6.666   4.177 125.124  0.00  0.00    +0.000 A 
ATOM      8  C   UNL     1      -7.595   3.489 125.925  0.00  0.00    +0.000 A 
ATOM      9  C   UNL     1      -8.339   2.396 125.428  0.00  0.00    +0.000 A 
ATOM     10  C   UNL     1      -8.150   1.941 124.121  0.00  0.00    +0.000 A 
ATOM     11  C   UNL     1      -7.203   2.619 123.334  0.00  0.00    +0.000 A 
ATOM     12  C   UNL     1      -6.446   3.716 123.818  0.00  0.00    +0.000 A 
ATOM     13  C   UNL     1      -5.412   4.294 122.896  0.00  0.00    +0.000 C 
BRANCH   7  14
ATOM     14  O   UNL     1      -5.964   5.180 125.757  0.00  0.00    +0.000 OA
BRANCH  14  16
ATOM     15  C   UNL     1      -3.887   4.046 126.347  0.00  0.00    +0.000 C 
ATOM     16  C   UNL     1      -5.120   4.784 126.846  0.00  0.00    +0.000 C 
ENDBRANCH  14  16
ENDBRANCH   7  14
ENDBRANCH   1  10
BRANCH   6  17
ATOM     17  C   UNL     1      -7.570  -1.022 124.806  0.00  0.00    +0.000 A 
ATOM     18  C   UNL     1      -6.229  -1.109 124.473  0.00  0.00    +0.000 A 
ATOM     19  C   UNL     1      -5.327  -1.434 125.475  0.00  0.00    +0.000 A 
ATOM     20  C   UNL     1      -5.801  -1.672 126.762  0.00  0.00    +0.000 A 
ATOM     21  N   UNL     1      -7.112  -1.615 127.082  0.00  0.00    +0.000 NA
ATOM     22  C   UNL     1      -7.978  -1.290 126.100  0.00  0.00    +0.000 A 
BRANCH  20  23
ATOM     23  O   UNL     1      -5.006  -1.971 127.833  0.00  0.00    +0.000 OA
ATOM     24  C   UNL     1      -5.680  -2.472 128.978  0.00  0.00    +0.000 C 
ENDBRANCH  20  23
ENDBRANCH   6  17
TORSDOF 5
ENDMDL
MODEL 4
REMARK VINA RESULT:      -6.8      1.740      6.132
REMARK  Name = CHEMBL491421
REMARK  9 active torsions:
REMARK  status: ('A' for Active; 'I' for Inactive)
REMARK    1  A    between atoms: C_1  and  C_2
REMARK    2  A    between atoms: C_2  and  O_3
REMARK    3  A    between atoms: O_3  and  C_4
REMARK    4  A    between atoms: C_7  and  C_8
REMARK    5  A    between atoms: C_11  and  C_12
REMARK    6  A    between atoms: N_13  and  C_14
REMARK    7  A    between atoms: C_17  and  O_18
REMARK    8  A    between atoms: O_18  and  C_19
REMARK    9  A    between atoms: C_23  and  C_24
REMARK                            x       y       z     vdW  Elec       q    Type
REMARK                         _______ _______ _______ _____ _____    ______ ____
ROOT
ATOM      1  C   UNL     1      -7.872   1.766 126.071  0.00  0.00    +0.000 A 
ATOM      2  N   UNL     1      -8.200   2.463 127.148  0.00  0.00    +0.000 NA
ATOM      3  N   UNL     1      -8.218   1.616 128.243  0.00  0.00    +0.000 NA
ATOM      4  C   UNL     1      -7.887   0.406 127.835  0.00  0.00    +0.000 A 
ATOM      5  C   UNL     1      -7.606  -0.793 128.678  0.00  0.00    +0.000 C 
ATOM      6  N   UNL     1      -7.671   0.453 126.472  0.00  0.00    +0.000 N 
ENDROOT
BRANCH   1  10
ATOM      7  C   UNL     1      -7.667   3.310 122.019  0.00  0.00    +0.000 A 
ATOM      8  C   UNL     1      -8.818   2.656 122.490  0.00  0.00    +0.000 A 
ATOM      9  C   UNL     1      -8.885   2.115 123.794  0.00  0.00    +0.000 A 
ATOM     10  C   UNL     1      -7.808   2.244 124.674  0.00  0.00    +0.000 A 
ATOM     11  C   UNL     1      -6.669   2.921 124.204  0.00  0.00    +0.000 A 
ATOM     12  C   UNL     1      -6.587   3.471 122.900  0.00  0.00    +0.000 A 
ATOM     13  C   UNL     1      -5.342   4.237 122.556  0.00  0.00    +0.000 C 
BRANCH   7  14
ATOM     14  O   UNL     1      -7.764   3.846 120.753  0.00  0.00    +0.000 OA
BRANCH  14  16
ATOM     15  C   UNL     1      -9.018   4.371 118.728  0.00  0.00    +0.000 C 
ATOM     16  C   UNL     1      -9.069   3.860 120.160  0.00  0.00    +0.000 C 
ENDBRANCH  14  16
ENDBRANCH   7  14
ENDBRANCH   1  10
BRANCH   6  17
ATOM     17  C   UNL     1      -7.152  -0.600 125.706  0.00  0.00    +0.000 A 
ATOM     18  C   UNL     1      -8.025  -1.450 125.047  0.00  0.00    +0.000 A 
ATOM     19  C   UNL     1      -7.489  -2.397 124.188  0.00  0.00    +0.000 A 
ATOM     20  C   UNL     1      -6.108  -2.469 124.034  0.00  0.00    +0.000 A 
ATOM     21  N   UNL     1      -5.254  -1.660 124.699  0.00  0.00    +0.000 NA
ATOM     22  C   UNL     1      -5.788  -0.737 125.524  0.00  0.00    +0.000 A 
BRANCH  20  23
ATOM     23  O   UNL     1      -5.470  -3.340 123.197  0.00  0.00    +0.000 OA
ATOM     24  C   UNL     1      -4.393  -4.068 123.770  0.00  0.00    +0.000 C 
ENDBRANCH  20  23
ENDBRANCH   6  17
TORSDOF 5
ENDMDL
MODEL 5
REMARK VINA RESULT:      -6.8      3.768      4.834
REMARK  Name = CHEMBL491421
REMARK  9 active torsions:
REMARK  status: ('A' for Active; 'I' for Inactive)
REMARK    1  A    between atoms: C_1  and  C_2
REMARK    2  A    between atoms: C_2  and  O_3
REMARK    3  A    between atoms: O_3  and  C_4
REMARK    4  A    between atoms: C_7  and  C_8
REMARK    5  A    between atoms: C_11  and  C_12
REMARK    6  A    between atoms: N_13  and  C_14
REMARK    7  A    between atoms: C_17  and  O_18
REMARK    8  A    between atoms: O_18  and  C_19
REMARK    9  A    between atoms: C_23  and  C_24
REMARK                            x       y       z     vdW  Elec       q    Type
REMARK                         _______ _______ _______ _____ _____    ______ ____
ROOT
ATOM      1  C   UNL     1      -8.306  -2.012 124.917  0.00  0.00    +0.000 A 
ATOM      2  N   UNL     1      -8.848  -2.920 124.119  0.00  0.00    +0.000 NA
ATOM      3  N   UNL     1      -9.575  -2.275 123.134  0.00  0.00    +0.000 NA
ATOM      4  C   UNL     1      -9.465  -0.974 123.324  0.00  0.00    +0.000 A 
ATOM      5  C   UNL     1      -9.930   0.120 122.421  0.00  0.00    +0.000 C 
ATOM      6  N   UNL     1      -8.683  -0.764 124.442  0.00  0.00    +0.000 N 
ENDROOT
BRANCH   1  10
ATOM      7  C   UNL     1      -6.056  -2.593 128.584  0.00  0.00    +0.000 A 
ATOM      8  C   UNL     1      -5.409  -2.278 127.377  0.00  0.00    +0.000 A 
ATOM      9  C   UNL     1      -6.124  -2.122 126.169  0.00  0.00    +0.000 A 
ATOM     10  C   UNL     1      -7.516  -2.249 126.143  0.00  0.00    +0.000 A 
ATOM     11  C   UNL     1      -8.157  -2.541 127.359  0.00  0.00    +0.000 A 
ATOM     12  C   UNL     1      -7.455  -2.697 128.580  0.00  0.00    +0.000 A 
ATOM     13  C   UNL     1      -8.273  -2.928 129.818  0.00  0.00    +0.000 C 
BRANCH   7  14
ATOM     14  O   UNL     1      -5.244  -2.649 129.696  0.00  0.00    +0.000 OA
BRANCH  14  16
ATOM     15  C   UNL     1      -5.355  -4.846 130.749  0.00  0.00    +0.000 C 
ATOM     16  C   UNL     1      -4.535  -3.876 129.912  0.00  0.00    +0.000 C 
ENDBRANCH  14  16
ENDBRANCH   7  14
ENDBRANCH   1  10
BRANCH   6  17
ATOM     17  C   UNL     1      -8.213   0.485 124.869  0.00  0.00    +0.000 A 
ATOM     18  C   UNL     1      -7.045   0.991 124.323  0.00  0.00    +0.000 A 
ATOM     19  C   UNL     1      -6.674   2.284 124.659  0.00  0.00    +0.000 A 
ATOM     20  C   UNL     1      -7.473   3.013 125.534  0.00  0.00    +0.000 A 
ATOM     21  N   UNL     1      -8.598   2.511 126.090  0.00  0.00    +0.000 NA
ATOM     22  C   UNL     1      -8.952   1.255 125.749  0.00  0.00    +0.000 A 
BRANCH  20  23
ATOM     23  O   UNL     1      -7.224   4.302 125.913  0.00  0.00    +0.000 OA
ATOM     24  C   UNL     1      -6.304   5.016 125.101  0.00  0.00    +0.000 C 
ENDBRANCH  20  23
ENDBRANCH   6  17
TORSDOF 5
ENDMDL
MODEL 6
REMARK VINA RESULT:      -6.5      4.226      6.020
REMARK  Name = CHEMBL491421
REMARK  9 active torsions:
REMARK  status: ('A' for Active; 'I' for Inactive)
REMARK    1  A    between atoms: C_1  and  C_2
REMARK    2  A    between atoms: C_2  and  O_3
REMARK    3  A    between atoms: O_3  and  C_4
REMARK    4  A    between atoms: C_7  and  C_8
REMARK    5  A    between atoms: C_11  and  C_12
REMARK    6  A    between atoms: N_13  and  C_14
REMARK    7  A    between atoms: C_17  and  O_18
REMARK    8  A    between atoms: O_18  and  C_19
REMARK    9  A    between atoms: C_23  and  C_24
REMARK                            x       y       z     vdW  Elec       q    Type
REMARK                         _______ _______ _______ _____ _____    ______ ____
ROOT
ATOM      1  C   UNL     1      -8.163  -2.817 125.721  0.00  0.00    +0.000 A 
ATOM      2  N   UNL     1      -8.353  -3.846 124.910  0.00  0.00    +0.000 NA
ATOM      3  N   UNL     1      -8.837  -3.380 123.699  0.00  0.00    +0.000 NA
ATOM      4  C   UNL     1      -8.929  -2.066 123.770  0.00  0.00    +0.000 A 
ATOM      5  C   UNL     1      -9.236  -1.115 122.661  0.00  0.00    +0.000 C 
ATOM      6  N   UNL     1      -8.525  -1.670 125.029  0.00  0.00    +0.000 N 
ENDROOT
BRANCH   1  10
ATOM      7  C   UNL     1      -6.794  -3.021 129.836  0.00  0.00    +0.000 A 
ATOM      8  C   UNL     1      -8.100  -3.403 129.485  0.00  0.00    +0.000 A 
ATOM      9  C   UNL     1      -8.571  -3.307 128.156  0.00  0.00    +0.000 A 
ATOM     10  C   UNL     1      -7.733  -2.853 127.135  0.00  0.00    +0.000 A 
ATOM     11  C   UNL     1      -6.421  -2.495 127.490  0.00  0.00    +0.000 A 
ATOM     12  C   UNL     1      -5.932  -2.588 128.817  0.00  0.00    +0.000 A 
ATOM     13  C   UNL     1      -4.486  -2.249 129.041  0.00  0.00    +0.000 C 
BRANCH   7  14
ATOM     14  O   UNL     1      -6.447  -3.230 131.154  0.00  0.00    +0.000 OA
BRANCH  14  16
ATOM     15  C   UNL     1      -6.935  -1.040 132.109  0.00  0.00    +0.000 C 
ATOM     16  C   UNL     1      -7.221  -2.534 132.139  0.00  0.00    +0.000 C 
ENDBRANCH  14  16
ENDBRANCH   7  14
ENDBRANCH   1  10
BRANCH   6  17
ATOM     17  C   UNL     1      -8.337  -0.340 125.430  0.00  0.00    +0.000 A 
ATOM     18  C   UNL     1      -7.134   0.286 125.148  0.00  0.00    +0.000 A 
ATOM     19  C   UNL     1      -7.021   1.639 125.431  0.00  0.00    +0.000 A 
ATOM     20  C   UNL     1      -8.104   2.307 125.995  0.00  0.00    +0.000 A 
ATOM     21  N   UNL     1      -9.268   1.690 126.297  0.00  0.00    +0.000 NA
ATOM     22  C   UNL     1      -9.368   0.376 126.009  0.00  0.00    +0.000 A 
BRANCH  20  23
ATOM     23  O   UNL     1      -8.119   3.641 126.290  0.00  0.00    +0.000 OA
ATOM     24  C   UNL     1      -7.494   4.008 127.511  0.00  0.00    +0.000 C 
ENDBRANCH  20  23
ENDBRANCH   6  17
TORSDOF 5
ENDMDL
MODEL 7
REMARK VINA RESULT:      -6.4      5.651      8.017
REMARK  Name = CHEMBL491421
REMARK  9 active torsions:
REMARK  status: ('A' for Active; 'I' for Inactive)
REMARK    1  A    between atoms: C_1  and  C_2
REMARK    2  A    between atoms: C_2  and  O_3
REMARK    3  A    between atoms: O_3  and  C_4
REMARK    4  A    between atoms: C_7  and  C_8
REMARK    5  A    between atoms: C_11  and  C_12
REMARK    6  A    between atoms: N_13  and  C_14
REMARK    7  A    between atoms: C_17  and  O_18
REMARK    8  A    between atoms: O_18  and  C_19
REMARK    9  A    between atoms: C_23  and  C_24
REMARK                            x       y       z     vdW  Elec       q    Type
REMARK                         _______ _______ _______ _____ _____    ______ ____
ROOT
ATOM      1  C   UNL     1      -4.918  -2.278 129.682  0.00  0.00    +0.000 A 
ATOM      2  N   UNL     1      -3.866  -3.074 129.565  0.00  0.00    +0.000 NA
ATOM      3  N   UNL     1      -2.985  -2.808 130.600  0.00  0.00    +0.000 NA
ATOM      4  C   UNL     1      -3.508  -1.860 131.354  0.00  0.00    +0.000 A 
ATOM      5  C   UNL     1      -3.009  -1.366 132.670  0.00  0.00    +0.000 C 
ATOM      6  N   UNL     1      -4.720  -1.490 130.805  0.00  0.00    +0.000 N 
ENDROOT
BRANCH   1  10
ATOM      7  C   UNL     1      -8.259  -2.076 126.917  0.00  0.00    +0.000 A 
ATOM      8  C   UNL     1      -7.172  -1.192 126.809  0.00  0.00    +0.000 A 
ATOM      9  C   UNL     1      -6.096  -1.222 127.723  0.00  0.00    +0.000 A 
ATOM     10  C   UNL     1      -6.065  -2.162 128.756  0.00  0.00    +0.000 A 
ATOM     11  C   UNL     1      -7.145  -3.059 128.843  0.00  0.00    +0.000 A 
ATOM     12  C   UNL     1      -8.231  -3.043 127.933  0.00  0.00    +0.000 A 
ATOM     13  C   UNL     1      -9.276  -4.109 128.094  0.00  0.00    +0.000 C 
BRANCH   7  14
ATOM     14  O   UNL     1      -9.205  -1.980 125.918  0.00  0.00    +0.000 OA
BRANCH  14  16
ATOM     15  C   UNL     1      -9.341  -3.303 123.875  0.00  0.00    +0.000 C 
ATOM     16  C   UNL     1      -8.731  -2.096 124.571  0.00  0.00    +0.000 C 
ENDBRANCH  14  16
ENDBRANCH   7  14
ENDBRANCH   1  10
BRANCH   6  17
ATOM     17  C   UNL     1      -5.641  -0.622 131.409  0.00  0.00    +0.000 A 
ATOM     18  C   UNL     1      -5.658   0.711 131.035  0.00  0.00    +0.000 A 
ATOM     19  C   UNL     1      -6.665   1.519 131.543  0.00  0.00    +0.000 A 
ATOM     20  C   UNL     1      -7.603   0.968 132.412  0.00  0.00    +0.000 A 
ATOM     21  N   UNL     1      -7.570  -0.326 132.799  0.00  0.00    +0.000 NA
ATOM     22  C   UNL     1      -6.591  -1.102 132.291  0.00  0.00    +0.000 A 
BRANCH  20  23
ATOM     23  O   UNL     1      -8.652   1.657 132.951  0.00  0.00    +0.000 OA
ATOM     24  C   UNL     1      -8.344   2.943 133.469  0.00  0.00    +0.000 C 
ENDBRANCH  20  23
ENDBRANCH   6  17
TORSDOF 5
ENDMDL
MODEL 8
REMARK VINA RESULT:      -6.3      5.426      7.593
REMARK  Name = CHEMBL491421
REMARK  9 active torsions:
REMARK  status: ('A' for Active; 'I' for Inactive)
REMARK    1  A    between atoms: C_1  and  C_2
REMARK    2  A    between atoms: C_2  and  O_3
REMARK    3  A    between atoms: O_3  and  C_4
REMARK    4  A    between atoms: C_7  and  C_8
REMARK    5  A    between atoms: C_11  and  C_12
REMARK    6  A    between atoms: N_13  and  C_14
REMARK    7  A    between atoms: C_17  and  O_18
REMARK    8  A    between atoms: O_18  and  C_19
REMARK    9  A    between atoms: C_23  and  C_24
REMARK                            x       y       z     vdW  Elec       q    Type
REMARK                         _______ _______ _______ _____ _____    ______ ____
ROOT
ATOM      1  C   UNL     1      -6.521  -3.130 130.417  0.00  0.00    +0.000 A 
ATOM      2  N   UNL     1      -5.983  -4.210 130.964  0.00  0.00    +0.000 NA
ATOM      3  N   UNL     1      -5.648  -3.928 132.277  0.00  0.00    +0.000 NA
ATOM      4  C   UNL     1      -5.994  -2.680 132.533  0.00  0.00    +0.000 A 
ATOM      5  C   UNL     1      -5.988  -1.988 133.855  0.00  0.00    +0.000 C 
ATOM      6  N   UNL     1      -6.537  -2.138 131.386  0.00  0.00    +0.000 N 
ENDROOT
BRANCH   1  10
ATOM      7  C   UNL     1      -7.774  -2.458 126.315  0.00  0.00    +0.000 A 
ATOM      8  C   UNL     1      -8.616  -3.105 127.235  0.00  0.00    +0.000 A 
ATOM      9  C   UNL     1      -8.208  -3.363 128.562  0.00  0.00    +0.000 A 
ATOM     10  C   UNL     1      -6.951  -2.951 129.014  0.00  0.00    +0.000 A 
ATOM     11  C   UNL     1      -6.124  -2.284 128.094  0.00  0.00    +0.000 A 
ATOM     12  C   UNL     1      -6.520  -2.015 126.760  0.00  0.00    +0.000 A 
ATOM     13  C   UNL     1      -5.569  -1.223 125.909  0.00  0.00    +0.000 C 
BRANCH   7  14
ATOM     14  O   UNL     1      -8.326  -2.212 125.076  0.00  0.00    +0.000 OA
BRANCH  14  16
ATOM     15  C   UNL     1      -9.617  -3.413 123.392  0.00  0.00    +0.000 C 
ATOM     16  C   UNL     1      -8.294  -3.290 124.133  0.00  0.00    +0.000 C 
ENDBRANCH  14  16
ENDBRANCH   7  14
ENDBRANCH   1  10
BRANCH   6  17
ATOM     17  C   UNL     1      -7.162  -0.885 131.310  0.00  0.00    +0.000 A 
ATOM     18  C   UNL     1      -8.491  -0.769 131.681  0.00  0.00    +0.000 A 
ATOM     19  C   UNL     1      -9.047   0.500 131.728  0.00  0.00    +0.000 A 
ATOM     20  C   UNL     1      -8.262   1.598 131.389  0.00  0.00    +0.000 A 
ATOM     21  N   UNL     1      -6.973   1.483 130.998  0.00  0.00    +0.000 NA
ATOM     22  C   UNL     1      -6.442   0.244 130.965  0.00  0.00    +0.000 A 
BRANCH  20  23
ATOM     23  O   UNL     1      -8.692   2.894 131.425  0.00  0.00    +0.000 OA
ATOM     24  C   UNL     1      -9.410   3.337 130.283  0.00  0.00    +0.000 C 
ENDBRANCH  20  23
ENDBRANCH   6  17
TORSDOF 5
ENDMDL
MODEL 9
REMARK VINA RESULT:      -6.2      4.841      7.524
REMARK  Name = CHEMBL491421
REMARK  9 active torsions:
REMARK  status: ('A' for Active; 'I' for Inactive)
REMARK    1  A    between atoms: C_1  and  C_2
REMARK    2  A    between atoms: C_2  and  O_3
REMARK    3  A    between atoms: O_3  and  C_4
REMARK    4  A    between atoms: C_7  and  C_8
REMARK    5  A    between atoms: C_11  and  C_12
REMARK    6  A    between atoms: N_13  and  C_14
REMARK    7  A    between atoms: C_17  and  O_18
REMARK    8  A    between atoms: O_18  and  C_19
REMARK    9  A    between atoms: C_23  and  C_24
REMARK                            x       y       z     vdW  Elec       q    Type
REMARK                         _______ _______ _______ _____ _____    ______ ____
ROOT
ATOM      1  C   UNL     1      -8.005   2.457 130.934  0.00  0.00    +0.000 A 
ATOM      2  N   UNL     1      -7.642   1.531 131.809  0.00  0.00    +0.000 NA
ATOM      3  N   UNL     1      -7.992   1.952 133.080  0.00  0.00    +0.000 NA
ATOM      4  C   UNL     1      -8.581   3.129 132.978  0.00  0.00    +0.000 A 
ATOM      5  C   UNL     1      -9.278   3.893 134.053  0.00  0.00    +0.000 C 
ATOM      6  N   UNL     1      -8.600   3.489 131.645  0.00  0.00    +0.000 N 
ENDROOT
BRANCH   1  10
ATOM      7  C   UNL     1      -7.311   2.624 126.652  0.00  0.00    +0.000 A 
ATOM      8  C   UNL     1      -8.332   1.823 127.192  0.00  0.00    +0.000 A 
ATOM      9  C   UNL     1      -8.546   1.730 128.585  0.00  0.00    +0.000 A 
ATOM     10  C   UNL     1      -7.759   2.464 129.477  0.00  0.00    +0.000 A 
ATOM     11  C   UNL     1      -6.755   3.281 128.927  0.00  0.00    +0.000 A 
ATOM     12  C   UNL     1      -6.529   3.387 127.532  0.00  0.00    +0.000 A 
ATOM     13  C   UNL     1      -5.477   4.358 127.080  0.00  0.00    +0.000 C 
BRANCH   7  14
ATOM     14  O   UNL     1      -7.259   2.673 125.275  0.00  0.00    +0.000 OA
BRANCH  14  16
ATOM     15  C   UNL     1      -8.810   2.502 123.401  0.00  0.00    +0.000 C 
ATOM     16  C   UNL     1      -8.362   3.305 124.613  0.00  0.00    +0.000 C 
ENDBRANCH  14  16
ENDBRANCH   7  14
ENDBRANCH   1  10
BRANCH   6  17
ATOM     17  C   UNL     1      -9.280   4.598 131.124  0.00  0.00    +0.000 A 
ATOM     18  C   UNL     1      -8.657   5.835 131.128  0.00  0.00    +0.000 A 
ATOM     19  C   UNL     1      -9.293   6.888 130.486  0.00  0.00    +0.000 A 
ATOM     20  C   UNL     1     -10.526   6.668 129.881  0.00  0.00    +0.000 A 
ATOM     21  N   UNL     1     -11.148   5.468 129.901  0.00  0.00    +0.000 NA
ATOM     22  C   UNL     1     -10.516   4.451 130.521  0.00  0.00    +0.000 A 
BRANCH  20  23
ATOM     23  O   UNL     1     -11.230   7.619 129.197  0.00  0.00    +0.000 OA
ATOM     24  C   UNL     1     -10.496   8.346 128.222  0.00  0.00    +0.000 C 
ENDBRANCH  20  23
ENDBRANCH   6  17
TORSDOF 5
ENDMDL
