MODEL 1
REMARK VINA RESULT:     -12.3      0.000      0.000
REMARK  Name = CHEMBL281106
REMARK  8 active torsions:
REMARK  status: ('A' for Active; 'I' for Inactive)
REMARK    1  A    between atoms: C_1  and  N_2
REMARK    2  A    between atoms: C_3  and  C_4
REMARK    3  A    between atoms: C_4  and  N_5
REMARK    4  A    between atoms: C_6  and  C_8
REMARK    5  A    between atoms: C_8  and  N_9
REMARK    6  A    between atoms: C_11  and  C_12
REMARK    7  A    between atoms: C_24  and  C_25
REMARK    8  A    between atoms: C_30  and  N_31
REMARK                            x       y       z     vdW  Elec       q    Type
REMARK                         _______ _______ _______ _____ _____    ______ ____
ROOT
ATOM      1  C   UNL     1      -7.518   4.187 126.478  0.00  0.00    +0.000 C 
ATOM      2  N   UNL     1      -6.178   4.090 125.937  0.00  0.00    +0.000 N 
ATOM      3  C   UNL     1      -5.693   3.908 124.666  0.00  0.00    +0.000 A 
ATOM      4  C   UNL     1      -4.305   3.812 124.760  0.00  0.00    +0.000 A 
ATOM      5  C   UNL     1      -3.933   3.932 126.117  0.00  0.00    +0.000 A 
ATOM      6  C   UNL     1      -2.726   3.896 126.842  0.00  0.00    +0.000 A 
ATOM      7  C   UNL     1      -2.767   4.036 128.247  0.00  0.00    +0.000 A 
ATOM      8  C   UNL     1      -3.981   4.220 128.930  0.00  0.00    +0.000 A 
ATOM      9  C   UNL     1      -5.147   4.303 128.191  0.00  0.00    +0.000 A 
ATOM     10  C   UNL     1      -5.112   4.127 126.813  0.00  0.00    +0.000 A 
ENDROOT
BRANCH   8  11
ATOM     11  C   UNL     1      -4.040   4.403 130.417  0.00  0.00    +0.000 C 
ATOM     12  O   UNL     1      -2.976   4.459 131.034  0.00  0.00    +0.000 OA
ATOM     13  N   UNL     1      -5.283   4.694 131.038  0.00  0.00    +0.000 N 
ATOM     14  C   UNL     1      -5.603   6.107 131.133  0.00  0.00    +0.000 C 
ATOM     15  C   UNL     1      -6.499   6.403 132.315  0.00  0.00    +0.000 C 
ATOM     16  C   UNL     1      -8.114   5.762 131.984  0.00  0.00    +0.000 C 
ATOM     17  C   UNL     1      -7.473   4.155 132.125  0.00  0.00    +0.000 C 
ATOM     18  C   UNL     1      -6.459   3.799 131.036  0.00  0.00    +0.000 C 
BRANCH  16  19
ATOM     19  N   UNL     1      -9.165   6.864 130.924  0.00  0.00    +0.000 N 
ATOM     20  C   UNL     1     -10.216   6.356 131.751  0.00  0.00    +0.000 C 
ATOM     21  O   UNL     1     -10.302   6.295 133.014  0.00  0.00    +0.000 OA
ATOM     22  O   UNL     1     -11.123   5.646 131.131  0.00  0.00    +0.000 OA
ATOM     23  C   UNL     1     -12.035   6.664 131.002  0.00  0.00    +0.000 C 
ATOM     24  C   UNL     1     -11.649   6.869 129.612  0.00  0.00    +0.000 A 
ATOM     25  C   UNL     1     -12.865   6.793 128.728  0.00  0.00    +0.000 A 
ATOM     26  C   UNL     1     -12.922   7.203 127.434  0.00  0.00    +0.000 A 
ATOM     27  C   UNL     1     -11.846   8.020 127.197  0.00  0.00    +0.000 A 
ATOM     28  C   UNL     1     -10.577   8.119 128.235  0.00  0.00    +0.000 A 
ATOM     29  C   UNL     1     -10.250   7.192 129.444  0.00  0.00    +0.000 A 
ENDBRANCH  16  19
ENDBRANCH   8  11
BRANCH   3  30
ATOM     30  C   UNL     1      -6.467   3.818 123.411  0.00  0.00    +0.000 C 
BRANCH  30  31
ATOM     31  N   UNL     1      -6.911   2.467 123.135  0.00  0.00    +0.000 N 
ATOM     32  C   UNL     1      -8.253   2.264 123.220  0.00  0.00    +0.000 C 
ATOM     33  O   UNL     1      -8.883   3.267 123.511  0.00  0.00    +0.000 OA
ATOM     34  H   UNL     1      -6.457   1.736 123.636  0.00  0.00    +0.000 HD
BRANCH  32  35
ATOM     35  C   UNL     1      -8.752   0.781 123.060  0.00  0.00    +0.000 C 
BRANCH  35  36
ATOM     36  N   UNL     1      -8.293  -0.225 124.052  0.00  0.00    +0.000 N 
ATOM     37  C   UNL     1      -7.207  -1.064 123.745  0.00  0.00    +0.000 A 
ATOM     38  C   UNL     1      -6.952  -2.161 124.491  0.00  0.00    +0.000 A 
ATOM     39  C   UNL     1      -7.688  -2.383 125.717  0.00  0.00    +0.000 A 
ATOM     40  C   UNL     1      -8.578  -1.494 126.126  0.00  0.00    +0.000 A 
ATOM     41  C   UNL     1      -9.037  -0.465 125.211  0.00  0.00    +0.000 A 
ATOM     42  O   UNL     1     -10.082   0.005 125.620  0.00  0.00    +0.000 OA
BRANCH  38  43
ATOM     43  C   UNL     1      -5.939  -3.218 124.194  0.00  0.00    +0.000 C 
ATOM     44  F   UNL     1      -4.977  -3.271 125.151  0.00  0.00    +0.000 F 
ATOM     45  F   UNL     1      -6.517  -4.447 124.152  0.00  0.00    +0.000 F 
ATOM     46  F   UNL     1      -5.317  -3.029 123.007  0.00  0.00    +0.000 F 
ENDBRANCH  38  43
ENDBRANCH  35  36
ENDBRANCH  32  35
ENDBRANCH  30  31
ENDBRANCH   3  30
TORSDOF 7
ENDMDL
MODEL 2
REMARK VINA RESULT:     -12.0      4.316      7.073
REMARK  Name = CHEMBL281106
REMARK  8 active torsions:
REMARK  status: ('A' for Active; 'I' for Inactive)
REMARK    1  A    between atoms: C_1  and  N_2
REMARK    2  A    between atoms: C_3  and  C_4
REMARK    3  A    between atoms: C_4  and  N_5
REMARK    4  A    between atoms: C_6  and  C_8
REMARK    5  A    between atoms: C_8  and  N_9
REMARK    6  A    between atoms: C_11  and  C_12
REMARK    7  A    between atoms: C_24  and  C_25
REMARK    8  A    between atoms: C_30  and  N_31
REMARK                            x       y       z     vdW  Elec       q    Type
REMARK                         _______ _______ _______ _____ _____    ______ ____
ROOT
ATOM      1  C   UNL     1      -5.637  -1.010 125.932  0.00  0.00    +0.000 C 
ATOM      2  N   UNL     1      -6.854  -1.788 125.826  0.00  0.00    +0.000 N 
ATOM      3  C   UNL     1      -7.764  -1.968 124.814  0.00  0.00    +0.000 A 
ATOM      4  C   UNL     1      -8.789  -2.771 125.314  0.00  0.00    +0.000 A 
ATOM      5  C   UNL     1      -8.503  -3.084 126.661  0.00  0.00    +0.000 A 
ATOM      6  C   UNL     1      -9.137  -3.813 127.685  0.00  0.00    +0.000 A 
ATOM      7  C   UNL     1      -8.525  -3.880 128.957  0.00  0.00    +0.000 A 
ATOM      8  C   UNL     1      -7.296  -3.247 129.213  0.00  0.00    +0.000 A 
ATOM      9  C   UNL     1      -6.669  -2.581 128.176  0.00  0.00    +0.000 A 
ATOM     10  C   UNL     1      -7.289  -2.481 126.937  0.00  0.00    +0.000 A 
ENDROOT
BRANCH   8  11
ATOM     11  C   UNL     1      -6.617  -3.335 130.546  0.00  0.00    +0.000 C 
ATOM     12  O   UNL     1      -6.436  -4.453 131.029  0.00  0.00    +0.000 OA
ATOM     13  N   UNL     1      -6.039  -2.170 131.116  0.00  0.00    +0.000 N 
ATOM     14  C   UNL     1      -4.657  -1.927 130.743  0.00  0.00    +0.000 C 
ATOM     15  C   UNL     1      -3.912  -1.159 131.811  0.00  0.00    +0.000 C 
ATOM     16  C   UNL     1      -4.503   0.508 131.837  0.00  0.00    +0.000 C 
ATOM     17  C   UNL     1      -6.010  -0.069 132.476  0.00  0.00    +0.000 C 
ATOM     18  C   UNL     1      -6.790  -0.959 131.507  0.00  0.00    +0.000 C 
BRANCH  16  19
ATOM     19  N   UNL     1      -3.749   1.601 130.541  0.00  0.00    +0.000 N 
ATOM     20  C   UNL     1      -4.029   2.626 131.499  0.00  0.00    +0.000 C 
ATOM     21  O   UNL     1      -3.744   2.688 132.732  0.00  0.00    +0.000 OA
ATOM     22  O   UNL     1      -4.896   3.528 131.116  0.00  0.00    +0.000 OA
ATOM     23  C   UNL     1      -3.966   4.464 130.735  0.00  0.00    +0.000 C 
ATOM     24  C   UNL     1      -4.142   4.106 129.334  0.00  0.00    +0.000 A 
ATOM     25  C   UNL     1      -4.476   5.336 128.531  0.00  0.00    +0.000 A 
ATOM     26  C   UNL     1      -4.437   5.424 127.177  0.00  0.00    +0.000 A 
ATOM     27  C   UNL     1      -3.698   4.370 126.701  0.00  0.00    +0.000 A 
ATOM     28  C   UNL     1      -3.300   3.086 127.644  0.00  0.00    +0.000 A 
ATOM     29  C   UNL     1      -3.856   2.718 129.052  0.00  0.00    +0.000 A 
ENDBRANCH  16  19
ENDBRANCH   8  11
BRANCH   3  30
ATOM     30  C   UNL     1      -7.705  -1.421 123.443  0.00  0.00    +0.000 C 
BRANCH  30  31
ATOM     31  N   UNL     1      -7.951   0.006 123.409  0.00  0.00    +0.000 N 
ATOM     32  C   UNL     1      -9.200   0.374 123.019  0.00  0.00    +0.000 C 
ATOM     33  O   UNL     1      -9.931  -0.568 122.762  0.00  0.00    +0.000 OA
ATOM     34  H   UNL     1      -7.295   0.561 122.906  0.00  0.00    +0.000 HD
BRANCH  32  35
ATOM     35  C   UNL     1      -9.456   1.917 122.841  0.00  0.00    +0.000 C 
BRANCH  35  36
ATOM     36  N   UNL     1      -8.339   2.851 123.134  0.00  0.00    +0.000 N 
ATOM     37  C   UNL     1      -7.453   3.224 122.108  0.00  0.00    +0.000 A 
ATOM     38  C   UNL     1      -6.280   3.829 122.397  0.00  0.00    +0.000 A 
ATOM     39  C   UNL     1      -6.008   4.260 123.751  0.00  0.00    +0.000 A 
ATOM     40  C   UNL     1      -6.922   4.096 124.694  0.00  0.00    +0.000 A 
ATOM     41  C   UNL     1      -8.055   3.223 124.451  0.00  0.00    +0.000 A 
ATOM     42  O   UNL     1      -8.564   2.913 125.513  0.00  0.00    +0.000 OA
BRANCH  38  43
ATOM     43  C   UNL     1      -5.181   4.138 121.433  0.00  0.00    +0.000 C 
ATOM     44  F   UNL     1      -4.100   4.669 122.060  0.00  0.00    +0.000 F 
ATOM     45  F   UNL     1      -4.754   3.012 120.805  0.00  0.00    +0.000 F 
ATOM     46  F   UNL     1      -5.558   5.013 120.470  0.00  0.00    +0.000 F 
ENDBRANCH  38  43
ENDBRANCH  35  36
ENDBRANCH  32  35
ENDBRANCH  30  31
ENDBRANCH   3  30
TORSDOF 7
ENDMDL
MODEL 3
REMARK VINA RESULT:     -11.9      3.641      6.317
REMARK  Name = CHEMBL281106
REMARK  8 active torsions:
REMARK  status: ('A' for Active; 'I' for Inactive)
REMARK    1  A    between atoms: C_1  and  N_2
REMARK    2  A    between atoms: C_3  and  C_4
REMARK    3  A    between atoms: C_4  and  N_5
REMARK    4  A    between atoms: C_6  and  C_8
REMARK    5  A    between atoms: C_8  and  N_9
REMARK    6  A    between atoms: C_11  and  C_12
REMARK    7  A    between atoms: C_24  and  C_25
REMARK    8  A    between atoms: C_30  and  N_31
REMARK                            x       y       z     vdW  Elec       q    Type
REMARK                         _______ _______ _______ _____ _____    ______ ____
ROOT
ATOM      1  C   UNL     1      -5.914  -0.970 125.429  0.00  0.00    +0.000 C 
ATOM      2  N   UNL     1      -7.119  -1.767 125.536  0.00  0.00    +0.000 N 
ATOM      3  C   UNL     1      -8.175  -1.986 124.687  0.00  0.00    +0.000 A 
ATOM      4  C   UNL     1      -9.093  -2.789 125.364  0.00  0.00    +0.000 A 
ATOM      5  C   UNL     1      -8.590  -3.062 126.655  0.00  0.00    +0.000 A 
ATOM      6  C   UNL     1      -9.040  -3.772 127.785  0.00  0.00    +0.000 A 
ATOM      7  C   UNL     1      -8.232  -3.797 128.944  0.00  0.00    +0.000 A 
ATOM      8  C   UNL     1      -6.990  -3.141 128.985  0.00  0.00    +0.000 A 
ATOM      9  C   UNL     1      -6.548  -2.495 127.846  0.00  0.00    +0.000 A 
ATOM     10  C   UNL     1      -7.359  -2.436 126.719  0.00  0.00    +0.000 A 
ENDROOT
BRANCH   8  11
ATOM     11  C   UNL     1      -6.106  -3.185 130.195  0.00  0.00    +0.000 C 
ATOM     12  O   UNL     1      -5.178  -3.994 130.202  0.00  0.00    +0.000 OA
ATOM     13  N   UNL     1      -6.237  -2.185 131.195  0.00  0.00    +0.000 N 
ATOM     14  C   UNL     1      -5.421  -1.002 130.987  0.00  0.00    +0.000 C 
ATOM     15  C   UNL     1      -5.066  -0.327 132.293  0.00  0.00    +0.000 C 
ATOM     16  C   UNL     1      -6.518   0.435 132.958  0.00  0.00    +0.000 C 
ATOM     17  C   UNL     1      -7.165  -1.144 133.273  0.00  0.00    +0.000 C 
ATOM     18  C   UNL     1      -7.449  -1.958 132.009  0.00  0.00    +0.000 C 
BRANCH  16  19
ATOM     19  N   UNL     1      -6.911   2.091 132.219  0.00  0.00    +0.000 N 
ATOM     20  C   UNL     1      -7.032   2.474 133.593  0.00  0.00    +0.000 C 
ATOM     21  O   UNL     1      -6.232   2.301 134.560  0.00  0.00    +0.000 OA
ATOM     22  O   UNL     1      -8.227   2.856 133.964  0.00  0.00    +0.000 OA
ATOM     23  C   UNL     1      -7.985   4.203 133.853  0.00  0.00    +0.000 C 
ATOM     24  C   UNL     1      -8.675   4.248 132.571  0.00  0.00    +0.000 A 
ATOM     25  C   UNL     1      -9.755   5.297 132.611  0.00  0.00    +0.000 A 
ATOM     26  C   UNL     1     -10.404   5.796 131.527  0.00  0.00    +0.000 A 
ATOM     27  C   UNL     1      -9.672   5.485 130.410  0.00  0.00    +0.000 A 
ATOM     28  C   UNL     1      -8.454   4.385 130.441  0.00  0.00    +0.000 A 
ATOM     29  C   UNL     1      -8.098   3.376 131.575  0.00  0.00    +0.000 A 
ENDBRANCH  16  19
ENDBRANCH   8  11
BRANCH   3  30
ATOM     30  C   UNL     1      -8.345  -1.475 123.312  0.00  0.00    +0.000 C 
BRANCH  30  31
ATOM     31  N   UNL     1      -8.436  -0.030 123.269  0.00  0.00    +0.000 N 
ATOM     32  C   UNL     1      -9.616   0.468 122.816  0.00  0.00    +0.000 C 
ATOM     33  O   UNL     1     -10.429  -0.391 122.519  0.00  0.00    +0.000 OA
ATOM     34  H   UNL     1      -7.699   0.451 122.803  0.00  0.00    +0.000 HD
BRANCH  32  35
ATOM     35  C   UNL     1      -9.697   2.029 122.630  0.00  0.00    +0.000 C 
BRANCH  35  36
ATOM     36  N   UNL     1      -8.511   2.842 123.002  0.00  0.00    +0.000 N 
ATOM     37  C   UNL     1      -7.612   3.262 122.005  0.00  0.00    +0.000 A 
ATOM     38  C   UNL     1      -6.395   3.746 122.336  0.00  0.00    +0.000 A 
ATOM     39  C   UNL     1      -6.076   4.001 123.724  0.00  0.00    +0.000 A 
ATOM     40  C   UNL     1      -6.988   3.799 124.661  0.00  0.00    +0.000 A 
ATOM     41  C   UNL     1      -8.185   3.043 124.346  0.00  0.00    +0.000 A 
ATOM     42  O   UNL     1      -8.703   2.654 125.377  0.00  0.00    +0.000 OA
BRANCH  38  43
ATOM     43  C   UNL     1      -5.288   4.081 121.390  0.00  0.00    +0.000 C 
ATOM     44  F   UNL     1      -5.703   4.929 120.415  0.00  0.00    +0.000 F 
ATOM     45  F   UNL     1      -4.266   4.700 122.038  0.00  0.00    +0.000 F 
ATOM     46  F   UNL     1      -4.770   2.988 120.781  0.00  0.00    +0.000 F 
ENDBRANCH  38  43
ENDBRANCH  35  36
ENDBRANCH  32  35
ENDBRANCH  30  31
ENDBRANCH   3  30
TORSDOF 7
ENDMDL
MODEL 4
REMARK VINA RESULT:     -10.9      3.657      8.244
REMARK  Name = CHEMBL281106
REMARK  8 active torsions:
REMARK  status: ('A' for Active; 'I' for Inactive)
REMARK    1  A    between atoms: C_1  and  N_2
REMARK    2  A    between atoms: C_3  and  C_4
REMARK    3  A    between atoms: C_4  and  N_5
REMARK    4  A    between atoms: C_6  and  C_8
REMARK    5  A    between atoms: C_8  and  N_9
REMARK    6  A    between atoms: C_11  and  C_12
REMARK    7  A    between atoms: C_24  and  C_25
REMARK    8  A    between atoms: C_30  and  N_31
REMARK                            x       y       z     vdW  Elec       q    Type
REMARK                         _______ _______ _______ _____ _____    ______ ____
ROOT
ATOM      1  C   UNL     1      -6.900   3.541 130.447  0.00  0.00    +0.000 C 
ATOM      2  N   UNL     1      -5.547   3.261 130.012  0.00  0.00    +0.000 N 
ATOM      3  C   UNL     1      -4.434   2.791 130.663  0.00  0.00    +0.000 A 
ATOM      4  C   UNL     1      -3.382   2.799 129.747  0.00  0.00    +0.000 A 
ATOM      5  C   UNL     1      -3.861   3.289 128.512  0.00  0.00    +0.000 A 
ATOM      6  C   UNL     1      -3.306   3.550 127.244  0.00  0.00    +0.000 A 
ATOM      7  C   UNL     1      -4.134   4.080 126.230  0.00  0.00    +0.000 A 
ATOM      8  C   UNL     1      -5.496   4.338 126.457  0.00  0.00    +0.000 A 
ATOM      9  C   UNL     1      -6.029   4.025 127.694  0.00  0.00    +0.000 A 
ATOM     10  C   UNL     1      -5.207   3.540 128.704  0.00  0.00    +0.000 A 
ENDROOT
BRANCH   8  11
ATOM     11  C   UNL     1      -6.397   4.869 125.383  0.00  0.00    +0.000 C 
ATOM     12  O   UNL     1      -6.258   6.044 125.041  0.00  0.00    +0.000 OA
ATOM     13  N   UNL     1      -7.237   3.974 124.668  0.00  0.00    +0.000 N 
ATOM     14  C   UNL     1      -6.637   3.386 123.484  0.00  0.00    +0.000 C 
ATOM     15  C   UNL     1      -7.674   3.030 122.444  0.00  0.00    +0.000 C 
ATOM     16  C   UNL     1      -8.607   1.640 123.016  0.00  0.00    +0.000 C 
ATOM     17  C   UNL     1      -9.320   2.657 124.230  0.00  0.00    +0.000 C 
ATOM     18  C   UNL     1      -8.321   3.169 125.269  0.00  0.00    +0.000 C 
BRANCH  16  19
ATOM     19  N   UNL     1      -7.779   0.003 122.736  0.00  0.00    +0.000 N 
ATOM     20  C   UNL     1      -9.095  -0.501 122.979  0.00  0.00    +0.000 C 
ATOM     21  O   UNL     1     -10.203  -0.169 122.462  0.00  0.00    +0.000 OA
ATOM     22  O   UNL     1      -9.219  -1.252 124.043  0.00  0.00    +0.000 OA
ATOM     23  C   UNL     1      -9.136  -2.451 123.379  0.00  0.00    +0.000 C 
ATOM     24  C   UNL     1      -7.743  -2.605 123.777  0.00  0.00    +0.000 A 
ATOM     25  C   UNL     1      -7.552  -3.930 124.466  0.00  0.00    +0.000 A 
ATOM     26  C   UNL     1      -6.355  -4.518 124.720  0.00  0.00    +0.000 A 
ATOM     27  C   UNL     1      -5.408  -3.916 123.930  0.00  0.00    +0.000 A 
ATOM     28  C   UNL     1      -5.695  -2.505 123.141  0.00  0.00    +0.000 A 
ATOM     29  C   UNL     1      -6.893  -1.526 123.328  0.00  0.00    +0.000 A 
ENDBRANCH  16  19
ENDBRANCH   8  11
BRANCH   3  30
ATOM     30  C   UNL     1      -4.330   2.359 132.071  0.00  0.00    +0.000 C 
BRANCH  30  31
ATOM     31  N   UNL     1      -5.167   1.212 132.358  0.00  0.00    +0.000 N 
ATOM     32  C   UNL     1      -4.547   0.004 132.288  0.00  0.00    +0.000 C 
ATOM     33  O   UNL     1      -3.364   0.076 131.999  0.00  0.00    +0.000 OA
ATOM     34  H   UNL     1      -6.024   1.148 131.855  0.00  0.00    +0.000 HD
BRANCH  32  35
ATOM     35  C   UNL     1      -5.459  -1.267 132.460  0.00  0.00    +0.000 C 
BRANCH  35  36
ATOM     36  N   UNL     1      -6.002  -1.911 131.237  0.00  0.00    +0.000 N 
ATOM     37  C   UNL     1      -5.563  -1.486 129.970  0.00  0.00    +0.000 A 
ATOM     38  C   UNL     1      -6.234  -1.841 128.853  0.00  0.00    +0.000 A 
ATOM     39  C   UNL     1      -7.306  -2.809 128.937  0.00  0.00    +0.000 A 
ATOM     40  C   UNL     1      -7.601  -3.373 130.097  0.00  0.00    +0.000 A 
ATOM     41  C   UNL     1      -7.070  -2.808 131.324  0.00  0.00    +0.000 A 
ATOM     42  O   UNL     1      -7.721  -3.210 132.271  0.00  0.00    +0.000 OA
BRANCH  38  43
ATOM     43  C   UNL     1      -5.978  -1.342 127.469  0.00  0.00    +0.000 C 
ATOM     44  F   UNL     1      -5.176  -2.188 126.772  0.00  0.00    +0.000 F 
ATOM     45  F   UNL     1      -7.137  -1.237 126.768  0.00  0.00    +0.000 F 
ATOM     46  F   UNL     1      -5.390  -0.123 127.452  0.00  0.00    +0.000 F 
ENDBRANCH  38  43
ENDBRANCH  35  36
ENDBRANCH  32  35
ENDBRANCH  30  31
ENDBRANCH   3  30
TORSDOF 7
ENDMDL
MODEL 5
REMARK VINA RESULT:     -10.8      4.726      9.245
REMARK  Name = CHEMBL281106
REMARK  8 active torsions:
REMARK  status: ('A' for Active; 'I' for Inactive)
REMARK    1  A    between atoms: C_1  and  N_2
REMARK    2  A    between atoms: C_3  and  C_4
REMARK    3  A    between atoms: C_4  and  N_5
REMARK    4  A    between atoms: C_6  and  C_8
REMARK    5  A    between atoms: C_8  and  N_9
REMARK    6  A    between atoms: C_11  and  C_12
REMARK    7  A    between atoms: C_24  and  C_25
REMARK    8  A    between atoms: C_30  and  N_31
REMARK                            x       y       z     vdW  Elec       q    Type
REMARK                         _______ _______ _______ _____ _____    ______ ____
ROOT
ATOM      1  C   UNL     1      -5.522  -0.599 128.527  0.00  0.00    +0.000 C 
ATOM      2  N   UNL     1      -6.330  -1.725 128.947  0.00  0.00    +0.000 N 
ATOM      3  C   UNL     1      -6.322  -2.516 130.069  0.00  0.00    +0.000 A 
ATOM      4  C   UNL     1      -7.287  -3.506 129.886  0.00  0.00    +0.000 A 
ATOM      5  C   UNL     1      -7.895  -3.319 128.626  0.00  0.00    +0.000 A 
ATOM      6  C   UNL     1      -8.889  -3.977 127.876  0.00  0.00    +0.000 A 
ATOM      7  C   UNL     1      -9.219  -3.483 126.594  0.00  0.00    +0.000 A 
ATOM      8  C   UNL     1      -8.586  -2.346 126.062  0.00  0.00    +0.000 A 
ATOM      9  C   UNL     1      -7.651  -1.688 126.839  0.00  0.00    +0.000 A 
ATOM     10  C   UNL     1      -7.298  -2.196 128.083  0.00  0.00    +0.000 A 
ENDROOT
BRANCH   8  11
ATOM     11  C   UNL     1      -8.948  -1.789 124.718  0.00  0.00    +0.000 C 
ATOM     12  O   UNL     1      -9.739  -2.425 124.023  0.00  0.00    +0.000 OA
ATOM     13  N   UNL     1      -8.530  -0.477 124.370  0.00  0.00    +0.000 N 
ATOM     14  C   UNL     1      -9.453   0.579 124.744  0.00  0.00    +0.000 C 
ATOM     15  C   UNL     1      -9.345   1.775 123.825  0.00  0.00    +0.000 C 
ATOM     16  C   UNL     1      -7.814   2.603 124.139  0.00  0.00    +0.000 C 
ATOM     17  C   UNL     1      -6.974   1.252 123.444  0.00  0.00    +0.000 C 
ATOM     18  C   UNL     1      -7.122  -0.044 124.243  0.00  0.00    +0.000 C 
BRANCH  16  19
ATOM     19  N   UNL     1      -7.855   3.745 125.602  0.00  0.00    +0.000 N 
ATOM     20  C   UNL     1      -6.462   3.883 125.306  0.00  0.00    +0.000 C 
ATOM     21  O   UNL     1      -5.885   4.154 124.212  0.00  0.00    +0.000 OA
ATOM     22  O   UNL     1      -5.648   3.450 126.234  0.00  0.00    +0.000 OA
ATOM     23  C   UNL     1      -5.410   4.679 126.798  0.00  0.00    +0.000 C 
ATOM     24  C   UNL     1      -6.344   4.393 127.879  0.00  0.00    +0.000 A 
ATOM     25  C   UNL     1      -5.661   4.585 129.207  0.00  0.00    +0.000 A 
ATOM     26  C   UNL     1      -6.290   4.673 130.407  0.00  0.00    +0.000 A 
ATOM     27  C   UNL     1      -7.616   4.939 130.176  0.00  0.00    +0.000 A 
ATOM     28  C   UNL     1      -8.293   4.783 128.689  0.00  0.00    +0.000 A 
ATOM     29  C   UNL     1      -7.685   4.109 127.422  0.00  0.00    +0.000 A 
ENDBRANCH  16  19
ENDBRANCH   8  11
BRANCH   3  30
ATOM     30  C   UNL     1      -5.459  -2.380 131.260  0.00  0.00    +0.000 C 
BRANCH  30  31
ATOM     31  N   UNL     1      -6.043  -1.518 132.266  0.00  0.00    +0.000 N 
ATOM     32  C   UNL     1      -5.379  -0.354 132.495  0.00  0.00    +0.000 C 
ATOM     33  O   UNL     1      -4.386  -0.211 131.801  0.00  0.00    +0.000 OA
ATOM     34  H   UNL     1      -6.247  -1.934 133.148  0.00  0.00    +0.000 HD
BRANCH  32  35
ATOM     35  C   UNL     1      -5.911   0.540 133.676  0.00  0.00    +0.000 C 
BRANCH  35  36
ATOM     36  N   UNL     1      -6.932   1.573 133.368  0.00  0.00    +0.000 N 
ATOM     37  C   UNL     1      -6.747   2.894 133.815  0.00  0.00    +0.000 A 
ATOM     38  C   UNL     1      -7.771   3.775 133.804  0.00  0.00    +0.000 A 
ATOM     39  C   UNL     1      -9.019   3.417 133.166  0.00  0.00    +0.000 A 
ATOM     40  C   UNL     1      -9.143   2.247 132.561  0.00  0.00    +0.000 A 
ATOM     41  C   UNL     1      -8.154   1.211 132.795  0.00  0.00    +0.000 A 
ATOM     42  O   UNL     1      -8.613   0.131 132.470  0.00  0.00    +0.000 OA
BRANCH  38  43
ATOM     43  C   UNL     1      -7.763   5.150 134.388  0.00  0.00    +0.000 C 
ATOM     44  F   UNL     1      -8.018   5.129 135.721  0.00  0.00    +0.000 F 
ATOM     45  F   UNL     1      -6.548   5.738 134.231  0.00  0.00    +0.000 F 
ATOM     46  F   UNL     1      -8.678   5.968 133.815  0.00  0.00    +0.000 F 
ENDBRANCH  38  43
ENDBRANCH  35  36
ENDBRANCH  32  35
ENDBRANCH  30  31
ENDBRANCH   3  30
TORSDOF 7
ENDMDL
MODEL 6
REMARK VINA RESULT:     -10.8      3.963      8.949
REMARK  Name = CHEMBL281106
REMARK  8 active torsions:
REMARK  status: ('A' for Active; 'I' for Inactive)
REMARK    1  A    between atoms: C_1  and  N_2
REMARK    2  A    between atoms: C_3  and  C_4
REMARK    3  A    between atoms: C_4  and  N_5
REMARK    4  A    between atoms: C_6  and  C_8
REMARK    5  A    between atoms: C_8  and  N_9
REMARK    6  A    between atoms: C_11  and  C_12
REMARK    7  A    between atoms: C_24  and  C_25
REMARK    8  A    between atoms: C_30  and  N_31
REMARK                            x       y       z     vdW  Elec       q    Type
REMARK                         _______ _______ _______ _____ _____    ______ ____
ROOT
ATOM      1  C   UNL     1      -4.990  -1.163 128.299  0.00  0.00    +0.000 C 
ATOM      2  N   UNL     1      -5.901  -2.127 128.881  0.00  0.00    +0.000 N 
ATOM      3  C   UNL     1      -5.884  -2.842 130.052  0.00  0.00    +0.000 A 
ATOM      4  C   UNL     1      -6.996  -3.684 130.041  0.00  0.00    +0.000 A 
ATOM      5  C   UNL     1      -7.705  -3.484 128.837  0.00  0.00    +0.000 A 
ATOM      6  C   UNL     1      -8.859  -4.028 128.240  0.00  0.00    +0.000 A 
ATOM      7  C   UNL     1      -9.252  -3.567 126.964  0.00  0.00    +0.000 A 
ATOM      8  C   UNL     1      -8.524  -2.573 126.288  0.00  0.00    +0.000 A 
ATOM      9  C   UNL     1      -7.425  -2.018 126.917  0.00  0.00    +0.000 A 
ATOM     10  C   UNL     1      -7.015  -2.498 128.154  0.00  0.00    +0.000 A 
ENDROOT
BRANCH   8  11
ATOM     11  C   UNL     1      -8.946  -2.049 124.948  0.00  0.00    +0.000 C 
ATOM     12  O   UNL     1      -9.754  -2.711 124.297  0.00  0.00    +0.000 OA
ATOM     13  N   UNL     1      -8.562  -0.739 124.557  0.00  0.00    +0.000 N 
ATOM     14  C   UNL     1      -9.486   0.312 124.945  0.00  0.00    +0.000 C 
ATOM     15  C   UNL     1      -9.431   1.489 123.998  0.00  0.00    +0.000 C 
ATOM     16  C   UNL     1      -7.902   2.346 124.236  0.00  0.00    +0.000 C 
ATOM     17  C   UNL     1      -7.070   0.992 123.535  0.00  0.00    +0.000 C 
ATOM     18  C   UNL     1      -7.167  -0.288 124.366  0.00  0.00    +0.000 C 
BRANCH  16  19
ATOM     19  N   UNL     1      -7.904   3.517 125.675  0.00  0.00    +0.000 N 
ATOM     20  C   UNL     1      -6.527   3.673 125.318  0.00  0.00    +0.000 C 
ATOM     21  O   UNL     1      -6.000   3.931 124.195  0.00  0.00    +0.000 OA
ATOM     22  O   UNL     1      -5.667   3.274 126.220  0.00  0.00    +0.000 OA
ATOM     23  C   UNL     1      -5.429   4.519 126.748  0.00  0.00    +0.000 C 
ATOM     24  C   UNL     1      -6.311   4.240 127.872  0.00  0.00    +0.000 A 
ATOM     25  C   UNL     1      -5.577   4.472 129.167  0.00  0.00    +0.000 A 
ATOM     26  C   UNL     1      -6.157   4.574 130.390  0.00  0.00    +0.000 A 
ATOM     27  C   UNL     1      -7.497   4.812 130.210  0.00  0.00    +0.000 A 
ATOM     28  C   UNL     1      -8.232   4.613 128.756  0.00  0.00    +0.000 A 
ATOM     29  C   UNL     1      -7.665   3.923 127.478  0.00  0.00    +0.000 A 
ENDBRANCH  16  19
ENDBRANCH   8  11
BRANCH   3  30
ATOM     30  C   UNL     1      -4.886  -2.766 131.138  0.00  0.00    +0.000 C 
BRANCH  30  31
ATOM     31  N   UNL     1      -5.386  -2.055 132.296  0.00  0.00    +0.000 N 
ATOM     32  C   UNL     1      -4.828  -0.836 132.519  0.00  0.00    +0.000 C 
ATOM     33  O   UNL     1      -3.987  -0.523 131.693  0.00  0.00    +0.000 OA
ATOM     34  H   UNL     1      -5.392  -2.553 133.159  0.00  0.00    +0.000 HD
BRANCH  32  35
ATOM     35  C   UNL     1      -5.251  -0.098 133.843  0.00  0.00    +0.000 C 
BRANCH  35  36
ATOM     36  N   UNL     1      -6.303   0.947 133.758  0.00  0.00    +0.000 N 
ATOM     37  C   UNL     1      -7.398   0.767 132.894  0.00  0.00    +0.000 A 
ATOM     38  C   UNL     1      -8.207   1.804 132.582  0.00  0.00    +0.000 A 
ATOM     39  C   UNL     1      -8.057   3.065 133.275  0.00  0.00    +0.000 A 
ATOM     40  C   UNL     1      -7.158   3.190 134.237  0.00  0.00    +0.000 A 
ATOM     41  C   UNL     1      -6.127   2.180 134.392  0.00  0.00    +0.000 A 
ATOM     42  O   UNL     1      -5.211   2.634 135.053  0.00  0.00    +0.000 OA
BRANCH  38  43
ATOM     43  C   UNL     1      -9.303   1.798 131.567  0.00  0.00    +0.000 C 
ATOM     44  F   UNL     1     -10.191   0.797 131.797  0.00  0.00    +0.000 F 
ATOM     45  F   UNL     1     -10.006   2.960 131.604  0.00  0.00    +0.000 F 
ATOM     46  F   UNL     1      -8.845   1.649 130.302  0.00  0.00    +0.000 F 
ENDBRANCH  38  43
ENDBRANCH  35  36
ENDBRANCH  32  35
ENDBRANCH  30  31
ENDBRANCH   3  30
TORSDOF 7
ENDMDL
MODEL 7
REMARK VINA RESULT:     -10.5      3.202      5.709
REMARK  Name = CHEMBL281106
REMARK  8 active torsions:
REMARK  status: ('A' for Active; 'I' for Inactive)
REMARK    1  A    between atoms: C_1  and  N_2
REMARK    2  A    between atoms: C_3  and  C_4
REMARK    3  A    between atoms: C_4  and  N_5
REMARK    4  A    between atoms: C_6  and  C_8
REMARK    5  A    between atoms: C_8  and  N_9
REMARK    6  A    between atoms: C_11  and  C_12
REMARK    7  A    between atoms: C_24  and  C_25
REMARK    8  A    between atoms: C_30  and  N_31
REMARK                            x       y       z     vdW  Elec       q    Type
REMARK                         _______ _______ _______ _____ _____    ______ ____
ROOT
ATOM      1  C   UNL     1      -7.524   4.318 126.803  0.00  0.00    +0.000 C 
ATOM      2  N   UNL     1      -6.131   4.173 126.435  0.00  0.00    +0.000 N 
ATOM      3  C   UNL     1      -5.501   3.884 125.250  0.00  0.00    +0.000 A 
ATOM      4  C   UNL     1      -4.135   3.795 125.516  0.00  0.00    +0.000 A 
ATOM      5  C   UNL     1      -3.925   4.029 126.892  0.00  0.00    +0.000 A 
ATOM      6  C   UNL     1      -2.812   4.055 127.755  0.00  0.00    +0.000 A 
ATOM      7  C   UNL     1      -3.016   4.313 129.129  0.00  0.00    +0.000 A 
ATOM      8  C   UNL     1      -4.301   4.556 129.645  0.00  0.00    +0.000 A 
ATOM      9  C   UNL     1      -5.370   4.577 128.769  0.00  0.00    +0.000 A 
ATOM     10  C   UNL     1      -5.175   4.284 127.425  0.00  0.00    +0.000 A 
ENDROOT
BRANCH   8  11
ATOM     11  C   UNL     1      -4.532   4.865 131.094  0.00  0.00    +0.000 C 
ATOM     12  O   UNL     1      -4.713   6.040 131.412  0.00  0.00    +0.000 OA
ATOM     13  N   UNL     1      -4.725   3.801 132.014  0.00  0.00    +0.000 N 
ATOM     14  C   UNL     1      -6.103   3.373 132.174  0.00  0.00    +0.000 C 
ATOM     15  C   UNL     1      -6.355   2.787 133.545  0.00  0.00    +0.000 C 
ATOM     16  C   UNL     1      -5.550   1.215 133.654  0.00  0.00    +0.000 C 
ATOM     17  C   UNL     1      -4.019   2.033 133.640  0.00  0.00    +0.000 C 
ATOM     18  C   UNL     1      -3.721   2.763 132.329  0.00  0.00    +0.000 C 
BRANCH  16  19
ATOM     19  N   UNL     1      -6.505  -0.181 132.892  0.00  0.00    +0.000 N 
ATOM     20  C   UNL     1      -5.697  -0.973 133.767  0.00  0.00    +0.000 C 
ATOM     21  O   UNL     1      -5.485  -0.854 135.011  0.00  0.00    +0.000 OA
ATOM     22  O   UNL     1      -4.877  -1.803 133.174  0.00  0.00    +0.000 OA
ATOM     23  C   UNL     1      -5.682  -2.908 133.299  0.00  0.00    +0.000 C 
ATOM     24  C   UNL     1      -6.113  -2.784 131.913  0.00  0.00    +0.000 A 
ATOM     25  C   UNL     1      -5.870  -4.080 131.185  0.00  0.00    +0.000 A 
ATOM     26  C   UNL     1      -6.393  -4.411 129.976  0.00  0.00    +0.000 A 
ATOM     27  C   UNL     1      -7.444  -3.567 129.720  0.00  0.00    +0.000 A 
ATOM     28  C   UNL     1      -7.704  -2.203 130.595  0.00  0.00    +0.000 A 
ATOM     29  C   UNL     1      -6.746  -1.520 131.617  0.00  0.00    +0.000 A 
ENDBRANCH  16  19
ENDBRANCH   8  11
BRANCH   3  30
ATOM     30  C   UNL     1      -6.123   3.688 123.925  0.00  0.00    +0.000 C 
BRANCH  30  31
ATOM     31  N   UNL     1      -6.854   2.440 123.840  0.00  0.00    +0.000 N 
ATOM     32  C   UNL     1      -8.183   2.558 123.581  0.00  0.00    +0.000 C 
ATOM     33  O   UNL     1      -8.557   3.712 123.451  0.00  0.00    +0.000 OA
ATOM     34  H   UNL     1      -6.743   1.805 124.599  0.00  0.00    +0.000 HD
BRANCH  32  35
ATOM     35  C   UNL     1      -9.029   1.232 123.618  0.00  0.00    +0.000 C 
BRANCH  35  36
ATOM     36  N   UNL     1      -8.636   0.176 124.587  0.00  0.00    +0.000 N 
ATOM     37  C   UNL     1      -8.369  -1.127 124.130  0.00  0.00    +0.000 A 
ATOM     38  C   UNL     1      -8.293  -2.159 124.998  0.00  0.00    +0.000 A 
ATOM     39  C   UNL     1      -8.308  -1.902 126.422  0.00  0.00    +0.000 A 
ATOM     40  C   UNL     1      -8.357  -0.659 126.871  0.00  0.00    +0.000 A 
ATOM     41  C   UNL     1      -8.700   0.419 125.962  0.00  0.00    +0.000 A 
ATOM     42  O   UNL     1      -9.048   1.394 126.601  0.00  0.00    +0.000 OA
BRANCH  38  43
ATOM     43  C   UNL     1      -8.173  -3.606 124.646  0.00  0.00    +0.000 C 
ATOM     44  F   UNL     1      -9.138  -3.990 123.771  0.00  0.00    +0.000 F 
ATOM     45  F   UNL     1      -6.980  -3.864 124.050  0.00  0.00    +0.000 F 
ATOM     46  F   UNL     1      -8.262  -4.417 125.727  0.00  0.00    +0.000 F 
ENDBRANCH  38  43
ENDBRANCH  35  36
ENDBRANCH  32  35
ENDBRANCH  30  31
ENDBRANCH   3  30
TORSDOF 7
ENDMDL
MODEL 8
REMARK VINA RESULT:     -10.5      4.437      9.530
REMARK  Name = CHEMBL281106
REMARK  8 active torsions:
REMARK  status: ('A' for Active; 'I' for Inactive)
REMARK    1  A    between atoms: C_1  and  N_2
REMARK    2  A    between atoms: C_3  and  C_4
REMARK    3  A    between atoms: C_4  and  N_5
REMARK    4  A    between atoms: C_6  and  C_8
REMARK    5  A    between atoms: C_8  and  N_9
REMARK    6  A    between atoms: C_11  and  C_12
REMARK    7  A    between atoms: C_24  and  C_25
REMARK    8  A    between atoms: C_30  and  N_31
REMARK                            x       y       z     vdW  Elec       q    Type
REMARK                         _______ _______ _______ _____ _____    ______ ____
ROOT
ATOM      1  C   UNL     1      -5.764   2.341 128.712  0.00  0.00    +0.000 C 
ATOM      2  N   UNL     1      -5.373   3.406 127.813  0.00  0.00    +0.000 N 
ATOM      3  C   UNL     1      -4.743   4.610 128.006  0.00  0.00    +0.000 A 
ATOM      4  C   UNL     1      -4.703   5.261 126.773  0.00  0.00    +0.000 A 
ATOM      5  C   UNL     1      -5.324   4.440 125.807  0.00  0.00    +0.000 A 
ATOM      6  C   UNL     1      -5.612   4.539 124.432  0.00  0.00    +0.000 A 
ATOM      7  C   UNL     1      -6.296   3.477 123.798  0.00  0.00    +0.000 A 
ATOM      8  C   UNL     1      -6.682   2.327 124.508  0.00  0.00    +0.000 A 
ATOM      9  C   UNL     1      -6.342   2.233 125.844  0.00  0.00    +0.000 A 
ATOM     10  C   UNL     1      -5.704   3.292 126.478  0.00  0.00    +0.000 A 
ENDROOT
BRANCH   8  11
ATOM     11  C   UNL     1      -7.379   1.178 123.844  0.00  0.00    +0.000 C 
ATOM     12  O   UNL     1      -7.483   1.196 122.617  0.00  0.00    +0.000 OA
ATOM     13  N   UNL     1      -7.721   0.031 124.609  0.00  0.00    +0.000 N 
ATOM     14  C   UNL     1      -6.693  -0.993 124.670  0.00  0.00    +0.000 C 
ATOM     15  C   UNL     1      -7.281  -2.371 124.869  0.00  0.00    +0.000 C 
ATOM     16  C   UNL     1      -7.912  -2.494 126.517  0.00  0.00    +0.000 C 
ATOM     17  C   UNL     1      -9.169  -1.377 126.087  0.00  0.00    +0.000 C 
ATOM     18  C   UNL     1      -8.660   0.026 125.750  0.00  0.00    +0.000 C 
BRANCH  16  19
ATOM     19  N   UNL     1      -6.622  -2.871 127.797  0.00  0.00    +0.000 N 
ATOM     20  C   UNL     1      -7.767  -3.104 128.622  0.00  0.00    +0.000 C 
ATOM     21  O   UNL     1      -8.790  -3.821 128.414  0.00  0.00    +0.000 OA
ATOM     22  O   UNL     1      -7.896  -2.292 129.640  0.00  0.00    +0.000 OA
ATOM     23  C   UNL     1      -7.346  -3.141 130.568  0.00  0.00    +0.000 C 
ATOM     24  C   UNL     1      -6.080  -2.422 130.516  0.00  0.00    +0.000 A 
ATOM     25  C   UNL     1      -5.678  -1.996 131.903  0.00  0.00    +0.000 A 
ATOM     26  C   UNL     1      -4.444  -1.554 132.261  0.00  0.00    +0.000 A 
ATOM     27  C   UNL     1      -3.559  -1.916 131.277  0.00  0.00    +0.000 A 
ATOM     28  C   UNL     1      -4.056  -2.445 129.805  0.00  0.00    +0.000 A 
ATOM     29  C   UNL     1      -5.490  -2.391 129.197  0.00  0.00    +0.000 A 
ENDBRANCH  16  19
ENDBRANCH   8  11
BRANCH   3  30
ATOM     30  C   UNL     1      -4.206   5.152 129.271  0.00  0.00    +0.000 C 
BRANCH  30  31
ATOM     31  N   UNL     1      -5.204   5.191 130.320  0.00  0.00    +0.000 N 
ATOM     32  C   UNL     1      -5.618   6.433 130.685  0.00  0.00    +0.000 C 
ATOM     33  O   UNL     1      -5.084   7.333 130.058  0.00  0.00    +0.000 OA
ATOM     34  H   UNL     1      -5.001   4.678 131.149  0.00  0.00    +0.000 HD
BRANCH  32  35
ATOM     35  C   UNL     1      -6.598   6.515 131.914  0.00  0.00    +0.000 C 
BRANCH  35  36
ATOM     36  N   UNL     1      -8.057   6.399 131.656  0.00  0.00    +0.000 N 
ATOM     37  C   UNL     1      -8.600   6.926 130.471  0.00  0.00    +0.000 A 
ATOM     38  C   UNL     1      -9.934   7.092 130.339  0.00  0.00    +0.000 A 
ATOM     39  C   UNL     1     -10.827   6.565 131.349  0.00  0.00    +0.000 A 
ATOM     40  C   UNL     1     -10.340   5.887 132.375  0.00  0.00    +0.000 A 
ATOM     41  C   UNL     1      -8.917   5.933 132.654  0.00  0.00    +0.000 A 
ATOM     42  O   UNL     1      -8.716   5.576 133.801  0.00  0.00    +0.000 OA
BRANCH  38  43
ATOM     43  C   UNL     1     -10.635   7.777 129.212  0.00  0.00    +0.000 C 
ATOM     44  F   UNL     1     -11.707   8.489 129.647  0.00  0.00    +0.000 F 
ATOM     45  F   UNL     1      -9.809   8.657 128.588  0.00  0.00    +0.000 F 
ATOM     46  F   UNL     1     -11.081   6.913 128.270  0.00  0.00    +0.000 F 
ENDBRANCH  38  43
ENDBRANCH  35  36
ENDBRANCH  32  35
ENDBRANCH  30  31
ENDBRANCH   3  30
TORSDOF 7
ENDMDL
MODEL 9
REMARK VINA RESULT:     -10.3      3.997      6.433
REMARK  Name = CHEMBL281106
REMARK  8 active torsions:
REMARK  status: ('A' for Active; 'I' for Inactive)
REMARK    1  A    between atoms: C_1  and  N_2
REMARK    2  A    between atoms: C_3  and  C_4
REMARK    3  A    between atoms: C_4  and  N_5
REMARK    4  A    between atoms: C_6  and  C_8
REMARK    5  A    between atoms: C_8  and  N_9
REMARK    6  A    between atoms: C_11  and  C_12
REMARK    7  A    between atoms: C_24  and  C_25
REMARK    8  A    between atoms: C_30  and  N_31
REMARK                            x       y       z     vdW  Elec       q    Type
REMARK                         _______ _______ _______ _____ _____    ______ ____
ROOT
ATOM      1  C   UNL     1      -7.507   4.102 127.170  0.00  0.00    +0.000 C 
ATOM      2  N   UNL     1      -6.103   4.167 126.821  0.00  0.00    +0.000 N 
ATOM      3  C   UNL     1      -5.426   4.028 125.635  0.00  0.00    +0.000 A 
ATOM      4  C   UNL     1      -4.064   4.110 125.922  0.00  0.00    +0.000 A 
ATOM      5  C   UNL     1      -3.904   4.299 127.313  0.00  0.00    +0.000 A 
ATOM      6  C   UNL     1      -2.815   4.430 128.196  0.00  0.00    +0.000 A 
ATOM      7  C   UNL     1      -3.069   4.586 129.577  0.00  0.00    +0.000 A 
ATOM      8  C   UNL     1      -4.381   4.626 130.080  0.00  0.00    +0.000 A 
ATOM      9  C   UNL     1      -5.432   4.547 129.187  0.00  0.00    +0.000 A 
ATOM     10  C   UNL     1      -5.184   4.354 127.834  0.00  0.00    +0.000 A 
ENDROOT
BRANCH   8  11
ATOM     11  C   UNL     1      -4.669   4.824 131.538  0.00  0.00    +0.000 C 
ATOM     12  O   UNL     1      -4.984   5.953 131.916  0.00  0.00    +0.000 OA
ATOM     13  N   UNL     1      -4.759   3.695 132.394  0.00  0.00    +0.000 N 
ATOM     14  C   UNL     1      -6.084   3.110 132.499  0.00  0.00    +0.000 C 
ATOM     15  C   UNL     1      -6.293   2.422 133.829  0.00  0.00    +0.000 C 
ATOM     16  C   UNL     1      -5.320   0.945 133.870  0.00  0.00    +0.000 C 
ATOM     17  C   UNL     1      -3.889   1.925 133.937  0.00  0.00    +0.000 C 
ATOM     18  C   UNL     1      -3.652   2.756 132.674  0.00  0.00    +0.000 C 
BRANCH  16  19
ATOM     19  N   UNL     1      -6.102  -0.502 133.011  0.00  0.00    +0.000 N 
ATOM     20  C   UNL     1      -5.853  -1.149 134.262  0.00  0.00    +0.000 C 
ATOM     21  O   UNL     1      -6.142  -0.784 135.441  0.00  0.00    +0.000 OA
ATOM     22  O   UNL     1      -5.011  -2.150 134.217  0.00  0.00    +0.000 OA
ATOM     23  C   UNL     1      -5.966  -3.135 134.164  0.00  0.00    +0.000 C 
ATOM     24  C   UNL     1      -5.778  -3.277 132.726  0.00  0.00    +0.000 A 
ATOM     25  C   UNL     1      -5.478  -4.714 132.391  0.00  0.00    +0.000 A 
ATOM     26  C   UNL     1      -5.518  -5.254 131.145  0.00  0.00    +0.000 A 
ATOM     27  C   UNL     1      -6.226  -4.404 130.334  0.00  0.00    +0.000 A 
ATOM     28  C   UNL     1      -6.589  -2.867 130.782  0.00  0.00    +0.000 A 
ATOM     29  C   UNL     1      -6.025  -2.059 131.989  0.00  0.00    +0.000 A 
ENDBRANCH  16  19
ENDBRANCH   8  11
BRANCH   3  30
ATOM     30  C   UNL     1      -6.000   3.818 124.291  0.00  0.00    +0.000 C 
BRANCH  30  31
ATOM     31  N   UNL     1      -6.504   2.472 124.111  0.00  0.00    +0.000 N 
ATOM     32  C   UNL     1      -7.851   2.369 123.956  0.00  0.00    +0.000 C 
ATOM     33  O   UNL     1      -8.431   3.441 123.985  0.00  0.00    +0.000 OA
ATOM     34  H   UNL     1      -6.218   1.795 124.783  0.00  0.00    +0.000 HD
BRANCH  32  35
ATOM     35  C   UNL     1      -8.443   0.912 123.896  0.00  0.00    +0.000 C 
BRANCH  35  36
ATOM     36  N   UNL     1      -8.286   0.041 125.089  0.00  0.00    +0.000 N 
ATOM     37  C   UNL     1      -8.358   0.602 126.377  0.00  0.00    +0.000 A 
ATOM     38  C   UNL     1      -7.940  -0.096 127.456  0.00  0.00    +0.000 A 
ATOM     39  C   UNL     1      -7.581  -1.490 127.315  0.00  0.00    +0.000 A 
ATOM     40  C   UNL     1      -7.700  -2.090 126.142  0.00  0.00    +0.000 A 
ATOM     41  C   UNL     1      -7.892  -1.292 124.945  0.00  0.00    +0.000 A 
ATOM     42  O   UNL     1      -7.614  -1.958 123.964  0.00  0.00    +0.000 OA
BRANCH  38  43
ATOM     43  C   UNL     1      -7.813   0.423 128.851  0.00  0.00    +0.000 C 
ATOM     44  F   UNL     1      -8.316  -0.454 129.758  0.00  0.00    +0.000 F 
ATOM     45  F   UNL     1      -6.509   0.620 129.180  0.00  0.00    +0.000 F 
ATOM     46  F   UNL     1      -8.452   1.603 129.033  0.00  0.00    +0.000 F 
ENDBRANCH  38  43
ENDBRANCH  35  36
ENDBRANCH  32  35
ENDBRANCH  30  31
ENDBRANCH   3  30
TORSDOF 7
ENDMDL
