MODEL 1
REMARK VINA RESULT:      -9.1      0.000      0.000
REMARK  Name = CHEMBL32740
REMARK  3 active torsions:
REMARK  status: ('A' for Active; 'I' for Inactive)
REMARK    1  A    between atoms: C_1  and  C_2
REMARK    2  A    between atoms: C_6  and  C_7
REMARK    3  A    between atoms: C_12  and  N_13
REMARK                            x       y       z     vdW  Elec       q    Type
REMARK                         _______ _______ _______ _____ _____    ______ ____
ROOT
ATOM      1  C   UNL     1      -7.334   3.357 128.247  0.00  0.00    +0.000 C 
ATOM      2  O   UNL     1      -6.212   3.781 128.525  0.00  0.00    +0.000 OA
ATOM      3  N   UNL     1      -7.510   2.375 127.283  0.00  0.00    +0.000 N 
ATOM      4  C   UNL     1      -6.707   1.164 127.377  0.00  0.00    +0.000 C 
ATOM      5  C   UNL     1      -5.897   0.932 126.120  0.00  0.00    +0.000 C 
ATOM      6  C   UNL     1      -6.798   0.949 124.870  0.00  0.00    +0.000 C 
ATOM      7  C   UNL     1      -7.597   2.259 124.811  0.00  0.00    +0.000 C 
ATOM      8  C   UNL     1      -8.354   2.547 126.102  0.00  0.00    +0.000 C 
ENDROOT
BRANCH   1  14
ATOM      9  C   UNL     1     -12.641   7.653 131.421  0.00  0.00    +0.000 C 
ATOM     10  C   UNL     1     -11.666   6.659 130.906  0.00  0.00    +0.000 A 
ATOM     11  C   UNL     1     -10.726   6.782 129.905  0.00  0.00    +0.000 A 
ATOM     12  C   UNL     1     -10.040   5.544 129.779  0.00  0.00    +0.000 A 
ATOM     13  C   UNL     1      -8.994   5.085 128.949  0.00  0.00    +0.000 A 
ATOM     14  C   UNL     1      -8.519   3.767 129.076  0.00  0.00    +0.000 A 
ATOM     15  C   UNL     1      -9.087   2.932 130.045  0.00  0.00    +0.000 A 
ATOM     16  C   UNL     1     -10.139   3.361 130.870  0.00  0.00    +0.000 A 
ATOM     17  C   UNL     1     -10.589   4.677 130.721  0.00  0.00    +0.000 A 
ATOM     18  N   UNL     1     -11.567   5.377 131.399  0.00  0.00    +0.000 N 
ATOM     19  H   UNL     1     -12.126   4.996 132.151  0.00  0.00    +0.000 HD
ENDBRANCH   1  14
BRANCH   6  20
ATOM     20  N   UNL     1      -7.590  -0.316 124.700  0.00  0.00    +0.000 N 
ATOM     21  C   UNL     1      -8.985  -0.381 124.722  0.00  0.00    +0.000 C 
ATOM     22  O   UNL     1      -9.783   0.370 124.176  0.00  0.00    +0.000 OA
ATOM     23  O   UNL     1      -9.469  -1.365 125.522  0.00  0.00    +0.000 OA
ATOM     24  C   UNL     1      -9.156  -2.639 125.004  0.00  0.00    +0.000 C 
ATOM     25  C   UNL     1      -7.704  -2.738 124.659  0.00  0.00    +0.000 A 
ATOM     26  C   UNL     1      -7.144  -3.998 124.436  0.00  0.00    +0.000 A 
ATOM     27  C   UNL     1      -5.806  -4.107 124.086  0.00  0.00    +0.000 A 
ATOM     28  C   UNL     1      -5.030  -2.960 123.949  0.00  0.00    +0.000 A 
ATOM     29  C   UNL     1      -5.586  -1.698 124.169  0.00  0.00    +0.000 A 
ATOM     30  C   UNL     1      -6.929  -1.572 124.535  0.00  0.00    +0.000 A 
ENDBRANCH   6  20
TORSDOF 2
ENDMDL
MODEL 2
REMARK VINA RESULT:      -9.0      3.056      4.115
REMARK  Name = CHEMBL32740
REMARK  3 active torsions:
REMARK  status: ('A' for Active; 'I' for Inactive)
REMARK    1  A    between atoms: C_1  and  C_2
REMARK    2  A    between atoms: C_6  and  C_7
REMARK    3  A    between atoms: C_12  and  N_13
REMARK                            x       y       z     vdW  Elec       q    Type
REMARK                         _______ _______ _______ _____ _____    ______ ____
ROOT
ATOM      1  C   UNL     1      -7.111   2.907 129.183  0.00  0.00    +0.000 C 
ATOM      2  O   UNL     1      -6.330   2.111 129.703  0.00  0.00    +0.000 OA
ATOM      3  N   UNL     1      -7.107   3.123 127.813  0.00  0.00    +0.000 N 
ATOM      4  C   UNL     1      -7.171   1.966 126.932  0.00  0.00    +0.000 C 
ATOM      5  C   UNL     1      -5.993   1.921 125.982  0.00  0.00    +0.000 C 
ATOM      6  C   UNL     1      -5.855   3.246 125.208  0.00  0.00    +0.000 C 
ATOM      7  C   UNL     1      -5.765   4.425 126.189  0.00  0.00    +0.000 C 
ATOM      8  C   UNL     1      -6.902   4.436 127.204  0.00  0.00    +0.000 C 
ENDROOT
BRANCH   1  14
ATOM      9  C   UNL     1     -12.763   7.452 131.207  0.00  0.00    +0.000 C 
ATOM     10  C   UNL     1     -11.659   6.483 130.992  0.00  0.00    +0.000 A 
ATOM     11  C   UNL     1     -10.963   6.180 129.841  0.00  0.00    +0.000 A 
ATOM     12  C   UNL     1     -10.006   5.176 130.146  0.00  0.00    +0.000 A 
ATOM     13  C   UNL     1      -9.029   4.494 129.389  0.00  0.00    +0.000 A 
ATOM     14  C   UNL     1      -8.209   3.528 130.002  0.00  0.00    +0.000 A 
ATOM     15  C   UNL     1      -8.369   3.271 131.368  0.00  0.00    +0.000 A 
ATOM     16  C   UNL     1      -9.346   3.924 132.137  0.00  0.00    +0.000 A 
ATOM     17  C   UNL     1     -10.144   4.880 131.500  0.00  0.00    +0.000 A 
ATOM     18  N   UNL     1     -11.147   5.691 131.994  0.00  0.00    +0.000 N 
ATOM     19  H   UNL     1     -11.454   5.697 132.959  0.00  0.00    +0.000 HD
ENDBRANCH   1  14
BRANCH   6  20
ATOM     20  N   UNL     1      -6.859   3.385 124.100  0.00  0.00    +0.000 N 
ATOM     21  C   UNL     1      -8.234   3.190 124.251  0.00  0.00    +0.000 C 
ATOM     22  O   UNL     1      -8.956   3.586 125.157  0.00  0.00    +0.000 OA
ATOM     23  O   UNL     1      -8.776   2.392 123.297  0.00  0.00    +0.000 OA
ATOM     24  C   UNL     1      -8.739   3.017 122.033  0.00  0.00    +0.000 C 
ATOM     25  C   UNL     1      -7.374   3.548 121.735  0.00  0.00    +0.000 A 
ATOM     26  C   UNL     1      -7.058   3.912 120.424  0.00  0.00    +0.000 A 
ATOM     27  C   UNL     1      -5.806   4.435 120.135  0.00  0.00    +0.000 A 
ATOM     28  C   UNL     1      -4.874   4.605 121.153  0.00  0.00    +0.000 A 
ATOM     29  C   UNL     1      -5.185   4.245 122.466  0.00  0.00    +0.000 A 
ATOM     30  C   UNL     1      -6.437   3.704 122.772  0.00  0.00    +0.000 A 
ENDBRANCH   6  20
TORSDOF 2
ENDMDL
MODEL 3
REMARK VINA RESULT:      -8.9      2.729      4.082
REMARK  Name = CHEMBL32740
REMARK  3 active torsions:
REMARK  status: ('A' for Active; 'I' for Inactive)
REMARK    1  A    between atoms: C_1  and  C_2
REMARK    2  A    between atoms: C_6  and  C_7
REMARK    3  A    between atoms: C_12  and  N_13
REMARK                            x       y       z     vdW  Elec       q    Type
REMARK                         _______ _______ _______ _____ _____    ______ ____
ROOT
ATOM      1  C   UNL     1      -9.028   3.596 131.748  0.00  0.00    +0.000 C 
ATOM      2  O   UNL     1      -9.274   3.294 132.915  0.00  0.00    +0.000 OA
ATOM      3  N   UNL     1      -8.425   2.692 130.886  0.00  0.00    +0.000 N 
ATOM      4  C   UNL     1      -8.998   1.358 130.773  0.00  0.00    +0.000 C 
ATOM      5  C   UNL     1      -7.983   0.285 131.104  0.00  0.00    +0.000 C 
ATOM      6  C   UNL     1      -6.705   0.453 130.260  0.00  0.00    +0.000 C 
ATOM      7  C   UNL     1      -6.133   1.867 130.441  0.00  0.00    +0.000 C 
ATOM      8  C   UNL     1      -7.168   2.958 130.189  0.00  0.00    +0.000 C 
ENDROOT
BRANCH   1  14
ATOM      9  C   UNL     1     -13.431   8.519 128.133  0.00  0.00    +0.000 C 
ATOM     10  C   UNL     1     -12.437   7.699 128.870  0.00  0.00    +0.000 A 
ATOM     11  C   UNL     1     -12.520   6.394 129.307  0.00  0.00    +0.000 A 
ATOM     12  C   UNL     1     -11.309   6.066 129.972  0.00  0.00    +0.000 A 
ATOM     13  C   UNL     1     -10.825   4.900 130.605  0.00  0.00    +0.000 A 
ATOM     14  C   UNL     1      -9.542   4.890 131.182  0.00  0.00    +0.000 A 
ATOM     15  C   UNL     1      -8.755   6.045 131.103  0.00  0.00    +0.000 A 
ATOM     16  C   UNL     1      -9.221   7.221 130.494  0.00  0.00    +0.000 A 
ATOM     17  C   UNL     1     -10.500   7.199 129.928  0.00  0.00    +0.000 A 
ATOM     18  N   UNL     1     -11.201   8.174 129.247  0.00  0.00    +0.000 N 
ATOM     19  H   UNL     1     -10.849   9.103 129.055  0.00  0.00    +0.000 HD
ENDBRANCH   1  14
BRANCH   6  20
ATOM     20  N   UNL     1      -6.872  -0.016 128.843  0.00  0.00    +0.000 N 
ATOM     21  C   UNL     1      -6.428   0.689 127.722  0.00  0.00    +0.000 C 
ATOM     22  O   UNL     1      -5.356   1.259 127.566  0.00  0.00    +0.000 OA
ATOM     23  O   UNL     1      -7.363   0.796 126.744  0.00  0.00    +0.000 OA
ATOM     24  C   UNL     1      -7.640  -0.462 126.169  0.00  0.00    +0.000 C 
ATOM     25  C   UNL     1      -7.917  -1.486 127.222  0.00  0.00    +0.000 A 
ATOM     26  C   UNL     1      -8.515  -2.694 126.854  0.00  0.00    +0.000 A 
ATOM     27  C   UNL     1      -8.753  -3.668 127.814  0.00  0.00    +0.000 A 
ATOM     28  C   UNL     1      -8.384  -3.442 129.136  0.00  0.00    +0.000 A 
ATOM     29  C   UNL     1      -7.785  -2.237 129.509  0.00  0.00    +0.000 A 
ATOM     30  C   UNL     1      -7.551  -1.240 128.557  0.00  0.00    +0.000 A 
ENDBRANCH   6  20
TORSDOF 2
ENDMDL
MODEL 4
REMARK VINA RESULT:      -8.9      1.399      1.904
REMARK  Name = CHEMBL32740
REMARK  3 active torsions:
REMARK  status: ('A' for Active; 'I' for Inactive)
REMARK    1  A    between atoms: C_1  and  C_2
REMARK    2  A    between atoms: C_6  and  C_7
REMARK    3  A    between atoms: C_12  and  N_13
REMARK                            x       y       z     vdW  Elec       q    Type
REMARK                         _______ _______ _______ _____ _____    ______ ____
ROOT
ATOM      1  C   UNL     1      -7.437   3.623 128.340  0.00  0.00    +0.000 C 
ATOM      2  O   UNL     1      -6.335   3.573 128.885  0.00  0.00    +0.000 OA
ATOM      3  N   UNL     1      -7.617   3.152 127.047  0.00  0.00    +0.000 N 
ATOM      4  C   UNL     1      -7.144   1.813 126.727  0.00  0.00    +0.000 C 
ATOM      5  C   UNL     1      -6.157   1.829 125.580  0.00  0.00    +0.000 C 
ATOM      6  C   UNL     1      -6.742   2.557 124.355  0.00  0.00    +0.000 C 
ATOM      7  C   UNL     1      -7.197   3.971 124.747  0.00  0.00    +0.000 C 
ATOM      8  C   UNL     1      -8.130   3.977 125.954  0.00  0.00    +0.000 C 
ENDROOT
BRANCH   1  14
ATOM      9  C   UNL     1     -12.742   7.927 131.506  0.00  0.00    +0.000 C 
ATOM     10  C   UNL     1     -11.779   6.927 130.979  0.00  0.00    +0.000 A 
ATOM     11  C   UNL     1     -10.780   7.075 130.040  0.00  0.00    +0.000 A 
ATOM     12  C   UNL     1     -10.137   5.820 129.868  0.00  0.00    +0.000 A 
ATOM     13  C   UNL     1      -9.065   5.371 129.066  0.00  0.00    +0.000 A 
ATOM     14  C   UNL     1      -8.650   4.028 129.129  0.00  0.00    +0.000 A 
ATOM     15  C   UNL     1      -9.305   3.157 130.008  0.00  0.00    +0.000 A 
ATOM     16  C   UNL     1     -10.384   3.576 130.802  0.00  0.00    +0.000 A 
ATOM     17  C   UNL     1     -10.772   4.917 130.719  0.00  0.00    +0.000 A 
ATOM     18  N   UNL     1     -11.759   5.613 131.388  0.00  0.00    +0.000 N 
ATOM     19  H   UNL     1     -12.375   5.208 132.082  0.00  0.00    +0.000 HD
ENDBRANCH   1  14
BRANCH   6  20
ATOM     20  N   UNL     1      -7.741   1.727 123.601  0.00  0.00    +0.000 N 
ATOM     21  C   UNL     1      -8.836   2.248 122.907  0.00  0.00    +0.000 C 
ATOM     22  O   UNL     1      -8.864   3.225 122.169  0.00  0.00    +0.000 OA
ATOM     23  O   UNL     1     -10.002   1.610 123.177  0.00  0.00    +0.000 OA
ATOM     24  C   UNL     1      -9.984   0.289 122.682  0.00  0.00    +0.000 C 
ATOM     25  C   UNL     1      -8.741  -0.426 123.104  0.00  0.00    +0.000 A 
ATOM     26  C   UNL     1      -8.685  -1.817 122.985  0.00  0.00    +0.000 A 
ATOM     27  C   UNL     1      -7.528  -2.494 123.344  0.00  0.00    +0.000 A 
ATOM     28  C   UNL     1      -6.426  -1.785 123.809  0.00  0.00    +0.000 A 
ATOM     29  C   UNL     1      -6.476  -0.395 123.928  0.00  0.00    +0.000 A 
ATOM     30  C   UNL     1      -7.637   0.302 123.584  0.00  0.00    +0.000 A 
ENDBRANCH   6  20
TORSDOF 2
ENDMDL
MODEL 5
REMARK VINA RESULT:      -8.7      3.281      4.055
REMARK  Name = CHEMBL32740
REMARK  3 active torsions:
REMARK  status: ('A' for Active; 'I' for Inactive)
REMARK    1  A    between atoms: C_1  and  C_2
REMARK    2  A    between atoms: C_6  and  C_7
REMARK    3  A    between atoms: C_12  and  N_13
REMARK                            x       y       z     vdW  Elec       q    Type
REMARK                         _______ _______ _______ _____ _____    ______ ____
ROOT
ATOM      1  C   UNL     1      -7.454  -0.589 131.558  0.00  0.00    +0.000 C 
ATOM      2  O   UNL     1      -7.305  -1.567 132.289  0.00  0.00    +0.000 OA
ATOM      3  N   UNL     1      -7.339  -0.700 130.180  0.00  0.00    +0.000 N 
ATOM      4  C   UNL     1      -8.099  -1.742 129.505  0.00  0.00    +0.000 C 
ATOM      5  C   UNL     1      -7.199  -2.666 128.714  0.00  0.00    +0.000 C 
ATOM      6  C   UNL     1      -6.299  -1.871 127.749  0.00  0.00    +0.000 C 
ATOM      7  C   UNL     1      -5.504  -0.808 128.521  0.00  0.00    +0.000 C 
ATOM      8  C   UNL     1      -6.391   0.080 129.386  0.00  0.00    +0.000 C 
ENDROOT
BRANCH   1  14
ATOM      9  C   UNL     1      -7.725   5.703 135.686  0.00  0.00    +0.000 C 
ATOM     10  C   UNL     1      -7.854   4.509 134.812  0.00  0.00    +0.000 A 
ATOM     11  C   UNL     1      -6.921   3.547 134.490  0.00  0.00    +0.000 A 
ATOM     12  C   UNL     1      -7.527   2.613 133.608  0.00  0.00    +0.000 A 
ATOM     13  C   UNL     1      -7.075   1.439 132.966  0.00  0.00    +0.000 A 
ATOM     14  C   UNL     1      -7.945   0.711 132.132  0.00  0.00    +0.000 A 
ATOM     15  C   UNL     1      -9.260   1.161 131.967  0.00  0.00    +0.000 A 
ATOM     16  C   UNL     1      -9.726   2.334 132.582  0.00  0.00    +0.000 A 
ATOM     17  C   UNL     1      -8.839   3.035 133.405  0.00  0.00    +0.000 A 
ATOM     18  N   UNL     1      -9.017   4.182 134.152  0.00  0.00    +0.000 N 
ATOM     19  H   UNL     1      -9.884   4.703 134.204  0.00  0.00    +0.000 HD
ENDBRANCH   1  14
BRANCH   6  20
ATOM     20  N   UNL     1      -7.030  -1.392 126.527  0.00  0.00    +0.000 N 
ATOM     21  C   UNL     1      -8.141  -0.545 126.554  0.00  0.00    +0.000 C 
ATOM     22  O   UNL     1      -8.306   0.461 127.232  0.00  0.00    +0.000 OA
ATOM     23  O   UNL     1      -9.169  -0.975 125.779  0.00  0.00    +0.000 OA
ATOM     24  C   UNL     1      -8.830  -0.917 124.411  0.00  0.00    +0.000 C 
ATOM     25  C   UNL     1      -7.508  -1.568 124.156  0.00  0.00    +0.000 A 
ATOM     26  C   UNL     1      -7.153  -1.891 122.844  0.00  0.00    +0.000 A 
ATOM     27  C   UNL     1      -5.918  -2.468 122.586  0.00  0.00    +0.000 A 
ATOM     28  C   UNL     1      -5.035  -2.714 123.632  0.00  0.00    +0.000 A 
ATOM     29  C   UNL     1      -5.385  -2.391 124.945  0.00  0.00    +0.000 A 
ATOM     30  C   UNL     1      -6.630  -1.822 125.225  0.00  0.00    +0.000 A 
ENDBRANCH   6  20
TORSDOF 2
ENDMDL
MODEL 6
REMARK VINA RESULT:      -8.5      1.763      2.577
REMARK  Name = CHEMBL32740
REMARK  3 active torsions:
REMARK  status: ('A' for Active; 'I' for Inactive)
REMARK    1  A    between atoms: C_1  and  C_2
REMARK    2  A    between atoms: C_6  and  C_7
REMARK    3  A    between atoms: C_12  and  N_13
REMARK                            x       y       z     vdW  Elec       q    Type
REMARK                         _______ _______ _______ _____ _____    ______ ____
ROOT
ATOM      1  C   UNL     1      -7.552   2.014 130.391  0.00  0.00    +0.000 C 
ATOM      2  O   UNL     1      -6.921   1.200 131.064  0.00  0.00    +0.000 OA
ATOM      3  N   UNL     1      -7.602   1.914 129.008  0.00  0.00    +0.000 N 
ATOM      4  C   UNL     1      -7.972   0.635 128.421  0.00  0.00    +0.000 C 
ATOM      5  C   UNL     1      -6.902   0.121 127.482  0.00  0.00    +0.000 C 
ATOM      6  C   UNL     1      -6.544   1.177 126.419  0.00  0.00    +0.000 C 
ATOM      7  C   UNL     1      -6.136   2.494 127.097  0.00  0.00    +0.000 C 
ATOM      8  C   UNL     1      -7.168   2.982 128.107  0.00  0.00    +0.000 C 
ENDROOT
BRANCH   1  14
ATOM      9  C   UNL     1     -12.800   7.317 131.404  0.00  0.00    +0.000 C 
ATOM     10  C   UNL     1     -11.719   6.300 131.395  0.00  0.00    +0.000 A 
ATOM     11  C   UNL     1     -11.343   5.422 130.400  0.00  0.00    +0.000 A 
ATOM     12  C   UNL     1     -10.256   4.642 130.878  0.00  0.00    +0.000 A 
ATOM     13  C   UNL     1      -9.469   3.613 130.317  0.00  0.00    +0.000 A 
ATOM     14  C   UNL     1      -8.431   3.028 131.067  0.00  0.00    +0.000 A 
ATOM     15  C   UNL     1      -8.187   3.495 132.364  0.00  0.00    +0.000 A 
ATOM     16  C   UNL     1      -8.967   4.505 132.949  0.00  0.00    +0.000 A 
ATOM     17  C   UNL     1      -9.990   5.067 132.178  0.00  0.00    +0.000 A 
ATOM     18  N   UNL     1     -10.884   6.079 132.466  0.00  0.00    +0.000 N 
ATOM     19  H   UNL     1     -10.914   6.584 133.343  0.00  0.00    +0.000 HD
ENDBRANCH   1  14
BRANCH   6  20
ATOM     20  N   UNL     1      -7.573   1.287 125.330  0.00  0.00    +0.000 N 
ATOM     21  C   UNL     1      -8.310   2.441 125.055  0.00  0.00    +0.000 C 
ATOM     22  O   UNL     1      -7.908   3.596 124.999  0.00  0.00    +0.000 OA
ATOM     23  O   UNL     1      -9.641   2.215 124.921  0.00  0.00    +0.000 OA
ATOM     24  C   UNL     1      -9.911   1.451 123.766  0.00  0.00    +0.000 C 
ATOM     25  C   UNL     1      -9.037   0.240 123.706  0.00  0.00    +0.000 A 
ATOM     26  C   UNL     1      -9.366  -0.791 122.821  0.00  0.00    +0.000 A 
ATOM     27  C   UNL     1      -8.550  -1.910 122.730  0.00  0.00    +0.000 A 
ATOM     28  C   UNL     1      -7.403  -1.996 123.512  0.00  0.00    +0.000 A 
ATOM     29  C   UNL     1      -7.069  -0.967 124.397  0.00  0.00    +0.000 A 
ATOM     30  C   UNL     1      -7.887   0.160 124.510  0.00  0.00    +0.000 A 
ENDBRANCH   6  20
TORSDOF 2
ENDMDL
MODEL 7
REMARK VINA RESULT:      -8.5      4.005      8.339
REMARK  Name = CHEMBL32740
REMARK  3 active torsions:
REMARK  status: ('A' for Active; 'I' for Inactive)
REMARK    1  A    between atoms: C_1  and  C_2
REMARK    2  A    between atoms: C_6  and  C_7
REMARK    3  A    between atoms: C_12  and  N_13
REMARK                            x       y       z     vdW  Elec       q    Type
REMARK                         _______ _______ _______ _____ _____    ______ ____
ROOT
ATOM      1  C   UNL     1      -6.206  -1.179 130.008  0.00  0.00    +0.000 C 
ATOM      2  O   UNL     1      -5.616  -1.781 130.904  0.00  0.00    +0.000 OA
ATOM      3  N   UNL     1      -6.012   0.180 129.810  0.00  0.00    +0.000 N 
ATOM      4  C   UNL     1      -4.648   0.675 129.705  0.00  0.00    +0.000 C 
ATOM      5  C   UNL     1      -4.358   1.738 130.742  0.00  0.00    +0.000 C 
ATOM      6  C   UNL     1      -5.403   2.869 130.684  0.00  0.00    +0.000 C 
ATOM      7  C   UNL     1      -6.818   2.290 130.827  0.00  0.00    +0.000 C 
ATOM      8  C   UNL     1      -7.096   1.161 129.841  0.00  0.00    +0.000 C 
ENDROOT
BRANCH   1  14
ATOM      9  C   UNL     1      -9.380  -3.122 123.462  0.00  0.00    +0.000 C 
ATOM     10  C   UNL     1      -8.856  -2.889 124.831  0.00  0.00    +0.000 A 
ATOM     11  C   UNL     1      -7.895  -2.003 125.269  0.00  0.00    +0.000 A 
ATOM     12  C   UNL     1      -7.738  -2.168 126.671  0.00  0.00    +0.000 A 
ATOM     13  C   UNL     1      -6.925  -1.547 127.645  0.00  0.00    +0.000 A 
ATOM     14  C   UNL     1      -7.010  -1.942 128.993  0.00  0.00    +0.000 A 
ATOM     15  C   UNL     1      -7.922  -2.943 129.349  0.00  0.00    +0.000 A 
ATOM     16  C   UNL     1      -8.728  -3.586 128.396  0.00  0.00    +0.000 A 
ATOM     17  C   UNL     1      -8.622  -3.171 127.065  0.00  0.00    +0.000 A 
ATOM     18  N   UNL     1      -9.295  -3.587 125.934  0.00  0.00    +0.000 N 
ATOM     19  H   UNL     1     -10.010  -4.304 125.925  0.00  0.00    +0.000 HD
ENDBRANCH   1  14
BRANCH   6  20
ATOM     20  N   UNL     1      -5.187   3.808 129.531  0.00  0.00    +0.000 N 
ATOM     21  C   UNL     1      -6.029   3.900 128.421  0.00  0.00    +0.000 C 
ATOM     22  O   UNL     1      -7.253   3.919 128.403  0.00  0.00    +0.000 OA
ATOM     23  O   UNL     1      -5.368   3.882 127.236  0.00  0.00    +0.000 OA
ATOM     24  C   UNL     1      -4.591   5.048 127.072  0.00  0.00    +0.000 C 
ATOM     25  C   UNL     1      -3.751   5.309 128.280  0.00  0.00    +0.000 A 
ATOM     26  C   UNL     1      -2.695   6.220 128.189  0.00  0.00    +0.000 A 
ATOM     27  C   UNL     1      -1.923   6.497 129.308  0.00  0.00    +0.000 A 
ATOM     28  C   UNL     1      -2.210   5.875 130.519  0.00  0.00    +0.000 A 
ATOM     29  C   UNL     1      -3.265   4.965 130.616  0.00  0.00    +0.000 A 
ATOM     30  C   UNL     1      -4.044   4.665 129.495  0.00  0.00    +0.000 A 
ENDBRANCH   6  20
TORSDOF 2
ENDMDL
MODEL 8
REMARK VINA RESULT:      -8.4      3.303      8.795
REMARK  Name = CHEMBL32740
REMARK  3 active torsions:
REMARK  status: ('A' for Active; 'I' for Inactive)
REMARK    1  A    between atoms: C_1  and  C_2
REMARK    2  A    between atoms: C_6  and  C_7
REMARK    3  A    between atoms: C_12  and  N_13
REMARK                            x       y       z     vdW  Elec       q    Type
REMARK                         _______ _______ _______ _____ _____    ______ ____
ROOT
ATOM      1  C   UNL     1      -6.645  -1.411 129.869  0.00  0.00    +0.000 C 
ATOM      2  O   UNL     1      -5.556  -1.801 130.289  0.00  0.00    +0.000 OA
ATOM      3  N   UNL     1      -7.183  -0.203 130.289  0.00  0.00    +0.000 N 
ATOM      4  C   UNL     1      -6.348   0.988 130.216  0.00  0.00    +0.000 C 
ATOM      5  C   UNL     1      -6.206   1.655 131.567  0.00  0.00    +0.000 C 
ATOM      6  C   UNL     1      -7.585   1.938 132.192  0.00  0.00    +0.000 C 
ATOM      7  C   UNL     1      -8.408   0.643 132.269  0.00  0.00    +0.000 C 
ATOM      8  C   UNL     1      -8.491  -0.083 130.931  0.00  0.00    +0.000 C 
ENDROOT
BRANCH   1  14
ATOM      9  C   UNL     1      -9.421  -3.000 123.053  0.00  0.00    +0.000 C 
ATOM     10  C   UNL     1      -8.959  -2.855 124.457  0.00  0.00    +0.000 A 
ATOM     11  C   UNL     1      -8.120  -1.914 125.016  0.00  0.00    +0.000 A 
ATOM     12  C   UNL     1      -7.975  -2.209 126.398  0.00  0.00    +0.000 A 
ATOM     13  C   UNL     1      -7.264  -1.605 127.458  0.00  0.00    +0.000 A 
ATOM     14  C   UNL     1      -7.330  -2.149 128.754  0.00  0.00    +0.000 A 
ATOM     15  C   UNL     1      -8.121  -3.283 128.973  0.00  0.00    +0.000 A 
ATOM     16  C   UNL     1      -8.824  -3.911 127.932  0.00  0.00    +0.000 A 
ATOM     17  C   UNL     1      -8.739  -3.345 126.655  0.00  0.00    +0.000 A 
ATOM     18  N   UNL     1      -9.333  -3.714 125.465  0.00  0.00    +0.000 N 
ATOM     19  H   UNL     1      -9.956  -4.504 125.357  0.00  0.00    +0.000 HD
ENDBRANCH   1  14
BRANCH   6  20
ATOM     20  N   UNL     1      -8.275   3.123 131.580  0.00  0.00    +0.000 N 
ATOM     21  C   UNL     1      -9.552   3.087 131.014  0.00  0.00    +0.000 C 
ATOM     22  O   UNL     1     -10.555   2.539 131.452  0.00  0.00    +0.000 OA
ATOM     23  O   UNL     1      -9.620   3.674 129.792  0.00  0.00    +0.000 OA
ATOM     24  C   UNL     1      -9.416   5.067 129.888  0.00  0.00    +0.000 C 
ATOM     25  C   UNL     1      -8.193   5.378 130.690  0.00  0.00    +0.000 A 
ATOM     26  C   UNL     1      -7.653   6.665 130.633  0.00  0.00    +0.000 A 
ATOM     27  C   UNL     1      -6.536   6.980 131.394  0.00  0.00    +0.000 A 
ATOM     28  C   UNL     1      -5.966   6.016 132.219  0.00  0.00    +0.000 A 
ATOM     29  C   UNL     1      -6.504   4.728 132.281  0.00  0.00    +0.000 A 
ATOM     30  C   UNL     1      -7.620   4.391 131.512  0.00  0.00    +0.000 A 
ENDBRANCH   6  20
TORSDOF 2
ENDMDL
MODEL 9
REMARK VINA RESULT:      -8.2      6.393      8.480
REMARK  Name = CHEMBL32740
REMARK  3 active torsions:
REMARK  status: ('A' for Active; 'I' for Inactive)
REMARK    1  A    between atoms: C_1  and  C_2
REMARK    2  A    between atoms: C_6  and  C_7
REMARK    3  A    between atoms: C_12  and  N_13
REMARK                            x       y       z     vdW  Elec       q    Type
REMARK                         _______ _______ _______ _____ _____    ______ ____
ROOT
ATOM      1  C   UNL     1      -6.317  -2.512 132.290  0.00  0.00    +0.000 C 
ATOM      2  O   UNL     1      -7.068  -1.838 132.995  0.00  0.00    +0.000 OA
ATOM      3  N   UNL     1      -6.459  -2.533 130.910  0.00  0.00    +0.000 N 
ATOM      4  C   UNL     1      -6.533  -1.263 130.203  0.00  0.00    +0.000 C 
ATOM      5  C   UNL     1      -7.806  -1.149 129.393  0.00  0.00    +0.000 C 
ATOM      6  C   UNL     1      -7.975  -2.358 128.454  0.00  0.00    +0.000 C 
ATOM      7  C   UNL     1      -7.916  -3.665 129.258  0.00  0.00    +0.000 C 
ATOM      8  C   UNL     1      -6.678  -3.758 130.142  0.00  0.00    +0.000 C 
ENDROOT
BRANCH   1  14
ATOM      9  C   UNL     1       0.479  -3.465 135.387  0.00  0.00    +0.000 C 
ATOM     10  C   UNL     1      -0.873  -3.475 134.774  0.00  0.00    +0.000 A 
ATOM     11  C   UNL     1      -1.719  -2.424 134.489  0.00  0.00    +0.000 A 
ATOM     12  C   UNL     1      -2.907  -2.949 133.913  0.00  0.00    +0.000 A 
ATOM     13  C   UNL     1      -4.098  -2.368 133.425  0.00  0.00    +0.000 A 
ATOM     14  C   UNL     1      -5.116  -3.182 132.897  0.00  0.00    +0.000 A 
ATOM     15  C   UNL     1      -4.920  -4.567 132.849  0.00  0.00    +0.000 A 
ATOM     16  C   UNL     1      -3.753  -5.169 133.344  0.00  0.00    +0.000 A 
ATOM     17  C   UNL     1      -2.758  -4.333 133.862  0.00  0.00    +0.000 A 
ATOM     18  N   UNL     1      -1.513  -4.628 134.382  0.00  0.00    +0.000 N 
ATOM     19  H   UNL     1      -1.131  -5.563 134.458  0.00  0.00    +0.000 HD
ENDBRANCH   1  14
BRANCH   6  20
ATOM     20  N   UNL     1      -7.091  -2.288 127.242  0.00  0.00    +0.000 N 
ATOM     21  C   UNL     1      -5.721  -2.017 127.280  0.00  0.00    +0.000 C 
ATOM     22  O   UNL     1      -4.884  -2.470 128.050  0.00  0.00    +0.000 OA
ATOM     23  O   UNL     1      -5.331  -1.071 126.388  0.00  0.00    +0.000 OA
ATOM     24  C   UNL     1      -5.468  -1.536 125.063  0.00  0.00    +0.000 C 
ATOM     25  C   UNL     1      -6.825  -2.121 124.837  0.00  0.00    +0.000 A 
ATOM     26  C   UNL     1      -7.259  -2.341 123.527  0.00  0.00    +0.000 A 
ATOM     27  C   UNL     1      -8.504  -2.911 123.299  0.00  0.00    +0.000 A 
ATOM     28  C   UNL     1      -9.309  -3.271 124.374  0.00  0.00    +0.000 A 
ATOM     29  C   UNL     1      -8.879  -3.054 125.685  0.00  0.00    +0.000 A 
ATOM     30  C   UNL     1      -7.635  -2.469 125.933  0.00  0.00    +0.000 A 
ENDBRANCH   6  20
TORSDOF 2
ENDMDL
