MODEL 1
REMARK VINA RESULT:     -12.6      0.000      0.000
REMARK  Name = CHEMBL287628
REMARK  7 active torsions:
REMARK  status: ('A' for Active; 'I' for Inactive)
REMARK    1  A    between atoms: C_2  and  C_3
REMARK    2  A    between atoms: C_3  and  N_4
REMARK    3  A    between atoms: C_6  and  C_7
REMARK    4  A    between atoms: N_15  and  C_16
REMARK    5  A    between atoms: C_16  and  C_17
REMARK    6  A    between atoms: C_21  and  C_22
REMARK    7  A    between atoms: C_27  and  N_28
REMARK                            x       y       z     vdW  Elec       q    Type
REMARK                         _______ _______ _______ _____ _____    ______ ____
ROOT
ATOM      1  C   UNL     1      -4.883   3.225 126.478  0.00  0.00    +0.000 A 
ATOM      2  C   UNL     1      -3.715   2.616 126.929  0.00  0.00    +0.000 A 
ATOM      3  C   UNL     1      -3.253   3.465 127.964  0.00  0.00    +0.000 A 
ATOM      4  C   UNL     1      -3.824   3.798 129.230  0.00  0.00    +0.000 A 
ATOM      5  C   UNL     1      -3.570   4.998 129.918  0.00  0.00    +0.000 A 
ATOM      6  C   UNL     1      -2.619   5.843 129.349  0.00  0.00    +0.000 A 
ATOM      7  C   UNL     1      -2.307   5.659 127.971  0.00  0.00    +0.000 A 
ATOM      8  C   UNL     1      -3.057   4.652 127.263  0.00  0.00    +0.000 A 
ATOM      9  O   UNL     1      -4.518   4.652 126.648  0.00  0.00    +0.000 OA
ENDROOT
BRANCH   5  10
ATOM     10  C   UNL     1      -4.442   5.450 131.074  0.00  0.00    +0.000 C 
ATOM     11  O   UNL     1      -3.874   5.901 132.070  0.00  0.00    +0.000 OA
ATOM     12  N   UNL     1      -5.864   5.493 130.914  0.00  0.00    +0.000 N 
ATOM     13  C   UNL     1      -6.605   6.752 131.034  0.00  0.00    +0.000 C 
ATOM     14  C   UNL     1      -7.925   6.590 131.836  0.00  0.00    +0.000 C 
ATOM     15  C   UNL     1      -9.117   5.467 131.138  0.00  0.00    +0.000 C 
ATOM     16  C   UNL     1      -8.014   4.170 131.189  0.00  0.00    +0.000 C 
ATOM     17  C   UNL     1      -6.685   4.390 130.406  0.00  0.00    +0.000 C 
BRANCH  15  18
ATOM     18  N   UNL     1     -10.639   5.819 130.178  0.00  0.00    +0.000 N 
ATOM     19  C   UNL     1     -11.120   6.159 131.509  0.00  0.00    +0.000 C 
ATOM     20  O   UNL     1     -11.159   5.423 132.527  0.00  0.00    +0.000 OA
ATOM     21  O   UNL     1     -11.398   7.452 131.684  0.00  0.00    +0.000 OA
ATOM     22  C   UNL     1     -12.769   7.394 131.530  0.00  0.00    +0.000 C 
ATOM     23  C   UNL     1     -12.707   7.633 130.102  0.00  0.00    +0.000 A 
ATOM     24  C   UNL     1     -13.089   8.916 129.609  0.00  0.00    +0.000 A 
ATOM     25  F   UNL     1     -12.708   9.945 130.372  0.00  0.00    +0.000 F 
ATOM     26  C   UNL     1     -13.546   9.203 128.347  0.00  0.00    +0.000 A 
ATOM     27  C   UNL     1     -13.580   8.087 127.553  0.00  0.00    +0.000 A 
ATOM     28  C   UNL     1     -12.881   6.770 128.065  0.00  0.00    +0.000 A 
ATOM     29  C   UNL     1     -12.031   6.685 129.363  0.00  0.00    +0.000 A 
ENDBRANCH  15  18
ENDBRANCH   5  10
BRANCH   1  30
ATOM     30  C   UNL     1      -5.870   2.539 125.470  0.00  0.00    +0.000 C 
BRANCH  30  33
ATOM     31  O   UNL     1      -9.427   2.330 124.737  0.00  0.00    +0.000 OA
ATOM     32  C   UNL     1      -8.232   2.059 124.588  0.00  0.00    +0.000 C 
ATOM     33  N   UNL     1      -7.330   2.552 125.546  0.00  0.00    +0.000 N 
ATOM     34  H   UNL     1      -7.802   3.016 126.314  0.00  0.00    +0.000 HD
BRANCH  32  35
ATOM     35  C   UNL     1      -7.736   1.219 123.350  0.00  0.00    +0.000 C 
BRANCH  35  36
ATOM     36  N   UNL     1      -7.823  -0.264 123.497  0.00  0.00    +0.000 N 
ATOM     37  C   UNL     1      -6.727  -0.994 123.957  0.00  0.00    +0.000 A 
ATOM     38  C   UNL     1      -6.702  -2.342 123.919  0.00  0.00    +0.000 A 
ATOM     39  C   UNL     1      -7.912  -3.055 123.553  0.00  0.00    +0.000 A 
ATOM     40  C   UNL     1      -9.040  -2.384 123.288  0.00  0.00    +0.000 A 
ATOM     41  C   UNL     1      -9.034  -0.895 123.192  0.00  0.00    +0.000 A 
ATOM     42  O   UNL     1     -10.065  -0.320 122.860  0.00  0.00    +0.000 OA
BRANCH  38  43
ATOM     43  C   UNL     1      -5.481  -3.164 124.224  0.00  0.00    +0.000 C 
ATOM     44  F   UNL     1      -4.399  -2.765 123.509  0.00  0.00    +0.000 F 
ATOM     45  F   UNL     1      -5.139  -3.075 125.536  0.00  0.00    +0.000 F 
ATOM     46  F   UNL     1      -5.664  -4.484 123.958  0.00  0.00    +0.000 F 
ENDBRANCH  38  43
ENDBRANCH  35  36
ENDBRANCH  32  35
ENDBRANCH  30  33
ENDBRANCH   1  30
TORSDOF 7
ENDMDL
MODEL 2
REMARK VINA RESULT:     -12.4      3.600      5.142
REMARK  Name = CHEMBL287628
REMARK  7 active torsions:
REMARK  status: ('A' for Active; 'I' for Inactive)
REMARK    1  A    between atoms: C_2  and  C_3
REMARK    2  A    between atoms: C_3  and  N_4
REMARK    3  A    between atoms: C_6  and  C_7
REMARK    4  A    between atoms: N_15  and  C_16
REMARK    5  A    between atoms: C_16  and  C_17
REMARK    6  A    between atoms: C_21  and  C_22
REMARK    7  A    between atoms: C_27  and  N_28
REMARK                            x       y       z     vdW  Elec       q    Type
REMARK                         _______ _______ _______ _____ _____    ______ ____
ROOT
ATOM      1  C   UNL     1      -7.418  -2.728 127.371  0.00  0.00    +0.000 A 
ATOM      2  C   UNL     1      -8.538  -3.019 128.145  0.00  0.00    +0.000 A 
ATOM      3  C   UNL     1      -8.197  -2.562 129.441  0.00  0.00    +0.000 A 
ATOM      4  C   UNL     1      -7.932  -1.248 129.934  0.00  0.00    +0.000 A 
ATOM      5  C   UNL     1      -7.120  -0.975 131.051  0.00  0.00    +0.000 A 
ATOM      6  C   UNL     1      -6.651  -2.083 131.754  0.00  0.00    +0.000 A 
ATOM      7  C   UNL     1      -6.654  -3.343 131.090  0.00  0.00    +0.000 A 
ATOM      8  C   UNL     1      -7.083  -3.351 129.713  0.00  0.00    +0.000 A 
ATOM      9  O   UNL     1      -6.344  -2.953 128.368  0.00  0.00    +0.000 OA
ENDROOT
BRANCH   5  10
ATOM     10  C   UNL     1      -6.600   0.422 131.331  0.00  0.00    +0.000 C 
ATOM     11  O   UNL     1      -5.383   0.555 131.469  0.00  0.00    +0.000 OA
ATOM     12  N   UNL     1      -7.495   1.537 131.263  0.00  0.00    +0.000 N 
ATOM     13  C   UNL     1      -7.286   2.622 130.299  0.00  0.00    +0.000 C 
ATOM     14  C   UNL     1      -7.531   4.023 130.920  0.00  0.00    +0.000 C 
ATOM     15  C   UNL     1      -9.177   4.318 131.531  0.00  0.00    +0.000 C 
ATOM     16  C   UNL     1      -9.078   2.999 132.606  0.00  0.00    +0.000 C 
ATOM     17  C   UNL     1      -8.789   1.618 131.946  0.00  0.00    +0.000 C 
BRANCH  15  18
ATOM     18  N   UNL     1     -10.560   5.254 130.775  0.00  0.00    +0.000 N 
ATOM     19  C   UNL     1      -9.559   6.308 130.811  0.00  0.00    +0.000 C 
ATOM     20  O   UNL     1      -8.950   6.761 131.814  0.00  0.00    +0.000 OA
ATOM     21  O   UNL     1      -9.140   6.716 129.613  0.00  0.00    +0.000 OA
ATOM     22  C   UNL     1      -9.906   7.860 129.502  0.00  0.00    +0.000 C 
ATOM     23  C   UNL     1     -11.000   7.169 128.849  0.00  0.00    +0.000 A 
ATOM     24  C   UNL     1     -11.190   7.365 127.448  0.00  0.00    +0.000 A 
ATOM     25  F   UNL     1     -10.063   7.440 126.736  0.00  0.00    +0.000 F 
ATOM     26  C   UNL     1     -12.365   7.214 126.755  0.00  0.00    +0.000 A 
ATOM     27  C   UNL     1     -13.389   6.811 127.572  0.00  0.00    +0.000 A 
ATOM     28  C   UNL     1     -13.050   6.341 129.037  0.00  0.00    +0.000 A 
ATOM     29  C   UNL     1     -11.605   6.173 129.584  0.00  0.00    +0.000 A 
ENDBRANCH  15  18
ENDBRANCH   5  10
BRANCH   1  30
ATOM     30  C   UNL     1      -7.401  -2.861 125.808  0.00  0.00    +0.000 C 
BRANCH  30  33
ATOM     31  O   UNL     1      -9.999  -3.269 123.294  0.00  0.00    +0.000 OA
ATOM     32  C   UNL     1      -8.947  -2.820 123.760  0.00  0.00    +0.000 C 
ATOM     33  N   UNL     1      -8.489  -3.364 124.971  0.00  0.00    +0.000 N 
ATOM     34  H   UNL     1      -9.057  -4.144 125.280  0.00  0.00    +0.000 HD
BRANCH  32  35
ATOM     35  C   UNL     1      -8.167  -1.657 123.036  0.00  0.00    +0.000 C 
BRANCH  35  36
ATOM     36  N   UNL     1      -8.449  -0.279 123.537  0.00  0.00    +0.000 N 
ATOM     37  C   UNL     1      -7.547   0.362 124.386  0.00  0.00    +0.000 A 
ATOM     38  C   UNL     1      -7.854   1.518 125.009  0.00  0.00    +0.000 A 
ATOM     39  C   UNL     1      -9.083   2.201 124.653  0.00  0.00    +0.000 A 
ATOM     40  C   UNL     1      -9.882   1.705 123.699  0.00  0.00    +0.000 A 
ATOM     41  C   UNL     1      -9.618   0.360 123.110  0.00  0.00    +0.000 A 
ATOM     42  O   UNL     1     -10.420  -0.100 122.304  0.00  0.00    +0.000 OA
BRANCH  38  43
ATOM     43  C   UNL     1      -6.998   2.147 126.072  0.00  0.00    +0.000 C 
ATOM     44  F   UNL     1      -6.946   1.397 127.203  0.00  0.00    +0.000 F 
ATOM     45  F   UNL     1      -5.717   2.305 125.649  0.00  0.00    +0.000 F 
ATOM     46  F   UNL     1      -7.442   3.378 126.436  0.00  0.00    +0.000 F 
ENDBRANCH  38  43
ENDBRANCH  35  36
ENDBRANCH  32  35
ENDBRANCH  30  33
ENDBRANCH   1  30
TORSDOF 7
ENDMDL
MODEL 3
REMARK VINA RESULT:     -12.0      3.435      5.147
REMARK  Name = CHEMBL287628
REMARK  7 active torsions:
REMARK  status: ('A' for Active; 'I' for Inactive)
REMARK    1  A    between atoms: C_2  and  C_3
REMARK    2  A    between atoms: C_3  and  N_4
REMARK    3  A    between atoms: C_6  and  C_7
REMARK    4  A    between atoms: N_15  and  C_16
REMARK    5  A    between atoms: C_16  and  C_17
REMARK    6  A    between atoms: C_21  and  C_22
REMARK    7  A    between atoms: C_27  and  N_28
REMARK                            x       y       z     vdW  Elec       q    Type
REMARK                         _______ _______ _______ _____ _____    ______ ____
ROOT
ATOM      1  C   UNL     1      -7.067  -1.251 125.792  0.00  0.00    +0.000 A 
ATOM      2  C   UNL     1      -8.188  -1.836 126.375  0.00  0.00    +0.000 A 
ATOM      3  C   UNL     1      -7.940  -1.759 127.767  0.00  0.00    +0.000 A 
ATOM      4  C   UNL     1      -7.808  -0.634 128.636  0.00  0.00    +0.000 A 
ATOM      5  C   UNL     1      -7.069  -0.646 129.833  0.00  0.00    +0.000 A 
ATOM      6  C   UNL     1      -6.534  -1.875 130.213  0.00  0.00    +0.000 A 
ATOM      7  C   UNL     1      -6.403  -2.880 129.212  0.00  0.00    +0.000 A 
ATOM      8  C   UNL     1      -6.774  -2.512 127.868  0.00  0.00    +0.000 A 
ATOM      9  O   UNL     1      -6.018  -1.684 126.746  0.00  0.00    +0.000 OA
ENDROOT
BRANCH   5  10
ATOM     10  C   UNL     1      -6.682   0.640 130.540  0.00  0.00    +0.000 C 
ATOM     11  O   UNL     1      -5.507   0.764 130.886  0.00  0.00    +0.000 OA
ATOM     12  N   UNL     1      -7.630   1.709 130.632  0.00  0.00    +0.000 N 
ATOM     13  C   UNL     1      -7.363   3.016 130.025  0.00  0.00    +0.000 C 
ATOM     14  C   UNL     1      -7.780   4.194 130.945  0.00  0.00    +0.000 C 
ATOM     15  C   UNL     1      -9.509   4.272 131.361  0.00  0.00    +0.000 C 
ATOM     16  C   UNL     1      -9.471   2.718 132.060  0.00  0.00    +0.000 C 
ATOM     17  C   UNL     1      -9.007   1.571 131.114  0.00  0.00    +0.000 C 
BRANCH  15  18
ATOM     18  N   UNL     1     -10.834   5.339 130.678  0.00  0.00    +0.000 N 
ATOM     19  C   UNL     1      -9.738   6.295 130.666  0.00  0.00    +0.000 C 
ATOM     20  O   UNL     1      -9.039   6.681 131.637  0.00  0.00    +0.000 OA
ATOM     21  O   UNL     1      -9.343   6.669 129.448  0.00  0.00    +0.000 OA
ATOM     22  C   UNL     1     -10.003   7.881 129.378  0.00  0.00    +0.000 C 
ATOM     23  C   UNL     1     -11.189   7.300 128.780  0.00  0.00    +0.000 A 
ATOM     24  C   UNL     1     -11.430   7.522 127.392  0.00  0.00    +0.000 A 
ATOM     25  F   UNL     1     -10.339   7.495 126.623  0.00  0.00    +0.000 F 
ATOM     26  C   UNL     1     -12.648   7.487 126.760  0.00  0.00    +0.000 A 
ATOM     27  C   UNL     1     -13.662   7.176 127.627  0.00  0.00    +0.000 A 
ATOM     28  C   UNL     1     -13.295   6.667 129.072  0.00  0.00    +0.000 A 
ATOM     29  C   UNL     1     -11.847   6.360 129.544  0.00  0.00    +0.000 A 
ENDBRANCH  15  18
ENDBRANCH   5  10
BRANCH   1  30
ATOM     30  C   UNL     1      -6.976  -0.915 124.262  0.00  0.00    +0.000 C 
BRANCH  30  33
ATOM     31  O   UNL     1     -10.118  -0.212 122.571  0.00  0.00    +0.000 OA
ATOM     32  C   UNL     1      -9.175   0.024 123.332  0.00  0.00    +0.000 C 
ATOM     33  N   UNL     1      -8.092  -0.870 123.319  0.00  0.00    +0.000 N 
ATOM     34  H   UNL     1      -8.187  -1.577 122.599  0.00  0.00    +0.000 HD
BRANCH  32  35
ATOM     35  C   UNL     1      -9.204   1.264 124.304  0.00  0.00    +0.000 C 
BRANCH  35  36
ATOM     36  N   UNL     1      -8.083   2.237 124.146  0.00  0.00    +0.000 N 
ATOM     37  C   UNL     1      -7.706   2.682 122.879  0.00  0.00    +0.000 A 
ATOM     38  C   UNL     1      -6.584   3.403 122.681  0.00  0.00    +0.000 A 
ATOM     39  C   UNL     1      -5.843   3.876 123.835  0.00  0.00    +0.000 A 
ATOM     40  C   UNL     1      -6.286   3.626 125.074  0.00  0.00    +0.000 A 
ATOM     41  C   UNL     1      -7.444   2.713 125.297  0.00  0.00    +0.000 A 
ATOM     42  O   UNL     1      -7.765   2.436 126.448  0.00  0.00    +0.000 OA
BRANCH  38  43
ATOM     43  C   UNL     1      -6.038   3.742 121.323  0.00  0.00    +0.000 C 
ATOM     44  F   UNL     1      -5.404   2.691 120.745  0.00  0.00    +0.000 F 
ATOM     45  F   UNL     1      -7.026   4.120 120.471  0.00  0.00    +0.000 F 
ATOM     46  F   UNL     1      -5.146   4.766 121.362  0.00  0.00    +0.000 F 
ENDBRANCH  38  43
ENDBRANCH  35  36
ENDBRANCH  32  35
ENDBRANCH  30  33
ENDBRANCH   1  30
TORSDOF 7
ENDMDL
MODEL 4
REMARK VINA RESULT:     -11.7      4.511      5.627
REMARK  Name = CHEMBL287628
REMARK  7 active torsions:
REMARK  status: ('A' for Active; 'I' for Inactive)
REMARK    1  A    between atoms: C_2  and  C_3
REMARK    2  A    between atoms: C_3  and  N_4
REMARK    3  A    between atoms: C_6  and  C_7
REMARK    4  A    between atoms: N_15  and  C_16
REMARK    5  A    between atoms: C_16  and  C_17
REMARK    6  A    between atoms: C_21  and  C_22
REMARK    7  A    between atoms: C_27  and  N_28
REMARK                            x       y       z     vdW  Elec       q    Type
REMARK                         _______ _______ _______ _____ _____    ______ ____
ROOT
ATOM      1  C   UNL     1      -6.198   3.654 125.983  0.00  0.00    +0.000 A 
ATOM      2  C   UNL     1      -5.920   2.537 126.766  0.00  0.00    +0.000 A 
ATOM      3  C   UNL     1      -4.650   2.809 127.327  0.00  0.00    +0.000 A 
ATOM      4  C   UNL     1      -4.224   3.822 128.240  0.00  0.00    +0.000 A 
ATOM      5  C   UNL     1      -2.907   4.312 128.314  0.00  0.00    +0.000 A 
ATOM      6  C   UNL     1      -1.968   3.674 127.506  0.00  0.00    +0.000 A 
ATOM      7  C   UNL     1      -2.449   2.910 126.404  0.00  0.00    +0.000 A 
ATOM      8  C   UNL     1      -3.873   2.919 126.178  0.00  0.00    +0.000 A 
ATOM      9  O   UNL     1      -4.835   3.985 125.505  0.00  0.00    +0.000 OA
ENDROOT
BRANCH   5  10
ATOM     10  C   UNL     1      -2.580   5.599 129.047  0.00  0.00    +0.000 C 
ATOM     11  O   UNL     1      -2.123   6.530 128.381  0.00  0.00    +0.000 OA
ATOM     12  N   UNL     1      -2.955   5.746 130.421  0.00  0.00    +0.000 N 
ATOM     13  C   UNL     1      -3.888   6.794 130.846  0.00  0.00    +0.000 C 
ATOM     14  C   UNL     1      -3.443   7.488 132.160  0.00  0.00    +0.000 C 
ATOM     15  C   UNL     1      -3.322   6.432 133.588  0.00  0.00    +0.000 C 
ATOM     16  C   UNL     1      -2.184   5.423 132.818  0.00  0.00    +0.000 C 
ATOM     17  C   UNL     1      -2.656   4.779 131.481  0.00  0.00    +0.000 C 
BRANCH  15  18
ATOM     18  N   UNL     1      -4.480   6.219 134.992  0.00  0.00    +0.000 N 
ATOM     19  C   UNL     1      -3.459   7.017 135.653  0.00  0.00    +0.000 C 
ATOM     20  O   UNL     1      -2.237   6.753 135.783  0.00  0.00    +0.000 OA
ATOM     21  O   UNL     1      -3.858   8.238 136.014  0.00  0.00    +0.000 OA
ATOM     22  C   UNL     1      -4.103   7.990 137.351  0.00  0.00    +0.000 C 
ATOM     23  C   UNL     1      -5.491   7.640 137.121  0.00  0.00    +0.000 A 
ATOM     24  C   UNL     1      -6.500   8.573 137.501  0.00  0.00    +0.000 A 
ATOM     25  F   UNL     1      -6.195   9.853 137.271  0.00  0.00    +0.000 F 
ATOM     26  C   UNL     1      -7.806   8.282 137.810  0.00  0.00    +0.000 A 
ATOM     27  C   UNL     1      -8.071   6.944 137.688  0.00  0.00    +0.000 A 
ATOM     28  C   UNL     1      -7.000   6.019 136.995  0.00  0.00    +0.000 A 
ATOM     29  C   UNL     1      -5.707   6.545 136.312  0.00  0.00    +0.000 A 
ENDBRANCH  15  18
ENDBRANCH   5  10
BRANCH   1  30
ATOM     30  C   UNL     1      -7.599   3.908 125.323  0.00  0.00    +0.000 C 
BRANCH  30  33
ATOM     31  O   UNL     1      -8.601   2.939 121.964  0.00  0.00    +0.000 OA
ATOM     32  C   UNL     1      -8.613   2.890 123.198  0.00  0.00    +0.000 C 
ATOM     33  N   UNL     1      -7.899   3.880 123.893  0.00  0.00    +0.000 N 
ATOM     34  H   UNL     1      -7.518   4.585 123.272  0.00  0.00    +0.000 HD
BRANCH  32  35
ATOM     35  C   UNL     1      -9.375   1.740 123.960  0.00  0.00    +0.000 C 
BRANCH  35  36
ATOM     36  N   UNL     1      -8.791   0.373 123.820  0.00  0.00    +0.000 N 
ATOM     37  C   UNL     1      -7.675   0.001 124.569  0.00  0.00    +0.000 A 
ATOM     38  C   UNL     1      -7.007  -1.146 124.331  0.00  0.00    +0.000 A 
ATOM     39  C   UNL     1      -7.565  -2.099 123.390  0.00  0.00    +0.000 A 
ATOM     40  C   UNL     1      -8.739  -1.854 122.794  0.00  0.00    +0.000 A 
ATOM     41  C   UNL     1      -9.408  -0.529 122.946  0.00  0.00    +0.000 A 
ATOM     42  O   UNL     1     -10.435  -0.310 122.314  0.00  0.00    +0.000 OA
BRANCH  38  43
ATOM     43  C   UNL     1      -5.698  -1.499 124.978  0.00  0.00    +0.000 C 
ATOM     44  F   UNL     1      -4.876  -2.183 124.141  0.00  0.00    +0.000 F 
ATOM     45  F   UNL     1      -5.021  -0.388 125.369  0.00  0.00    +0.000 F 
ATOM     46  F   UNL     1      -5.857  -2.268 126.087  0.00  0.00    +0.000 F 
ENDBRANCH  38  43
ENDBRANCH  35  36
ENDBRANCH  32  35
ENDBRANCH  30  33
ENDBRANCH   1  30
TORSDOF 7
ENDMDL
MODEL 5
REMARK VINA RESULT:     -11.7      2.004      9.406
REMARK  Name = CHEMBL287628
REMARK  7 active torsions:
REMARK  status: ('A' for Active; 'I' for Inactive)
REMARK    1  A    between atoms: C_2  and  C_3
REMARK    2  A    between atoms: C_3  and  N_4
REMARK    3  A    between atoms: C_6  and  C_7
REMARK    4  A    between atoms: N_15  and  C_16
REMARK    5  A    between atoms: C_16  and  C_17
REMARK    6  A    between atoms: C_21  and  C_22
REMARK    7  A    between atoms: C_27  and  N_28
REMARK                            x       y       z     vdW  Elec       q    Type
REMARK                         _______ _______ _______ _____ _____    ______ ____
ROOT
ATOM      1  C   UNL     1      -6.746   4.233 132.384  0.00  0.00    +0.000 A 
ATOM      2  C   UNL     1      -6.179   5.455 132.736  0.00  0.00    +0.000 A 
ATOM      3  C   UNL     1      -5.054   5.577 131.885  0.00  0.00    +0.000 A 
ATOM      4  C   UNL     1      -4.959   5.697 130.465  0.00  0.00    +0.000 A 
ATOM      5  C   UNL     1      -3.840   5.293 129.714  0.00  0.00    +0.000 A 
ATOM      6  C   UNL     1      -2.738   4.851 130.443  0.00  0.00    +0.000 A 
ATOM      7  C   UNL     1      -2.953   4.444 131.792  0.00  0.00    +0.000 A 
ATOM      8  C   UNL     1      -4.314   4.462 132.267  0.00  0.00    +0.000 A 
ATOM      9  O   UNL     1      -5.524   3.459 132.062  0.00  0.00    +0.000 OA
ENDROOT
BRANCH   5  10
ATOM     10  C   UNL     1      -3.913   5.128 128.208  0.00  0.00    +0.000 C 
ATOM     11  O   UNL     1      -3.030   5.664 127.536  0.00  0.00    +0.000 OA
ATOM     12  N   UNL     1      -4.884   4.243 127.639  0.00  0.00    +0.000 N 
ATOM     13  C   UNL     1      -4.478   3.078 126.847  0.00  0.00    +0.000 C 
ATOM     14  C   UNL     1      -5.355   2.887 125.581  0.00  0.00    +0.000 C 
ATOM     15  C   UNL     1      -7.088   2.608 125.877  0.00  0.00    +0.000 C 
ATOM     16  C   UNL     1      -7.242   4.086 126.712  0.00  0.00    +0.000 C 
ATOM     17  C   UNL     1      -6.315   4.254 127.952  0.00  0.00    +0.000 C 
BRANCH  15  18
ATOM     18  N   UNL     1      -8.049   1.048 125.844  0.00  0.00    +0.000 N 
ATOM     19  C   UNL     1      -8.489   1.617 124.580  0.00  0.00    +0.000 C 
ATOM     20  O   UNL     1      -9.054   2.724 124.387  0.00  0.00    +0.000 OA
ATOM     21  O   UNL     1      -8.093   0.942 123.500  0.00  0.00    +0.000 OA
ATOM     22  C   UNL     1      -9.260   0.247 123.249  0.00  0.00    +0.000 C 
ATOM     23  C   UNL     1      -8.863  -0.885 124.063  0.00  0.00    +0.000 A 
ATOM     24  C   UNL     1      -8.457  -2.086 123.408  0.00  0.00    +0.000 A 
ATOM     25  F   UNL     1      -7.730  -1.902 122.303  0.00  0.00    +0.000 F 
ATOM     26  C   UNL     1      -8.503  -3.355 123.929  0.00  0.00    +0.000 A 
ATOM     27  C   UNL     1      -8.977  -3.360 125.215  0.00  0.00    +0.000 A 
ATOM     28  C   UNL     1      -9.135  -1.986 125.970  0.00  0.00    +0.000 A 
ATOM     29  C   UNL     1      -8.660  -0.621 125.400  0.00  0.00    +0.000 A 
ENDBRANCH  15  18
ENDBRANCH   5  10
BRANCH   1  30
ATOM     30  C   UNL     1      -8.145   3.756 132.912  0.00  0.00    +0.000 C 
BRANCH  30  33
ATOM     31  O   UNL     1     -10.926   3.016 130.688  0.00  0.00    +0.000 OA
ATOM     32  C   UNL     1      -9.965   3.669 131.106  0.00  0.00    +0.000 C 
ATOM     33  N   UNL     1      -9.187   3.098 132.126  0.00  0.00    +0.000 N 
ATOM     34  H   UNL     1      -9.473   2.150 132.341  0.00  0.00    +0.000 HD
BRANCH  32  35
ATOM     35  C   UNL     1      -9.647   5.104 130.537  0.00  0.00    +0.000 C 
BRANCH  35  36
ATOM     36  N   UNL     1     -10.807   6.040 130.453  0.00  0.00    +0.000 N 
ATOM     37  C   UNL     1     -11.426   6.290 129.229  0.00  0.00    +0.000 A 
ATOM     38  C   UNL     1     -12.343   7.268 129.081  0.00  0.00    +0.000 A 
ATOM     39  C   UNL     1     -12.824   7.961 130.261  0.00  0.00    +0.000 A 
ATOM     40  C   UNL     1     -12.387   7.612 131.477  0.00  0.00    +0.000 A 
ATOM     41  C   UNL     1     -11.273   6.631 131.632  0.00  0.00    +0.000 A 
ATOM     42  O   UNL     1     -10.839   6.403 132.756  0.00  0.00    +0.000 OA
BRANCH  38  43
ATOM     43  C   UNL     1     -12.896   7.700 127.752  0.00  0.00    +0.000 C 
ATOM     44  F   UNL     1     -11.947   8.249 126.952  0.00  0.00    +0.000 F 
ATOM     45  F   UNL     1     -13.425   6.651 127.070  0.00  0.00    +0.000 F 
ATOM     46  F   UNL     1     -13.887   8.621 127.876  0.00  0.00    +0.000 F 
ENDBRANCH  38  43
ENDBRANCH  35  36
ENDBRANCH  32  35
ENDBRANCH  30  33
ENDBRANCH   1  30
TORSDOF 7
ENDMDL
MODEL 6
REMARK VINA RESULT:     -11.7      2.203      9.742
REMARK  Name = CHEMBL287628
REMARK  7 active torsions:
REMARK  status: ('A' for Active; 'I' for Inactive)
REMARK    1  A    between atoms: C_2  and  C_3
REMARK    2  A    between atoms: C_3  and  N_4
REMARK    3  A    between atoms: C_6  and  C_7
REMARK    4  A    between atoms: N_15  and  C_16
REMARK    5  A    between atoms: C_16  and  C_17
REMARK    6  A    between atoms: C_21  and  C_22
REMARK    7  A    between atoms: C_27  and  N_28
REMARK                            x       y       z     vdW  Elec       q    Type
REMARK                         _______ _______ _______ _____ _____    ______ ____
ROOT
ATOM      1  C   UNL     1      -5.212   4.761 132.827  0.00  0.00    +0.000 A 
ATOM      2  C   UNL     1      -4.896   6.068 133.190  0.00  0.00    +0.000 A 
ATOM      3  C   UNL     1      -3.858   6.437 132.301  0.00  0.00    +0.000 A 
ATOM      4  C   UNL     1      -3.852   6.602 130.882  0.00  0.00    +0.000 A 
ATOM      5  C   UNL     1      -2.707   6.453 130.077  0.00  0.00    +0.000 A 
ATOM      6  C   UNL     1      -1.507   6.236 130.751  0.00  0.00    +0.000 A 
ATOM      7  C   UNL     1      -1.574   5.769 132.095  0.00  0.00    +0.000 A 
ATOM      8  C   UNL     1      -2.887   5.494 132.623  0.00  0.00    +0.000 A 
ATOM      9  O   UNL     1      -3.872   4.265 132.437  0.00  0.00    +0.000 OA
ENDROOT
BRANCH   5  10
ATOM     10  C   UNL     1      -2.810   6.306 128.571  0.00  0.00    +0.000 C 
ATOM     11  O   UNL     1      -2.178   7.105 127.879  0.00  0.00    +0.000 OA
ATOM     12  N   UNL     1      -3.486   5.172 128.016  0.00  0.00    +0.000 N 
ATOM     13  C   UNL     1      -2.782   4.210 127.163  0.00  0.00    +0.000 C 
ATOM     14  C   UNL     1      -3.624   3.780 125.932  0.00  0.00    +0.000 C 
ATOM     15  C   UNL     1      -5.164   2.965 126.299  0.00  0.00    +0.000 C 
ATOM     16  C   UNL     1      -5.725   4.301 127.196  0.00  0.00    +0.000 C 
ATOM     17  C   UNL     1      -4.829   4.726 128.396  0.00  0.00    +0.000 C 
BRANCH  15  18
ATOM     18  N   UNL     1      -5.589   1.182 126.253  0.00  0.00    +0.000 N 
ATOM     19  C   UNL     1      -6.681   1.702 125.445  0.00  0.00    +0.000 C 
ATOM     20  O   UNL     1      -7.542   2.559 125.770  0.00  0.00    +0.000 OA
ATOM     21  O   UNL     1      -6.649   1.330 124.165  0.00  0.00    +0.000 OA
ATOM     22  C   UNL     1      -7.576   0.307 124.221  0.00  0.00    +0.000 C 
ATOM     23  C   UNL     1      -6.575  -0.702 124.506  0.00  0.00    +0.000 A 
ATOM     24  C   UNL     1      -6.205  -1.607 123.468  0.00  0.00    +0.000 A 
ATOM     25  F   UNL     1      -6.127  -1.062 122.251  0.00  0.00    +0.000 F 
ATOM     26  C   UNL     1      -5.677  -2.864 123.631  0.00  0.00    +0.000 A 
ATOM     27  C   UNL     1      -5.505  -3.176 124.954  0.00  0.00    +0.000 A 
ATOM     28  C   UNL     1      -5.663  -2.034 126.029  0.00  0.00    +0.000 A 
ATOM     29  C   UNL     1      -5.871  -0.534 125.680  0.00  0.00    +0.000 A 
ENDBRANCH  15  18
ENDBRANCH   5  10
BRANCH   1  30
ATOM     30  C   UNL     1      -6.458   3.994 133.395  0.00  0.00    +0.000 C 
BRANCH  30  33
ATOM     31  O   UNL     1      -9.662   3.255 131.840  0.00  0.00    +0.000 OA
ATOM     32  C   UNL     1      -8.805   3.977 132.360  0.00  0.00    +0.000 C 
ATOM     33  N   UNL     1      -7.545   3.411 132.612  0.00  0.00    +0.000 N 
ATOM     34  H   UNL     1      -7.467   2.469 132.245  0.00  0.00    +0.000 HD
BRANCH  32  35
ATOM     35  C   UNL     1      -9.129   5.468 132.756  0.00  0.00    +0.000 C 
BRANCH  35  36
ATOM     36  N   UNL     1      -9.607   6.344 131.646  0.00  0.00    +0.000 N 
ATOM     37  C   UNL     1     -10.969   6.590 131.477  0.00  0.00    +0.000 A 
ATOM     38  C   UNL     1     -11.450   7.211 130.380  0.00  0.00    +0.000 A 
ATOM     39  C   UNL     1     -10.514   7.792 129.438  0.00  0.00    +0.000 A 
ATOM     40  C   UNL     1      -9.196   7.739 129.671  0.00  0.00    +0.000 A 
ATOM     41  C   UNL     1      -8.657   6.933 130.805  0.00  0.00    +0.000 A 
ATOM     42  O   UNL     1      -7.441   6.834 130.934  0.00  0.00    +0.000 OA
BRANCH  38  43
ATOM     43  C   UNL     1     -12.914   7.330 130.063  0.00  0.00    +0.000 C 
ATOM     44  F   UNL     1     -13.318   6.421 129.140  0.00  0.00    +0.000 F 
ATOM     45  F   UNL     1     -13.680   7.132 131.168  0.00  0.00    +0.000 F 
ATOM     46  F   UNL     1     -13.242   8.556 129.578  0.00  0.00    +0.000 F 
ENDBRANCH  38  43
ENDBRANCH  35  36
ENDBRANCH  32  35
ENDBRANCH  30  33
ENDBRANCH   1  30
TORSDOF 7
ENDMDL
MODEL 7
REMARK VINA RESULT:     -11.6      5.342      6.560
REMARK  Name = CHEMBL287628
REMARK  7 active torsions:
REMARK  status: ('A' for Active; 'I' for Inactive)
REMARK    1  A    between atoms: C_2  and  C_3
REMARK    2  A    between atoms: C_3  and  N_4
REMARK    3  A    between atoms: C_6  and  C_7
REMARK    4  A    between atoms: N_15  and  C_16
REMARK    5  A    between atoms: C_16  and  C_17
REMARK    6  A    between atoms: C_21  and  C_22
REMARK    7  A    between atoms: C_27  and  N_28
REMARK                            x       y       z     vdW  Elec       q    Type
REMARK                         _______ _______ _______ _____ _____    ______ ____
ROOT
ATOM      1  C   UNL     1      -3.531   4.716 128.096  0.00  0.00    +0.000 A 
ATOM      2  C   UNL     1      -2.579   5.658 127.715  0.00  0.00    +0.000 A 
ATOM      3  C   UNL     1      -2.487   6.532 128.825  0.00  0.00    +0.000 A 
ATOM      4  C   UNL     1      -2.041   6.307 130.163  0.00  0.00    +0.000 A 
ATOM      5  C   UNL     1      -2.470   7.057 131.273  0.00  0.00    +0.000 A 
ATOM      6  C   UNL     1      -3.298   8.144 130.996  0.00  0.00    +0.000 A 
ATOM      7  C   UNL     1      -3.972   8.164 129.741  0.00  0.00    +0.000 A 
ATOM      8  C   UNL     1      -3.790   7.017 128.887  0.00  0.00    +0.000 A 
ATOM      9  O   UNL     1      -4.438   5.569 128.901  0.00  0.00    +0.000 OA
ENDROOT
BRANCH   5  10
ATOM     10  C   UNL     1      -2.238   6.577 132.693  0.00  0.00    +0.000 C 
ATOM     11  O   UNL     1      -1.073   6.379 133.040  0.00  0.00    +0.000 OA
ATOM     12  N   UNL     1      -3.335   6.530 133.612  0.00  0.00    +0.000 N 
ATOM     13  C   UNL     1      -3.335   7.334 134.838  0.00  0.00    +0.000 C 
ATOM     14  C   UNL     1      -3.858   6.544 136.067  0.00  0.00    +0.000 C 
ATOM     15  C   UNL     1      -5.535   5.959 135.950  0.00  0.00    +0.000 C 
ATOM     16  C   UNL     1      -5.188   5.065 134.542  0.00  0.00    +0.000 C 
ATOM     17  C   UNL     1      -4.626   5.890 133.347  0.00  0.00    +0.000 C 
BRANCH  15  18
ATOM     18  N   UNL     1      -7.068   6.635 136.694  0.00  0.00    +0.000 N 
ATOM     19  C   UNL     1      -6.399   6.190 137.907  0.00  0.00    +0.000 C 
ATOM     20  O   UNL     1      -6.005   5.030 138.190  0.00  0.00    +0.000 OA
ATOM     21  O   UNL     1      -6.029   7.174 138.728  0.00  0.00    +0.000 OA
ATOM     22  C   UNL     1      -7.070   7.093 139.633  0.00  0.00    +0.000 C 
ATOM     23  C   UNL     1      -7.887   8.048 138.910  0.00  0.00    +0.000 A 
ATOM     24  C   UNL     1      -8.030   9.363 139.443  0.00  0.00    +0.000 A 
ATOM     25  F   UNL     1      -6.922   9.869 139.990  0.00  0.00    +0.000 F 
ATOM     26  C   UNL     1      -9.071  10.228 139.212  0.00  0.00    +0.000 A 
ATOM     27  C   UNL     1      -9.997   9.693 138.356  0.00  0.00    +0.000 A 
ATOM     28  C   UNL     1      -9.640   8.365 137.587  0.00  0.00    +0.000 A 
ATOM     29  C   UNL     1      -8.243   7.684 137.629  0.00  0.00    +0.000 A 
ENDBRANCH  15  18
ENDBRANCH   5  10
BRANCH   1  30
ATOM     30  C   UNL     1      -3.823   3.414 127.271  0.00  0.00    +0.000 C 
BRANCH  30  33
ATOM     31  O   UNL     1      -7.147   1.951 127.472  0.00  0.00    +0.000 OA
ATOM     32  C   UNL     1      -6.291   2.743 127.066  0.00  0.00    +0.000 C 
ATOM     33  N   UNL     1      -4.961   2.513 127.451  0.00  0.00    +0.000 N 
ATOM     34  H   UNL     1      -4.854   1.646 127.964  0.00  0.00    +0.000 HD
BRANCH  32  35
ATOM     35  C   UNL     1      -6.686   3.984 126.176  0.00  0.00    +0.000 C 
BRANCH  35  36
ATOM     36  N   UNL     1      -6.902   3.699 124.727  0.00  0.00    +0.000 N 
ATOM     37  C   UNL     1      -5.868   3.884 123.809  0.00  0.00    +0.000 A 
ATOM     38  C   UNL     1      -6.079   3.826 122.478  0.00  0.00    +0.000 A 
ATOM     39  C   UNL     1      -7.373   3.388 121.993  0.00  0.00    +0.000 A 
ATOM     40  C   UNL     1      -8.331   3.019 122.853  0.00  0.00    +0.000 A 
ATOM     41  C   UNL     1      -8.151   3.216 124.321  0.00  0.00    +0.000 A 
ATOM     42  O   UNL     1      -9.083   2.950 125.072  0.00  0.00    +0.000 OA
BRANCH  38  43
ATOM     43  C   UNL     1      -5.047   4.201 121.452  0.00  0.00    +0.000 C 
ATOM     44  F   UNL     1      -5.512   5.117 120.565  0.00  0.00    +0.000 F 
ATOM     45  F   UNL     1      -3.944   4.744 122.032  0.00  0.00    +0.000 F 
ATOM     46  F   UNL     1      -4.620   3.133 120.729  0.00  0.00    +0.000 F 
ENDBRANCH  38  43
ENDBRANCH  35  36
ENDBRANCH  32  35
ENDBRANCH  30  33
ENDBRANCH   1  30
TORSDOF 7
ENDMDL
MODEL 8
REMARK VINA RESULT:     -11.3      4.578      7.405
REMARK  Name = CHEMBL287628
REMARK  7 active torsions:
REMARK  status: ('A' for Active; 'I' for Inactive)
REMARK    1  A    between atoms: C_2  and  C_3
REMARK    2  A    between atoms: C_3  and  N_4
REMARK    3  A    between atoms: C_6  and  C_7
REMARK    4  A    between atoms: N_15  and  C_16
REMARK    5  A    between atoms: C_16  and  C_17
REMARK    6  A    between atoms: C_21  and  C_22
REMARK    7  A    between atoms: C_27  and  N_28
REMARK                            x       y       z     vdW  Elec       q    Type
REMARK                         _______ _______ _______ _____ _____    ______ ____
ROOT
ATOM      1  C   UNL     1      -4.384   5.056 128.681  0.00  0.00    +0.000 A 
ATOM      2  C   UNL     1      -3.406   5.223 129.658  0.00  0.00    +0.000 A 
ATOM      3  C   UNL     1      -4.092   5.020 130.880  0.00  0.00    +0.000 A 
ATOM      4  C   UNL     1      -4.734   3.861 131.415  0.00  0.00    +0.000 A 
ATOM      5  C   UNL     1      -5.793   3.904 132.340  0.00  0.00    +0.000 A 
ATOM      6  C   UNL     1      -6.139   5.166 132.819  0.00  0.00    +0.000 A 
ATOM      7  C   UNL     1      -5.725   6.301 132.064  0.00  0.00    +0.000 A 
ATOM      8  C   UNL     1      -5.037   6.040 130.824  0.00  0.00    +0.000 A 
ATOM      9  O   UNL     1      -5.560   5.618 129.387  0.00  0.00    +0.000 OA
ENDROOT
BRANCH   5  10
ATOM     10  C   UNL     1      -6.653   2.686 132.619  0.00  0.00    +0.000 C 
ATOM     11  O   UNL     1      -7.447   2.756 133.558  0.00  0.00    +0.000 OA
ATOM     12  N   UNL     1      -6.635   1.583 131.706  0.00  0.00    +0.000 N 
ATOM     13  C   UNL     1      -7.847   1.165 130.996  0.00  0.00    +0.000 C 
ATOM     14  C   UNL     1      -8.006  -0.378 130.950  0.00  0.00    +0.000 C 
ATOM     15  C   UNL     1      -6.706  -1.262 130.115  0.00  0.00    +0.000 C 
ATOM     16  C   UNL     1      -5.522  -0.634 131.168  0.00  0.00    +0.000 C 
ATOM     17  C   UNL     1      -5.424   0.920 131.215  0.00  0.00    +0.000 C 
BRANCH  15  18
ATOM     18  N   UNL     1      -6.670  -1.982 128.429  0.00  0.00    +0.000 N 
ATOM     19  C   UNL     1      -7.462  -3.001 129.100  0.00  0.00    +0.000 C 
ATOM     20  O   UNL     1      -7.142  -3.693 130.100  0.00  0.00    +0.000 OA
ATOM     21  O   UNL     1      -8.727  -3.081 128.687  0.00  0.00    +0.000 OA
ATOM     22  C   UNL     1      -8.602  -4.164 127.838  0.00  0.00    +0.000 C 
ATOM     23  C   UNL     1      -8.311  -3.336 126.684  0.00  0.00    +0.000 A 
ATOM     24  C   UNL     1      -9.326  -3.164 125.696  0.00  0.00    +0.000 A 
ATOM     25  F   UNL     1     -10.564  -3.042 126.181  0.00  0.00    +0.000 F 
ATOM     26  C   UNL     1      -9.133  -2.848 124.374  0.00  0.00    +0.000 A 
ATOM     27  C   UNL     1      -7.805  -2.680 124.081  0.00  0.00    +0.000 A 
ATOM     28  C   UNL     1      -6.770  -2.603 125.266  0.00  0.00    +0.000 A 
ATOM     29  C   UNL     1      -7.168  -2.569 126.768  0.00  0.00    +0.000 A 
ENDBRANCH  15  18
ENDBRANCH   5  10
BRANCH   1  30
ATOM     30  C   UNL     1      -4.057   4.979 127.149  0.00  0.00    +0.000 C 
BRANCH  30  33
ATOM     31  O   UNL     1      -6.199   4.672 124.225  0.00  0.00    +0.000 OA
ATOM     32  C   UNL     1      -5.588   4.264 125.218  0.00  0.00    +0.000 C 
ATOM     33  N   UNL     1      -4.991   5.224 126.051  0.00  0.00    +0.000 N 
ATOM     34  H   UNL     1      -5.215   6.171 125.768  0.00  0.00    +0.000 HD
BRANCH  32  35
ATOM     35  C   UNL     1      -5.458   2.722 125.518  0.00  0.00    +0.000 C 
BRANCH  35  36
ATOM     36  N   UNL     1      -6.744   1.978 125.658  0.00  0.00    +0.000 N 
ATOM     37  C   UNL     1      -7.571   1.783 124.552  0.00  0.00    +0.000 A 
ATOM     38  C   UNL     1      -8.821   1.291 124.676  0.00  0.00    +0.000 A 
ATOM     39  C   UNL     1      -9.252   0.789 125.967  0.00  0.00    +0.000 A 
ATOM     40  C   UNL     1      -8.410   0.788 127.009  0.00  0.00    +0.000 A 
ATOM     41  C   UNL     1      -7.081   1.458 126.913  0.00  0.00    +0.000 A 
ATOM     42  O   UNL     1      -6.374   1.515 127.913  0.00  0.00    +0.000 OA
BRANCH  38  43
ATOM     43  C   UNL     1      -9.813   1.239 123.548  0.00  0.00    +0.000 C 
ATOM     44  F   UNL     1     -11.086   1.448 123.972  0.00  0.00    +0.000 F 
ATOM     45  F   UNL     1      -9.551   2.188 122.612  0.00  0.00    +0.000 F 
ATOM     46  F   UNL     1      -9.805   0.043 122.903  0.00  0.00    +0.000 F 
ENDBRANCH  38  43
ENDBRANCH  35  36
ENDBRANCH  32  35
ENDBRANCH  30  33
ENDBRANCH   1  30
TORSDOF 7
ENDMDL
MODEL 9
REMARK VINA RESULT:     -11.2      3.517      6.729
REMARK  Name = CHEMBL287628
REMARK  7 active torsions:
REMARK  status: ('A' for Active; 'I' for Inactive)
REMARK    1  A    between atoms: C_2  and  C_3
REMARK    2  A    between atoms: C_3  and  N_4
REMARK    3  A    between atoms: C_6  and  C_7
REMARK    4  A    between atoms: N_15  and  C_16
REMARK    5  A    between atoms: C_16  and  C_17
REMARK    6  A    between atoms: C_21  and  C_22
REMARK    7  A    between atoms: C_27  and  N_28
REMARK                            x       y       z     vdW  Elec       q    Type
REMARK                         _______ _______ _______ _____ _____    ______ ____
ROOT
ATOM      1  C   UNL     1      -8.489  -0.057 123.635  0.00  0.00    +0.000 A 
ATOM      2  C   UNL     1      -8.975  -1.361 123.616  0.00  0.00    +0.000 A 
ATOM      3  C   UNL     1      -7.969  -2.120 124.263  0.00  0.00    +0.000 A 
ATOM      4  C   UNL     1      -7.489  -2.089 125.608  0.00  0.00    +0.000 A 
ATOM      5  C   UNL     1      -6.194  -2.482 125.991  0.00  0.00    +0.000 A 
ATOM      6  C   UNL     1      -5.395  -3.026 124.987  0.00  0.00    +0.000 A 
ATOM      7  C   UNL     1      -5.756  -2.762 123.634  0.00  0.00    +0.000 A 
ATOM      8  C   UNL     1      -6.885  -1.892 123.420  0.00  0.00    +0.000 A 
ATOM      9  O   UNL     1      -7.037  -0.315 123.481  0.00  0.00    +0.000 OA
ENDROOT
BRANCH   5  10
ATOM     10  C   UNL     1      -5.624  -2.122 127.350  0.00  0.00    +0.000 C 
ATOM     11  O   UNL     1      -4.485  -2.513 127.609  0.00  0.00    +0.000 OA
ATOM     12  N   UNL     1      -6.342  -1.223 128.202  0.00  0.00    +0.000 N 
ATOM     13  C   UNL     1      -5.762   0.058 128.616  0.00  0.00    +0.000 C 
ATOM     14  C   UNL     1      -6.018   0.369 130.115  0.00  0.00    +0.000 C 
ATOM     15  C   UNL     1      -7.728   0.510 130.592  0.00  0.00    +0.000 C 
ATOM     16  C   UNL     1      -8.068  -1.072 130.058  0.00  0.00    +0.000 C 
ATOM     17  C   UNL     1      -7.758  -1.354 128.558  0.00  0.00    +0.000 C 
BRANCH  15  18
ATOM     18  N   UNL     1      -8.742   2.007 130.897  0.00  0.00    +0.000 N 
ATOM     19  C   UNL     1      -7.977   1.988 132.134  0.00  0.00    +0.000 C 
ATOM     20  O   UNL     1      -7.916   1.069 132.990  0.00  0.00    +0.000 OA
ATOM     21  O   UNL     1      -7.129   3.008 132.277  0.00  0.00    +0.000 OA
ATOM     22  C   UNL     1      -7.893   3.800 133.112  0.00  0.00    +0.000 C 
ATOM     23  C   UNL     1      -8.514   4.512 132.013  0.00  0.00    +0.000 A 
ATOM     24  C   UNL     1      -8.101   5.851 131.749  0.00  0.00    +0.000 A 
ATOM     25  F   UNL     1      -6.792   6.073 131.899  0.00  0.00    +0.000 F 
ATOM     26  C   UNL     1      -8.837   6.823 131.118  0.00  0.00    +0.000 A 
ATOM     27  C   UNL     1     -10.062   6.355 130.720  0.00  0.00    +0.000 A 
ATOM     28  C   UNL     1     -10.340   4.805 130.786  0.00  0.00    +0.000 A 
ATOM     29  C   UNL     1      -9.264   3.744 131.148  0.00  0.00    +0.000 A 
ENDBRANCH  15  18
ENDBRANCH   5  10
BRANCH   1  30
ATOM     30  C   UNL     1      -9.354   1.184 123.217  0.00  0.00    +0.000 C 
BRANCH  30  33
ATOM     31  O   UNL     1      -8.252   4.383 124.551  0.00  0.00    +0.000 OA
ATOM     32  C   UNL     1      -8.295   3.151 124.478  0.00  0.00    +0.000 C 
ATOM     33  N   UNL     1      -8.995   2.589 123.398  0.00  0.00    +0.000 N 
ATOM     34  H   UNL     1      -9.318   3.292 122.743  0.00  0.00    +0.000 HD
BRANCH  32  35
ATOM     35  C   UNL     1      -7.617   2.246 125.577  0.00  0.00    +0.000 C 
BRANCH  35  36
ATOM     36  N   UNL     1      -6.784   2.966 126.585  0.00  0.00    +0.000 N 
ATOM     37  C   UNL     1      -5.422   3.169 126.362  0.00  0.00    +0.000 A 
ATOM     38  C   UNL     1      -4.605   3.638 127.326  0.00  0.00    +0.000 A 
ATOM     39  C   UNL     1      -5.185   4.107 128.570  0.00  0.00    +0.000 A 
ATOM     40  C   UNL     1      -6.513   4.102 128.742  0.00  0.00    +0.000 A 
ATOM     41  C   UNL     1      -7.408   3.456 127.738  0.00  0.00    +0.000 A 
ATOM     42  O   UNL     1      -8.609   3.391 127.972  0.00  0.00    +0.000 OA
BRANCH  38  43
ATOM     43  C   UNL     1      -3.108   3.696 127.197  0.00  0.00    +0.000 C 
ATOM     44  F   UNL     1      -2.702   3.699 125.902  0.00  0.00    +0.000 F 
ATOM     45  F   UNL     1      -2.604   4.821 127.768  0.00  0.00    +0.000 F 
ATOM     46  F   UNL     1      -2.494   2.645 127.800  0.00  0.00    +0.000 F 
ENDBRANCH  38  43
ENDBRANCH  35  36
ENDBRANCH  32  35
ENDBRANCH  30  33
ENDBRANCH   1  30
TORSDOF 7
ENDMDL
