MODEL 1
REMARK VINA RESULT:      -9.4      0.000      0.000
REMARK  Name = CHEMBL26398
REMARK  10 active torsions:
REMARK  status: ('A' for Active; 'I' for Inactive)
REMARK    1  A    between atoms: C_1  and  S_2
REMARK    2  A    between atoms: S_2  and  N_5
REMARK    3  A    between atoms: N_5  and  C_6
REMARK    4  A    between atoms: C_8  and  C_9
REMARK    5  A    between atoms: N_21  and  C_22
REMARK    6  A    between atoms: C_22  and  C_23
REMARK    7  A    between atoms: N_25  and  C_26
REMARK    8  A    between atoms: C_26  and  C_27
REMARK    9  A    between atoms: C_26  and  C_36
REMARK   10  A    between atoms: C_27  and  C_28
REMARK                            x       y       z     vdW  Elec       q    Type
REMARK                         _______ _______ _______ _____ _____    ______ ____
ROOT
ATOM      1  C   UNL     1      -9.949   5.898 130.554  0.00  0.00    +0.000 C 
ATOM      2  N   UNL     1      -8.950   6.134 131.594  0.00  0.00    +0.000 NA
ATOM      3  C   UNL     1      -8.289   5.236 132.157  0.00  0.00    +0.000 C 
ATOM      4  C   UNL     1      -8.525   3.870 131.827  0.00  0.00    +0.000 A 
ATOM      5  C   UNL     1      -8.612   3.050 132.935  0.00  0.00    +0.000 A 
ATOM      6  C   UNL     1      -8.904   1.785 132.656  0.00  0.00    +0.000 A 
ATOM      7  C   UNL     1      -9.262   1.502 131.342  0.00  0.00    +0.000 A 
ATOM      8  C   UNL     1      -9.282   2.291 130.244  0.00  0.00    +0.000 A 
ATOM      9  C   UNL     1      -8.750   3.494 130.480  0.00  0.00    +0.000 A 
ATOM     10  N   UNL     1      -8.464   4.278 129.355  0.00  0.00    +0.000 N 
ATOM     11  C   UNL     1      -9.204   5.442 129.245  0.00  0.00    +0.000 C 
ATOM     12  O   UNL     1      -9.334   6.036 128.169  0.00  0.00    +0.000 OA
ENDROOT
BRANCH   3  13
ATOM     13  C   UNL     1      -7.314   5.517 133.227  0.00  0.00    +0.000 A 
ATOM     14  C   UNL     1      -5.984   5.784 132.907  0.00  0.00    +0.000 A 
ATOM     15  C   UNL     1      -5.081   5.968 133.948  0.00  0.00    +0.000 A 
ATOM     16  C   UNL     1      -5.535   6.020 135.269  0.00  0.00    +0.000 A 
ATOM     17  C   UNL     1      -6.899   5.935 135.555  0.00  0.00    +0.000 A 
ATOM     18  C   UNL     1      -7.789   5.640 134.535  0.00  0.00    +0.000 A 
ENDBRANCH   3  13
BRANCH   1  19
ATOM     19  N   UNL     1     -10.609   7.186 130.244  0.00  0.00    +0.000 NA
ATOM     20  H   UNL     1     -10.363   7.819 131.014  0.00  0.00    +0.000 HD
BRANCH  19  22
ATOM     21  C   UNL     1     -12.814   8.564 129.522  0.00  0.00    +0.000 C 
ATOM     22  S   UNL     1     -12.287   7.005 130.110  0.00  0.00    +0.000 S 
ATOM     23  O   UNL     1     -12.824   6.887 131.450  0.00  0.00    +0.000 OA
ATOM     24  O   UNL     1     -12.561   6.050 129.053  0.00  0.00    +0.000 OA
ENDBRANCH  19  22
ENDBRANCH   1  19
BRANCH  10  25
ATOM     25  C   UNL     1      -7.807   3.663 128.169  0.00  0.00    +0.000 C 
BRANCH  25  26
ATOM     26  C   UNL     1      -6.355   4.122 127.855  0.00  0.00    +0.000 C 
ATOM     27  O   UNL     1      -6.103   4.968 126.983  0.00  0.00    +0.000 OA
ATOM     28  N   UNL     1      -5.329   3.539 128.563  0.00  0.00    +0.000 N 
ATOM     29  H   UNL     1      -5.467   2.576 128.826  0.00  0.00    +0.000 HD
BRANCH  28  30
ATOM     30  C   UNL     1      -3.945   4.059 128.436  0.00  0.00    +0.000 C 
BRANCH  30  31
ATOM     31  C   UNL     1      -3.025   3.230 127.503  0.00  0.00    +0.000 C 
ATOM     32  N   UNL     1      -3.528   2.092 126.941  0.00  0.00    +0.000 N 
ATOM     33  O   UNL     1      -1.870   3.559 127.240  0.00  0.00    +0.000 OA
ATOM     34  H   UNL     1      -4.461   1.738 127.047  0.00  0.00    +0.000 HD
ATOM     35  H   UNL     1      -2.908   1.572 126.332  0.00  0.00    +0.000 HD
ENDBRANCH  30  31
BRANCH  30  36
ATOM     36  C   UNL     1      -3.235   4.148 129.818  0.00  0.00    +0.000 C 
BRANCH  36  37
ATOM     37  C   UNL     1      -2.938   5.488 130.460  0.00  0.00    +0.000 A 
ATOM     38  C   UNL     1      -2.080   5.572 131.565  0.00  0.00    +0.000 A 
ATOM     39  C   UNL     1      -1.924   6.782 132.264  0.00  0.00    +0.000 A 
ATOM     40  C   UNL     1      -2.719   7.927 131.936  0.00  0.00    +0.000 A 
ATOM     41 CL   UNL     1      -2.317   9.499 132.611  0.00  0.00    +0.000 Cl
ATOM     42  C   UNL     1      -3.518   7.869 130.759  0.00  0.00    +0.000 A 
ATOM     43 CL   UNL     1      -3.992   9.322 129.906  0.00  0.00    +0.000 Cl
ATOM     44  C   UNL     1      -3.585   6.664 130.016  0.00  0.00    +0.000 A 
ENDBRANCH  36  37
ENDBRANCH  30  36
ENDBRANCH  28  30
ENDBRANCH  25  26
ENDBRANCH  10  25
TORSDOF 9
ENDMDL
MODEL 2
REMARK VINA RESULT:      -9.0      4.565      6.590
REMARK  Name = CHEMBL26398
REMARK  10 active torsions:
REMARK  status: ('A' for Active; 'I' for Inactive)
REMARK    1  A    between atoms: C_1  and  S_2
REMARK    2  A    between atoms: S_2  and  N_5
REMARK    3  A    between atoms: N_5  and  C_6
REMARK    4  A    between atoms: C_8  and  C_9
REMARK    5  A    between atoms: N_21  and  C_22
REMARK    6  A    between atoms: C_22  and  C_23
REMARK    7  A    between atoms: N_25  and  C_26
REMARK    8  A    between atoms: C_26  and  C_27
REMARK    9  A    between atoms: C_26  and  C_36
REMARK   10  A    between atoms: C_27  and  C_28
REMARK                            x       y       z     vdW  Elec       q    Type
REMARK                         _______ _______ _______ _____ _____    ______ ____
ROOT
ATOM      1  C   UNL     1      -8.817   5.156 129.981  0.00  0.00    +0.000 C 
ATOM      2  N   UNL     1      -7.398   5.489 130.082  0.00  0.00    +0.000 NA
ATOM      3  C   UNL     1      -6.696   5.297 131.098  0.00  0.00    +0.000 C 
ATOM      4  C   UNL     1      -7.290   4.761 132.277  0.00  0.00    +0.000 A 
ATOM      5  C   UNL     1      -6.914   5.429 133.426  0.00  0.00    +0.000 A 
ATOM      6  C   UNL     1      -7.511   4.993 134.530  0.00  0.00    +0.000 A 
ATOM      7  C   UNL     1      -8.546   4.081 134.361  0.00  0.00    +0.000 A 
ATOM      8  C   UNL     1      -9.011   3.470 133.247  0.00  0.00    +0.000 A 
ATOM      9  C   UNL     1      -8.247   3.721 132.181  0.00  0.00    +0.000 A 
ATOM     10  N   UNL     1      -8.472   2.921 131.054  0.00  0.00    +0.000 N 
ATOM     11  C   UNL     1      -8.958   3.589 129.944  0.00  0.00    +0.000 C 
ATOM     12  O   UNL     1      -9.535   2.998 129.024  0.00  0.00    +0.000 OA
ENDROOT
BRANCH   3  13
ATOM     13  C   UNL     1      -5.275   5.680 131.167  0.00  0.00    +0.000 A 
ATOM     14  C   UNL     1      -4.287   4.697 131.200  0.00  0.00    +0.000 A 
ATOM     15  C   UNL     1      -2.963   5.098 131.343  0.00  0.00    +0.000 A 
ATOM     16  C   UNL     1      -2.636   6.457 131.312  0.00  0.00    +0.000 A 
ATOM     17  C   UNL     1      -3.621   7.420 131.092  0.00  0.00    +0.000 A 
ATOM     18  C   UNL     1      -4.952   7.036 131.061  0.00  0.00    +0.000 A 
ENDBRANCH   3  13
BRANCH   1  19
ATOM     19  N   UNL     1      -9.321   5.661 128.684  0.00  0.00    +0.000 NA
ATOM     20  H   UNL     1      -8.500   6.026 128.188  0.00  0.00    +0.000 HD
BRANCH  19  22
ATOM     21  C   UNL     1     -10.848   6.775 130.610  0.00  0.00    +0.000 C 
ATOM     22  S   UNL     1     -10.490   6.867 128.902  0.00  0.00    +0.000 S 
ATOM     23  O   UNL     1     -11.695   6.438 128.223  0.00  0.00    +0.000 OA
ATOM     24  O   UNL     1      -9.863   8.157 128.679  0.00  0.00    +0.000 OA
ENDBRANCH  19  22
ENDBRANCH   1  19
BRANCH  10  25
ATOM     25  C   UNL     1      -8.647   1.451 131.210  0.00  0.00    +0.000 C 
BRANCH  25  26
ATOM     26  C   UNL     1      -7.356   0.608 131.412  0.00  0.00    +0.000 C 
ATOM     27  O   UNL     1      -6.670   0.685 132.443  0.00  0.00    +0.000 OA
ATOM     28  N   UNL     1      -6.966  -0.227 130.389  0.00  0.00    +0.000 N 
ATOM     29  H   UNL     1      -7.173   0.094 129.456  0.00  0.00    +0.000 HD
BRANCH  28  30
ATOM     30  C   UNL     1      -5.849  -1.182 130.591  0.00  0.00    +0.000 C 
BRANCH  30  31
ATOM     31  C   UNL     1      -4.480  -0.703 130.042  0.00  0.00    +0.000 C 
ATOM     32  N   UNL     1      -3.575  -1.644 129.646  0.00  0.00    +0.000 N 
ATOM     33  O   UNL     1      -4.182   0.486 129.938  0.00  0.00    +0.000 OA
ATOM     34  H   UNL     1      -3.711  -2.638 129.646  0.00  0.00    +0.000 HD
ATOM     35  H   UNL     1      -2.691  -1.304 129.286  0.00  0.00    +0.000 HD
ENDBRANCH  30  31
BRANCH  30  36
ATOM     36  C   UNL     1      -6.148  -2.562 129.935  0.00  0.00    +0.000 C 
BRANCH  36  37
ATOM     37  C   UNL     1      -6.980  -2.663 128.672  0.00  0.00    +0.000 A 
ATOM     38  C   UNL     1      -8.204  -3.344 128.681  0.00  0.00    +0.000 A 
ATOM     39  C   UNL     1      -8.904  -3.580 127.484  0.00  0.00    +0.000 A 
ATOM     40  C   UNL     1      -8.332  -3.232 126.218  0.00  0.00    +0.000 A 
ATOM     41 CL   UNL     1      -9.323  -3.263 124.767  0.00  0.00    +0.000 Cl
ATOM     42  C   UNL     1      -7.137  -2.459 126.216  0.00  0.00    +0.000 A 
ATOM     43 CL   UNL     1      -6.708  -1.444 124.857  0.00  0.00    +0.000 Cl
ATOM     44  C   UNL     1      -6.499  -2.151 127.445  0.00  0.00    +0.000 A 
ENDBRANCH  36  37
ENDBRANCH  30  36
ENDBRANCH  28  30
ENDBRANCH  25  26
ENDBRANCH  10  25
TORSDOF 9
ENDMDL
MODEL 3
REMARK VINA RESULT:      -8.7      3.215      4.735
REMARK  Name = CHEMBL26398
REMARK  10 active torsions:
REMARK  status: ('A' for Active; 'I' for Inactive)
REMARK    1  A    between atoms: C_1  and  S_2
REMARK    2  A    between atoms: S_2  and  N_5
REMARK    3  A    between atoms: N_5  and  C_6
REMARK    4  A    between atoms: C_8  and  C_9
REMARK    5  A    between atoms: N_21  and  C_22
REMARK    6  A    between atoms: C_22  and  C_23
REMARK    7  A    between atoms: N_25  and  C_26
REMARK    8  A    between atoms: C_26  and  C_27
REMARK    9  A    between atoms: C_26  and  C_36
REMARK   10  A    between atoms: C_27  and  C_28
REMARK                            x       y       z     vdW  Elec       q    Type
REMARK                         _______ _______ _______ _____ _____    ______ ____
ROOT
ATOM      1  C   UNL     1      -8.913   5.357 130.082  0.00  0.00    +0.000 C 
ATOM      2  N   UNL     1      -7.497   5.716 130.042  0.00  0.00    +0.000 NA
ATOM      3  C   UNL     1      -6.694   5.535 130.982  0.00  0.00    +0.000 C 
ATOM      4  C   UNL     1      -7.158   4.985 132.212  0.00  0.00    +0.000 A 
ATOM      5  C   UNL     1      -6.681   5.656 133.321  0.00  0.00    +0.000 A 
ATOM      6  C   UNL     1      -7.158   5.208 134.477  0.00  0.00    +0.000 A 
ATOM      7  C   UNL     1      -8.188   4.276 134.409  0.00  0.00    +0.000 A 
ATOM      8  C   UNL     1      -8.750   3.660 133.344  0.00  0.00    +0.000 A 
ATOM      9  C   UNL     1      -8.101   3.928 132.207  0.00  0.00    +0.000 A 
ATOM     10  N   UNL     1      -8.422   3.126 131.105  0.00  0.00    +0.000 N 
ATOM     11  C   UNL     1      -9.028   3.788 130.052  0.00  0.00    +0.000 C 
ATOM     12  O   UNL     1      -9.683   3.189 129.191  0.00  0.00    +0.000 OA
ENDROOT
BRANCH   3  13
ATOM     13  C   UNL     1      -5.280   5.944 130.911  0.00  0.00    +0.000 A 
ATOM     14  C   UNL     1      -4.278   4.980 130.812  0.00  0.00    +0.000 A 
ATOM     15  C   UNL     1      -2.954   5.403 130.825  0.00  0.00    +0.000 A 
ATOM     16  C   UNL     1      -2.654   6.768 130.797  0.00  0.00    +0.000 A 
ATOM     17  C   UNL     1      -3.673   7.718 130.710  0.00  0.00    +0.000 A 
ATOM     18  C   UNL     1      -4.994   7.308 130.810  0.00  0.00    +0.000 A 
ENDBRANCH   3  13
BRANCH   1  19
ATOM     19  N   UNL     1      -9.553   5.856 128.843  0.00  0.00    +0.000 NA
ATOM     20  H   UNL     1      -8.829   6.393 128.351  0.00  0.00    +0.000 HD
BRANCH  19  22
ATOM     21  C   UNL     1     -10.577   8.295 128.311  0.00  0.00    +0.000 C 
ATOM     22  S   UNL     1     -10.902   6.821 129.189  0.00  0.00    +0.000 S 
ATOM     23  O   UNL     1     -10.839   7.175 130.592  0.00  0.00    +0.000 OA
ATOM     24  O   UNL     1     -12.066   6.217 128.569  0.00  0.00    +0.000 OA
ENDBRANCH  19  22
ENDBRANCH   1  19
BRANCH  10  25
ATOM     25  C   UNL     1      -8.554   1.653 131.272  0.00  0.00    +0.000 C 
BRANCH  25  26
ATOM     26  C   UNL     1      -7.482   0.769 130.573  0.00  0.00    +0.000 C 
ATOM     27  O   UNL     1      -7.768  -0.304 130.020  0.00  0.00    +0.000 OA
ATOM     28  N   UNL     1      -6.175   1.200 130.601  0.00  0.00    +0.000 N 
ATOM     29  H   UNL     1      -5.896   1.706 131.427  0.00  0.00    +0.000 HD
BRANCH  28  30
ATOM     30  C   UNL     1      -5.140   0.496 129.804  0.00  0.00    +0.000 C 
BRANCH  30  31
ATOM     31  C   UNL     1      -4.344  -0.582 130.585  0.00  0.00    +0.000 C 
ATOM     32  N   UNL     1      -3.468  -1.367 129.895  0.00  0.00    +0.000 N 
ATOM     33  O   UNL     1      -4.461  -0.749 131.798  0.00  0.00    +0.000 OA
ATOM     34  H   UNL     1      -3.257  -1.306 128.916  0.00  0.00    +0.000 HD
ATOM     35  H   UNL     1      -2.958  -2.060 130.429  0.00  0.00    +0.000 HD
ENDBRANCH  30  31
BRANCH  30  36
ATOM     36  C   UNL     1      -4.101   1.490 129.207  0.00  0.00    +0.000 C 
BRANCH  36  37
ATOM     37  C   UNL     1      -4.328   2.139 127.856  0.00  0.00    +0.000 A 
ATOM     38  C   UNL     1      -3.616   3.290 127.493  0.00  0.00    +0.000 A 
ATOM     39  C   UNL     1      -3.932   3.989 126.314  0.00  0.00    +0.000 A 
ATOM     40  C   UNL     1      -5.057   3.608 125.515  0.00  0.00    +0.000 A 
ATOM     41 CL   UNL     1      -5.268   4.295 123.911  0.00  0.00    +0.000 Cl
ATOM     42  C   UNL     1      -5.718   2.388 125.831  0.00  0.00    +0.000 A 
ATOM     43 CL   UNL     1      -6.621   1.499 124.623  0.00  0.00    +0.000 Cl
ATOM     44  C   UNL     1      -5.318   1.650 126.973  0.00  0.00    +0.000 A 
ENDBRANCH  36  37
ENDBRANCH  30  36
ENDBRANCH  28  30
ENDBRANCH  25  26
ENDBRANCH  10  25
TORSDOF 9
ENDMDL
MODEL 4
REMARK VINA RESULT:      -8.6      5.468      8.362
REMARK  Name = CHEMBL26398
REMARK  10 active torsions:
REMARK  status: ('A' for Active; 'I' for Inactive)
REMARK    1  A    between atoms: C_1  and  S_2
REMARK    2  A    between atoms: S_2  and  N_5
REMARK    3  A    between atoms: N_5  and  C_6
REMARK    4  A    between atoms: C_8  and  C_9
REMARK    5  A    between atoms: N_21  and  C_22
REMARK    6  A    between atoms: C_22  and  C_23
REMARK    7  A    between atoms: N_25  and  C_26
REMARK    8  A    between atoms: C_26  and  C_27
REMARK    9  A    between atoms: C_26  and  C_36
REMARK   10  A    between atoms: C_27  and  C_28
REMARK                            x       y       z     vdW  Elec       q    Type
REMARK                         _______ _______ _______ _____ _____    ______ ____
ROOT
ATOM      1  C   UNL     1      -8.228   4.177 129.122  0.00  0.00    +0.000 C 
ATOM      2  N   UNL     1      -8.292   3.639 127.765  0.00  0.00    +0.000 NA
ATOM      3  C   UNL     1      -7.298   3.275 127.100  0.00  0.00    +0.000 C 
ATOM      4  C   UNL     1      -5.990   3.418 127.648  0.00  0.00    +0.000 A 
ATOM      5  C   UNL     1      -5.082   3.948 126.752  0.00  0.00    +0.000 A 
ATOM      6  C   UNL     1      -3.873   4.159 127.262  0.00  0.00    +0.000 A 
ATOM      7  C   UNL     1      -3.739   4.002 128.637  0.00  0.00    +0.000 A 
ATOM      8  C   UNL     1      -4.624   3.574 129.567  0.00  0.00    +0.000 A 
ATOM      9  C   UNL     1      -5.756   3.128 129.014  0.00  0.00    +0.000 A 
ATOM     10  N   UNL     1      -6.615   2.409 129.855  0.00  0.00    +0.000 N 
ATOM     11  C   UNL     1      -7.837   3.009 130.101  0.00  0.00    +0.000 C 
ATOM     12  O   UNL     1      -8.535   2.699 131.073  0.00  0.00    +0.000 OA
ENDROOT
BRANCH   3  13
ATOM     13  C   UNL     1      -7.405   2.770 125.720  0.00  0.00    +0.000 A 
ATOM     14  C   UNL     1      -6.948   1.491 125.407  0.00  0.00    +0.000 A 
ATOM     15  C   UNL     1      -6.997   1.081 124.079  0.00  0.00    +0.000 A 
ATOM     16  C   UNL     1      -7.618   1.886 123.120  0.00  0.00    +0.000 A 
ATOM     17  C   UNL     1      -8.234   3.083 123.488  0.00  0.00    +0.000 A 
ATOM     18  C   UNL     1      -8.092   3.549 124.785  0.00  0.00    +0.000 A 
ENDBRANCH   3  13
BRANCH   1  19
ATOM     19  N   UNL     1      -9.586   4.622 129.508  0.00  0.00    +0.000 NA
ATOM     20  H   UNL     1     -10.233   4.104 128.903  0.00  0.00    +0.000 HD
BRANCH  19  22
ATOM     21  C   UNL     1     -11.298   6.626 130.086  0.00  0.00    +0.000 C 
ATOM     22  S   UNL     1      -9.768   6.294 129.310  0.00  0.00    +0.000 S 
ATOM     23  O   UNL     1      -9.977   6.549 127.900  0.00  0.00    +0.000 OA
ATOM     24  O   UNL     1      -8.750   6.962 130.100  0.00  0.00    +0.000 OA
ENDBRANCH  19  22
ENDBRANCH   1  19
BRANCH  10  25
ATOM     25  C   UNL     1      -6.062   1.374 130.771  0.00  0.00    +0.000 C 
BRANCH  25  26
ATOM     26  C   UNL     1      -6.293  -0.112 130.372  0.00  0.00    +0.000 C 
ATOM     27  O   UNL     1      -7.248  -0.773 130.808  0.00  0.00    +0.000 OA
ATOM     28  N   UNL     1      -5.381  -0.699 129.525  0.00  0.00    +0.000 N 
ATOM     29  H   UNL     1      -4.428  -0.383 129.616  0.00  0.00    +0.000 HD
BRANCH  28  30
ATOM     30  C   UNL     1      -5.641  -2.050 128.970  0.00  0.00    +0.000 C 
BRANCH  30  31
ATOM     31  C   UNL     1      -4.855  -3.196 129.659  0.00  0.00    +0.000 C 
ATOM     32  N   UNL     1      -3.607  -3.495 129.195  0.00  0.00    +0.000 N 
ATOM     33  O   UNL     1      -5.303  -3.835 130.609  0.00  0.00    +0.000 OA
ATOM     34  H   UNL     1      -3.118  -3.026 128.455  0.00  0.00    +0.000 HD
ATOM     35  H   UNL     1      -3.113  -4.244 129.666  0.00  0.00    +0.000 HD
ENDBRANCH  30  31
BRANCH  30  36
ATOM     36  C   UNL     1      -5.314  -2.120 127.449  0.00  0.00    +0.000 C 
BRANCH  36  37
ATOM     37  C   UNL     1      -6.411  -2.315 126.422  0.00  0.00    +0.000 A 
ATOM     38  C   UNL     1      -7.704  -2.674 126.823  0.00  0.00    +0.000 A 
ATOM     39  C   UNL     1      -8.684  -3.012 125.872  0.00  0.00    +0.000 A 
ATOM     40  C   UNL     1      -8.356  -3.106 124.482  0.00  0.00    +0.000 A 
ATOM     41 CL   UNL     1      -9.635  -3.242 123.284  0.00  0.00    +0.000 Cl
ATOM     42  C   UNL     1      -7.073  -2.651 124.067  0.00  0.00    +0.000 A 
ATOM     43 CL   UNL     1      -6.784  -2.103 122.430  0.00  0.00    +0.000 Cl
ATOM     44  C   UNL     1      -6.133  -2.224 125.039  0.00  0.00    +0.000 A 
ENDBRANCH  36  37
ENDBRANCH  30  36
ENDBRANCH  28  30
ENDBRANCH  25  26
ENDBRANCH  10  25
TORSDOF 9
ENDMDL
MODEL 5
REMARK VINA RESULT:      -8.5      3.062      5.264
REMARK  Name = CHEMBL26398
REMARK  10 active torsions:
REMARK  status: ('A' for Active; 'I' for Inactive)
REMARK    1  A    between atoms: C_1  and  S_2
REMARK    2  A    between atoms: S_2  and  N_5
REMARK    3  A    between atoms: N_5  and  C_6
REMARK    4  A    between atoms: C_8  and  C_9
REMARK    5  A    between atoms: N_21  and  C_22
REMARK    6  A    between atoms: C_22  and  C_23
REMARK    7  A    between atoms: N_25  and  C_26
REMARK    8  A    between atoms: C_26  and  C_27
REMARK    9  A    between atoms: C_26  and  C_36
REMARK   10  A    between atoms: C_27  and  C_28
REMARK                            x       y       z     vdW  Elec       q    Type
REMARK                         _______ _______ _______ _____ _____    ______ ____
ROOT
ATOM      1  C   UNL     1      -9.381   5.482 130.089  0.00  0.00    +0.000 C 
ATOM      2  N   UNL     1      -7.987   5.296 129.692  0.00  0.00    +0.000 NA
ATOM      3  C   UNL     1      -7.060   5.007 130.479  0.00  0.00    +0.000 C 
ATOM      4  C   UNL     1      -7.327   4.887 131.873  0.00  0.00    +0.000 A 
ATOM      5  C   UNL     1      -6.392   5.526 132.663  0.00  0.00    +0.000 A 
ATOM      6  C   UNL     1      -6.660   5.490 133.964  0.00  0.00    +0.000 A 
ATOM      7  C   UNL     1      -7.905   4.994 134.331  0.00  0.00    +0.000 A 
ATOM      8  C   UNL     1      -8.891   4.443 133.586  0.00  0.00    +0.000 A 
ATOM      9  C   UNL     1      -8.515   4.255 132.317  0.00  0.00    +0.000 A 
ATOM     10  N   UNL     1      -9.347   3.442 131.538  0.00  0.00    +0.000 N 
ATOM     11  C   UNL     1      -9.976   4.080 130.484  0.00  0.00    +0.000 C 
ATOM     12  O   UNL     1     -10.987   3.615 129.945  0.00  0.00    +0.000 OA
ENDROOT
BRANCH   3  13
ATOM     13  C   UNL     1      -5.661   4.862 130.041  0.00  0.00    +0.000 A 
ATOM     14  C   UNL     1      -4.955   5.970 129.575  0.00  0.00    +0.000 A 
ATOM     15  C   UNL     1      -3.663   5.776 129.099  0.00  0.00    +0.000 A 
ATOM     16  C   UNL     1      -3.053   4.525 129.219  0.00  0.00    +0.000 A 
ATOM     17  C   UNL     1      -3.710   3.472 129.856  0.00  0.00    +0.000 A 
ATOM     18  C   UNL     1      -5.036   3.626 130.232  0.00  0.00    +0.000 A 
ENDBRANCH   3  13
BRANCH   1  19
ATOM     19  N   UNL     1     -10.140   5.951 128.907  0.00  0.00    +0.000 NA
ATOM     20  H   UNL     1      -9.529   5.787 128.099  0.00  0.00    +0.000 HD
BRANCH  19  22
ATOM     21  C   UNL     1     -11.088   8.004 127.435  0.00  0.00    +0.000 C 
ATOM     22  S   UNL     1     -10.548   7.589 129.044  0.00  0.00    +0.000 S 
ATOM     23  O   UNL     1      -9.321   8.331 129.252  0.00  0.00    +0.000 OA
ATOM     24  O   UNL     1     -11.706   7.701 129.912  0.00  0.00    +0.000 OA
ENDBRANCH  19  22
ENDBRANCH   1  19
BRANCH  10  25
ATOM     25  C   UNL     1      -9.876   2.168 132.099  0.00  0.00    +0.000 C 
BRANCH  25  26
ATOM     26  C   UNL     1      -9.206   0.854 131.607  0.00  0.00    +0.000 C 
ATOM     27  O   UNL     1      -9.478  -0.252 132.100  0.00  0.00    +0.000 OA
ATOM     28  N   UNL     1      -8.264   0.947 130.608  0.00  0.00    +0.000 N 
ATOM     29  H   UNL     1      -7.704   1.785 130.607  0.00  0.00    +0.000 HD
BRANCH  28  30
ATOM     30  C   UNL     1      -7.722  -0.282 129.977  0.00  0.00    +0.000 C 
BRANCH  30  31
ATOM     31  C   UNL     1      -6.355  -0.750 130.541  0.00  0.00    +0.000 C 
ATOM     32  N   UNL     1      -6.163  -2.084 130.752  0.00  0.00    +0.000 N 
ATOM     33  O   UNL     1      -5.436   0.028 130.792  0.00  0.00    +0.000 OA
ATOM     34  H   UNL     1      -6.817  -2.818 130.555  0.00  0.00    +0.000 HD
ATOM     35  H   UNL     1      -5.259  -2.363 131.117  0.00  0.00    +0.000 HD
ENDBRANCH  30  31
BRANCH  30  36
ATOM     36  C   UNL     1      -7.549  -0.111 128.440  0.00  0.00    +0.000 C 
BRANCH  36  37
ATOM     37  C   UNL     1      -6.988   1.169 127.854  0.00  0.00    +0.000 A 
ATOM     38  C   UNL     1      -7.806   2.294 127.688  0.00  0.00    +0.000 A 
ATOM     39  C   UNL     1      -7.339   3.429 127.002  0.00  0.00    +0.000 A 
ATOM     40  C   UNL     1      -6.059   3.423 126.361  0.00  0.00    +0.000 A 
ATOM     41 CL   UNL     1      -5.368   4.925 125.762  0.00  0.00    +0.000 Cl
ATOM     42  C   UNL     1      -5.193   2.321 126.609  0.00  0.00    +0.000 A 
ATOM     43 CL   UNL     1      -3.456   2.473 126.459  0.00  0.00    +0.000 Cl
ATOM     44  C   UNL     1      -5.655   1.228 127.386  0.00  0.00    +0.000 A 
ENDBRANCH  36  37
ENDBRANCH  30  36
ENDBRANCH  28  30
ENDBRANCH  25  26
ENDBRANCH  10  25
TORSDOF 9
ENDMDL
MODEL 6
REMARK VINA RESULT:      -8.5      5.856      8.434
REMARK  Name = CHEMBL26398
REMARK  10 active torsions:
REMARK  status: ('A' for Active; 'I' for Inactive)
REMARK    1  A    between atoms: C_1  and  S_2
REMARK    2  A    between atoms: S_2  and  N_5
REMARK    3  A    between atoms: N_5  and  C_6
REMARK    4  A    between atoms: C_8  and  C_9
REMARK    5  A    between atoms: N_21  and  C_22
REMARK    6  A    between atoms: C_22  and  C_23
REMARK    7  A    between atoms: N_25  and  C_26
REMARK    8  A    between atoms: C_26  and  C_27
REMARK    9  A    between atoms: C_26  and  C_36
REMARK   10  A    between atoms: C_27  and  C_28
REMARK                            x       y       z     vdW  Elec       q    Type
REMARK                         _______ _______ _______ _____ _____    ______ ____
ROOT
ATOM      1  C   UNL     1      -7.566   0.378 130.612  0.00  0.00    +0.000 C 
ATOM      2  N   UNL     1      -7.095  -0.780 131.369  0.00  0.00    +0.000 NA
ATOM      3  C   UNL     1      -6.998  -1.936 130.905  0.00  0.00    +0.000 C 
ATOM      4  C   UNL     1      -7.407  -2.198 129.566  0.00  0.00    +0.000 A 
ATOM      5  C   UNL     1      -8.173  -3.341 129.445  0.00  0.00    +0.000 A 
ATOM      6  C   UNL     1      -8.627  -3.567 128.217  0.00  0.00    +0.000 A 
ATOM      7  C   UNL     1      -8.437  -2.553 127.285  0.00  0.00    +0.000 A 
ATOM      8  C   UNL     1      -7.775  -1.377 127.383  0.00  0.00    +0.000 A 
ATOM      9  C   UNL     1      -7.111  -1.269 128.538  0.00  0.00    +0.000 A 
ATOM     10  N   UNL     1      -6.176  -0.230 128.621  0.00  0.00    +0.000 N 
ATOM     11  C   UNL     1      -6.470   0.755 129.547  0.00  0.00    +0.000 C 
ATOM     12  O   UNL     1      -5.963   1.881 129.490  0.00  0.00    +0.000 OA
ENDROOT
BRANCH   3  13
ATOM     13  C   UNL     1      -6.550  -3.083 131.715  0.00  0.00    +0.000 A 
ATOM     14  C   UNL     1      -7.093  -3.300 132.980  0.00  0.00    +0.000 A 
ATOM     15  C   UNL     1      -6.588  -4.347 133.743  0.00  0.00    +0.000 A 
ATOM     16  C   UNL     1      -5.660  -5.233 133.190  0.00  0.00    +0.000 A 
ATOM     17  C   UNL     1      -5.265  -5.107 131.857  0.00  0.00    +0.000 A 
ATOM     18  C   UNL     1      -5.678  -4.003 131.127  0.00  0.00    +0.000 A 
ENDBRANCH   3  13
BRANCH   1  19
ATOM     19  N   UNL     1      -7.672   1.526 131.541  0.00  0.00    +0.000 NA
ATOM     20  H   UNL     1      -7.068   1.298 132.338  0.00  0.00    +0.000 HD
BRANCH  19  22
ATOM     21  C   UNL     1      -9.882   2.920 130.866  0.00  0.00    +0.000 C 
ATOM     22  S   UNL     1      -9.273   1.775 132.036  0.00  0.00    +0.000 S 
ATOM     23  O   UNL     1      -9.236   2.483 133.299  0.00  0.00    +0.000 OA
ATOM     24  O   UNL     1     -10.011   0.542 131.833  0.00  0.00    +0.000 OA
ENDBRANCH  19  22
ENDBRANCH   1  19
BRANCH  10  25
ATOM     25  C   UNL     1      -5.249   0.027 127.485  0.00  0.00    +0.000 C 
BRANCH  25  26
ATOM     26  C   UNL     1      -5.394   1.395 126.759  0.00  0.00    +0.000 C 
ATOM     27  O   UNL     1      -4.413   2.098 126.470  0.00  0.00    +0.000 OA
ATOM     28  N   UNL     1      -6.663   1.832 126.457  0.00  0.00    +0.000 N 
ATOM     29  H   UNL     1      -7.386   1.572 127.111  0.00  0.00    +0.000 HD
BRANCH  28  30
ATOM     30  C   UNL     1      -6.857   3.036 125.611  0.00  0.00    +0.000 C 
BRANCH  30  31
ATOM     31  C   UNL     1      -7.866   4.069 126.177  0.00  0.00    +0.000 C 
ATOM     32  N   UNL     1      -7.835   4.340 127.514  0.00  0.00    +0.000 N 
ATOM     33  O   UNL     1      -8.682   4.660 125.472  0.00  0.00    +0.000 OA
ATOM     34  H   UNL     1      -7.198   3.953 128.185  0.00  0.00    +0.000 HD
ATOM     35  H   UNL     1      -8.502   5.021 127.857  0.00  0.00    +0.000 HD
ENDBRANCH  30  31
BRANCH  30  36
ATOM     36  C   UNL     1      -7.338   2.661 124.179  0.00  0.00    +0.000 C 
BRANCH  36  37
ATOM     37  C   UNL     1      -7.789   1.253 123.850  0.00  0.00    +0.000 A 
ATOM     38  C   UNL     1      -9.116   0.861 124.070  0.00  0.00    +0.000 A 
ATOM     39  C   UNL     1      -9.505  -0.482 123.919  0.00  0.00    +0.000 A 
ATOM     40  C   UNL     1      -8.536  -1.500 123.645  0.00  0.00    +0.000 A 
ATOM     41 CL   UNL     1      -9.061  -3.110 123.175  0.00  0.00    +0.000 Cl
ATOM     42  C   UNL     1      -7.210  -1.090 123.329  0.00  0.00    +0.000 A 
ATOM     43 CL   UNL     1      -6.147  -2.100 122.373  0.00  0.00    +0.000 Cl
ATOM     44  C   UNL     1      -6.865   0.283 123.396  0.00  0.00    +0.000 A 
ENDBRANCH  36  37
ENDBRANCH  30  36
ENDBRANCH  28  30
ENDBRANCH  25  26
ENDBRANCH  10  25
TORSDOF 9
ENDMDL
MODEL 7
REMARK VINA RESULT:      -8.5      4.764      6.689
REMARK  Name = CHEMBL26398
REMARK  10 active torsions:
REMARK  status: ('A' for Active; 'I' for Inactive)
REMARK    1  A    between atoms: C_1  and  S_2
REMARK    2  A    between atoms: S_2  and  N_5
REMARK    3  A    between atoms: N_5  and  C_6
REMARK    4  A    between atoms: C_8  and  C_9
REMARK    5  A    between atoms: N_21  and  C_22
REMARK    6  A    between atoms: C_22  and  C_23
REMARK    7  A    between atoms: N_25  and  C_26
REMARK    8  A    between atoms: C_26  and  C_27
REMARK    9  A    between atoms: C_26  and  C_36
REMARK   10  A    between atoms: C_27  and  C_28
REMARK                            x       y       z     vdW  Elec       q    Type
REMARK                         _______ _______ _______ _____ _____    ______ ____
ROOT
ATOM      1  C   UNL     1      -8.839   5.312 130.187  0.00  0.00    +0.000 C 
ATOM      2  N   UNL     1      -7.411   5.612 130.112  0.00  0.00    +0.000 NA
ATOM      3  C   UNL     1      -6.609   5.475 131.061  0.00  0.00    +0.000 C 
ATOM      4  C   UNL     1      -7.084   5.044 132.333  0.00  0.00    +0.000 A 
ATOM      5  C   UNL     1      -6.573   5.783 133.382  0.00  0.00    +0.000 A 
ATOM      6  C   UNL     1      -7.058   5.447 134.572  0.00  0.00    +0.000 A 
ATOM      7  C   UNL     1      -8.123   4.554 134.583  0.00  0.00    +0.000 A 
ATOM      8  C   UNL     1      -8.717   3.877 133.574  0.00  0.00    +0.000 A 
ATOM      9  C   UNL     1      -8.066   4.027 132.417  0.00  0.00    +0.000 A 
ATOM     10  N   UNL     1      -8.426   3.153 131.384  0.00  0.00    +0.000 N 
ATOM     11  C   UNL     1      -9.015   3.751 130.284  0.00  0.00    +0.000 C 
ATOM     12  O   UNL     1      -9.698   3.111 129.477  0.00  0.00    +0.000 OA
ENDROOT
BRANCH   3  13
ATOM     13  C   UNL     1      -5.181   5.822 130.950  0.00  0.00    +0.000 A 
ATOM     14  C   UNL     1      -4.217   4.816 130.928  0.00  0.00    +0.000 A 
ATOM     15  C   UNL     1      -2.877   5.187 130.901  0.00  0.00    +0.000 A 
ATOM     16  C   UNL     1      -2.526   6.532 130.759  0.00  0.00    +0.000 A 
ATOM     17  C   UNL     1      -3.509   7.510 130.598  0.00  0.00    +0.000 A 
ATOM     18  C   UNL     1      -4.843   7.161 130.736  0.00  0.00    +0.000 A 
ENDBRANCH   3  13
BRANCH   1  19
ATOM     19  N   UNL     1      -9.468   5.735 128.915  0.00  0.00    +0.000 NA
ATOM     20  H   UNL     1      -8.740   6.238 128.396  0.00  0.00    +0.000 HD
BRANCH  19  22
ATOM     21  C   UNL     1     -10.530   8.094 128.148  0.00  0.00    +0.000 C 
ATOM     22  S   UNL     1     -10.817   6.722 129.191  0.00  0.00    +0.000 S 
ATOM     23  O   UNL     1     -10.721   7.228 130.544  0.00  0.00    +0.000 OA
ATOM     24  O   UNL     1     -11.992   6.046 128.672  0.00  0.00    +0.000 OA
ENDBRANCH  19  22
ENDBRANCH   1  19
BRANCH  10  25
ATOM     25  C   UNL     1      -8.613   1.704 131.669  0.00  0.00    +0.000 C 
BRANCH  25  26
ATOM     26  C   UNL     1      -7.706   0.712 130.887  0.00  0.00    +0.000 C 
ATOM     27  O   UNL     1      -6.520   0.517 131.194  0.00  0.00    +0.000 OA
ATOM     28  N   UNL     1      -8.252   0.059 129.805  0.00  0.00    +0.000 N 
ATOM     29  H   UNL     1      -8.941   0.575 129.280  0.00  0.00    +0.000 HD
BRANCH  28  30
ATOM     30  C   UNL     1      -7.497  -1.026 129.130  0.00  0.00    +0.000 C 
BRANCH  30  31
ATOM     31  C   UNL     1      -7.669  -1.071 127.589  0.00  0.00    +0.000 C 
ATOM     32  N   UNL     1      -7.855   0.104 126.923  0.00  0.00    +0.000 N 
ATOM     33  O   UNL     1      -7.632  -2.118 126.945  0.00  0.00    +0.000 OA
ATOM     34  H   UNL     1      -7.869   1.022 127.327  0.00  0.00    +0.000 HD
ATOM     35  H   UNL     1      -7.960   0.047 125.917  0.00  0.00    +0.000 HD
ENDBRANCH  30  31
BRANCH  30  36
ATOM     36  C   UNL     1      -7.893  -2.428 129.677  0.00  0.00    +0.000 C 
BRANCH  36  37
ATOM     37  C   UNL     1      -6.986  -3.181 130.629  0.00  0.00    +0.000 A 
ATOM     38  C   UNL     1      -6.167  -4.217 130.160  0.00  0.00    +0.000 A 
ATOM     39  C   UNL     1      -5.444  -5.024 131.057  0.00  0.00    +0.000 A 
ATOM     40  C   UNL     1      -5.611  -4.880 132.472  0.00  0.00    +0.000 A 
ATOM     41 CL   UNL     1      -4.500  -5.682 133.574  0.00  0.00    +0.000 Cl
ATOM     42  C   UNL     1      -6.365  -3.770 132.945  0.00  0.00    +0.000 A 
ATOM     43 CL   UNL     1      -6.114  -3.112 134.548  0.00  0.00    +0.000 Cl
ATOM     44  C   UNL     1      -7.009  -2.913 132.017  0.00  0.00    +0.000 A 
ENDBRANCH  36  37
ENDBRANCH  30  36
ENDBRANCH  28  30
ENDBRANCH  25  26
ENDBRANCH  10  25
TORSDOF 9
ENDMDL
MODEL 8
REMARK VINA RESULT:      -8.2      4.975      6.769
REMARK  Name = CHEMBL26398
REMARK  10 active torsions:
REMARK  status: ('A' for Active; 'I' for Inactive)
REMARK    1  A    between atoms: C_1  and  S_2
REMARK    2  A    between atoms: S_2  and  N_5
REMARK    3  A    between atoms: N_5  and  C_6
REMARK    4  A    between atoms: C_8  and  C_9
REMARK    5  A    between atoms: N_21  and  C_22
REMARK    6  A    between atoms: C_22  and  C_23
REMARK    7  A    between atoms: N_25  and  C_26
REMARK    8  A    between atoms: C_26  and  C_27
REMARK    9  A    between atoms: C_26  and  C_36
REMARK   10  A    between atoms: C_27  and  C_28
REMARK                            x       y       z     vdW  Elec       q    Type
REMARK                         _______ _______ _______ _____ _____    ______ ____
ROOT
ATOM      1  C   UNL     1      -8.897   5.335 130.232  0.00  0.00    +0.000 C 
ATOM      2  N   UNL     1      -7.451   5.546 130.231  0.00  0.00    +0.000 NA
ATOM      3  C   UNL     1      -6.702   5.325 131.207  0.00  0.00    +0.000 C 
ATOM      4  C   UNL     1      -7.261   4.879 132.439  0.00  0.00    +0.000 A 
ATOM      5  C   UNL     1      -6.754   5.546 133.538  0.00  0.00    +0.000 A 
ATOM      6  C   UNL     1      -7.312   5.199 134.692  0.00  0.00    +0.000 A 
ATOM      7  C   UNL     1      -8.430   4.375 134.623  0.00  0.00    +0.000 A 
ATOM      8  C   UNL     1      -9.018   3.773 133.563  0.00  0.00    +0.000 A 
ATOM      9  C   UNL     1      -8.307   3.924 132.442  0.00  0.00    +0.000 A 
ATOM     10  N   UNL     1      -8.673   3.112 131.361  0.00  0.00    +0.000 N 
ATOM     11  C   UNL     1      -9.173   3.786 130.261  0.00  0.00    +0.000 C 
ATOM     12  O   UNL     1      -9.857   3.220 129.401  0.00  0.00    +0.000 OA
ENDROOT
BRANCH   3  13
ATOM     13  C   UNL     1      -5.252   5.584 131.172  0.00  0.00    +0.000 A 
ATOM     14  C   UNL     1      -4.355   4.523 131.061  0.00  0.00    +0.000 A 
ATOM     15  C   UNL     1      -2.994   4.803 131.109  0.00  0.00    +0.000 A 
ATOM     16  C   UNL     1      -2.552   6.129 131.128  0.00  0.00    +0.000 A 
ATOM     17  C   UNL     1      -3.464   7.183 131.053  0.00  0.00    +0.000 A 
ATOM     18  C   UNL     1      -4.822   6.912 131.117  0.00  0.00    +0.000 A 
ENDBRANCH   3  13
BRANCH   1  19
ATOM     19  N   UNL     1      -9.440   5.843 128.952  0.00  0.00    +0.000 NA
ATOM     20  H   UNL     1      -8.692   6.408 128.535  0.00  0.00    +0.000 HD
BRANCH  19  22
ATOM     21  C   UNL     1     -10.480   8.266 128.380  0.00  0.00    +0.000 C 
ATOM     22  S   UNL     1     -10.841   6.763 129.196  0.00  0.00    +0.000 S 
ATOM     23  O   UNL     1     -10.912   7.087 130.606  0.00  0.00    +0.000 OA
ATOM     24  O   UNL     1     -11.929   6.144 128.462  0.00  0.00    +0.000 OA
ENDBRANCH  19  22
ENDBRANCH   1  19
BRANCH  10  25
ATOM     25  C   UNL     1      -8.962   1.669 131.582  0.00  0.00    +0.000 C 
BRANCH  25  26
ATOM     26  C   UNL     1      -7.745   0.747 131.881  0.00  0.00    +0.000 C 
ATOM     27  O   UNL     1      -7.374   0.496 133.038  0.00  0.00    +0.000 OA
ATOM     28  N   UNL     1      -7.057   0.223 130.810  0.00  0.00    +0.000 N 
ATOM     29  H   UNL     1      -7.010   0.806 129.989  0.00  0.00    +0.000 HD
BRANCH  28  30
ATOM     30  C   UNL     1      -6.004  -0.798 131.029  0.00  0.00    +0.000 C 
BRANCH  30  31
ATOM     31  C   UNL     1      -4.849  -0.770 129.993  0.00  0.00    +0.000 C 
ATOM     32  N   UNL     1      -4.455   0.438 129.495  0.00  0.00    +0.000 N 
ATOM     33  O   UNL     1      -4.269  -1.785 129.613  0.00  0.00    +0.000 OA
ATOM     34  H   UNL     1      -4.822   1.336 129.751  0.00  0.00    +0.000 HD
ATOM     35  H   UNL     1      -3.696   0.429 128.824  0.00  0.00    +0.000 HD
ENDBRANCH  30  31
BRANCH  30  36
ATOM     36  C   UNL     1      -6.591  -2.240 131.021  0.00  0.00    +0.000 C 
BRANCH  36  37
ATOM     37  C   UNL     1      -6.507  -3.125 132.248  0.00  0.00    +0.000 A 
ATOM     38  C   UNL     1      -5.547  -4.142 132.326  0.00  0.00    +0.000 A 
ATOM     39  C   UNL     1      -5.564  -5.068 133.385  0.00  0.00    +0.000 A 
ATOM     40  C   UNL     1      -6.624  -5.063 134.347  0.00  0.00    +0.000 A 
ATOM     41 CL   UNL     1      -6.485  -6.021 135.813  0.00  0.00    +0.000 Cl
ATOM     42  C   UNL     1      -7.542  -3.976 134.322  0.00  0.00    +0.000 A 
ATOM     43 CL   UNL     1      -8.430  -3.497 135.753  0.00  0.00    +0.000 Cl
ATOM     44  C   UNL     1      -7.446  -3.000 133.297  0.00  0.00    +0.000 A 
ENDBRANCH  36  37
ENDBRANCH  30  36
ENDBRANCH  28  30
ENDBRANCH  25  26
ENDBRANCH  10  25
TORSDOF 9
ENDMDL
MODEL 9
REMARK VINA RESULT:      -8.0      5.114      7.574
REMARK  Name = CHEMBL26398
REMARK  10 active torsions:
REMARK  status: ('A' for Active; 'I' for Inactive)
REMARK    1  A    between atoms: C_1  and  S_2
REMARK    2  A    between atoms: S_2  and  N_5
REMARK    3  A    between atoms: N_5  and  C_6
REMARK    4  A    between atoms: C_8  and  C_9
REMARK    5  A    between atoms: N_21  and  C_22
REMARK    6  A    between atoms: C_22  and  C_23
REMARK    7  A    between atoms: N_25  and  C_26
REMARK    8  A    between atoms: C_26  and  C_27
REMARK    9  A    between atoms: C_26  and  C_36
REMARK   10  A    between atoms: C_27  and  C_28
REMARK                            x       y       z     vdW  Elec       q    Type
REMARK                         _______ _______ _______ _____ _____    ______ ____
ROOT
ATOM      1  C   UNL     1      -8.230   4.802 129.592  0.00  0.00    +0.000 C 
ATOM      2  N   UNL     1      -6.952   4.671 128.896  0.00  0.00    +0.000 NA
ATOM      3  C   UNL     1      -5.901   4.243 129.420  0.00  0.00    +0.000 C 
ATOM      4  C   UNL     1      -5.891   3.889 130.800  0.00  0.00    +0.000 A 
ATOM      5  C   UNL     1      -4.790   4.375 131.477  0.00  0.00    +0.000 A 
ATOM      6  C   UNL     1      -4.796   4.121 132.781  0.00  0.00    +0.000 A 
ATOM      7  C   UNL     1      -5.965   3.583 133.307  0.00  0.00    +0.000 A 
ATOM      8  C   UNL     1      -7.102   3.177 132.697  0.00  0.00    +0.000 A 
ATOM      9  C   UNL     1      -6.994   3.204 131.365  0.00  0.00    +0.000 A 
ATOM     10  N   UNL     1      -8.000   2.544 130.648  0.00  0.00    +0.000 N 
ATOM     11  C   UNL     1      -8.797   3.359 129.864  0.00  0.00    +0.000 C 
ATOM     12  O   UNL     1      -9.914   3.003 129.473  0.00  0.00    +0.000 OA
ENDROOT
BRANCH   3  13
ATOM     13  C   UNL     1      -4.625   4.160 128.688  0.00  0.00    +0.000 A 
ATOM     14  C   UNL     1      -4.170   2.930 128.214  0.00  0.00    +0.000 A 
ATOM     15  C   UNL     1      -2.924   2.882 127.597  0.00  0.00    +0.000 A 
ATOM     16  C   UNL     1      -2.223   4.064 127.341  0.00  0.00    +0.000 A 
ATOM     17  C   UNL     1      -2.780   5.304 127.659  0.00  0.00    +0.000 A 
ATOM     18  C   UNL     1      -3.967   5.352 128.373  0.00  0.00    +0.000 A 
ENDBRANCH   3  13
BRANCH   1  19
ATOM     19  N   UNL     1      -9.186   5.473 128.683  0.00  0.00    +0.000 NA
ATOM     20  H   UNL     1      -8.630   5.805 127.887  0.00  0.00    +0.000 HD
BRANCH  19  22
ATOM     21  C   UNL     1     -10.537   7.742 128.126  0.00  0.00    +0.000 C 
ATOM     22  S   UNL     1      -9.977   6.756 129.456  0.00  0.00    +0.000 S 
ATOM     23  O   UNL     1      -8.971   7.546 130.136  0.00  0.00    +0.000 OA
ATOM     24  O   UNL     1     -11.162   6.234 130.112  0.00  0.00    +0.000 OA
ENDBRANCH  19  22
ENDBRANCH   1  19
BRANCH  10  25
ATOM     25  C   UNL     1      -8.464   1.199 131.087  0.00  0.00    +0.000 C 
BRANCH  25  26
ATOM     26  C   UNL     1      -7.604  -0.019 130.643  0.00  0.00    +0.000 C 
ATOM     27  O   UNL     1      -6.367   0.035 130.576  0.00  0.00    +0.000 OA
ATOM     28  N   UNL     1      -8.262  -1.176 130.294  0.00  0.00    +0.000 N 
ATOM     29  H   UNL     1      -9.163  -1.057 129.857  0.00  0.00    +0.000 HD
BRANCH  28  30
ATOM     30  C   UNL     1      -7.495  -2.420 130.034  0.00  0.00    +0.000 C 
BRANCH  30  31
ATOM     31  C   UNL     1      -6.495  -2.810 131.153  0.00  0.00    +0.000 C 
ATOM     32  N   UNL     1      -5.160  -2.756 130.877  0.00  0.00    +0.000 N 
ATOM     33  O   UNL     1      -6.853  -3.153 132.279  0.00  0.00    +0.000 OA
ATOM     34  H   UNL     1      -4.742  -2.460 130.015  0.00  0.00    +0.000 HD
ATOM     35  H   UNL     1      -4.528  -3.011 131.627  0.00  0.00    +0.000 HD
ENDBRANCH  30  31
BRANCH  30  36
ATOM     36  C   UNL     1      -6.686  -2.329 128.708  0.00  0.00    +0.000 C 
BRANCH  36  37
ATOM     37  C   UNL     1      -7.367  -2.492 127.364  0.00  0.00    +0.000 A 
ATOM     38  C   UNL     1      -8.684  -2.962 127.287  0.00  0.00    +0.000 A 
ATOM     39  C   UNL     1      -9.268  -3.268 126.045  0.00  0.00    +0.000 A 
ATOM     40  C   UNL     1      -8.498  -3.212 124.839  0.00  0.00    +0.000 A 
ATOM     41 CL   UNL     1      -9.301  -3.311 123.278  0.00  0.00    +0.000 Cl
ATOM     42  C   UNL     1      -7.194  -2.646 124.905  0.00  0.00    +0.000 A 
ATOM     43 CL   UNL     1      -6.436  -1.932 123.498  0.00  0.00    +0.000 Cl
ATOM     44  C   UNL     1      -6.662  -2.256 126.160  0.00  0.00    +0.000 A 
ENDBRANCH  36  37
ENDBRANCH  30  36
ENDBRANCH  28  30
ENDBRANCH  25  26
ENDBRANCH  10  25
TORSDOF 9
ENDMDL
