MODEL 1
REMARK VINA RESULT:     -10.4      0.000      0.000
REMARK  Name = CHEMBL105406
REMARK  8 active torsions:
REMARK  status: ('A' for Active; 'I' for Inactive)
REMARK    1  A    between atoms: C_1  and  O_2
REMARK    2  A    between atoms: O_2  and  C_3
REMARK    3  A    between atoms: C_5  and  O_6
REMARK    4  A    between atoms: O_6  and  C_7
REMARK    5  A    between atoms: C_7  and  C_8
REMARK    6  A    between atoms: C_7  and  C_9
REMARK    7  A    between atoms: C_17  and  C_18
REMARK    8  A    between atoms: C_23  and  N_24
REMARK                            x       y       z     vdW  Elec       q    Type
REMARK                         _______ _______ _______ _____ _____    ______ ____
ROOT
ATOM      1  C   UNL     1      -6.785   1.396 128.941  0.00  0.00    +0.000 C 
ATOM      2  O   UNL     1      -5.562   1.246 129.043  0.00  0.00    +0.000 OA
ATOM      3  N   UNL     1      -7.448   2.374 129.736  0.00  0.00    +0.000 N 
ATOM      4  C   UNL     1      -7.038   3.803 129.559  0.00  0.00    +0.000 C 
ATOM      5  C   UNL     1      -7.159   4.604 130.821  0.00  0.00    +0.000 C 
ATOM      6  C   UNL     1      -8.870   4.788 131.193  0.00  0.00    +0.000 C 
ATOM      7  C   UNL     1      -8.989   3.067 131.544  0.00  0.00    +0.000 C 
ATOM      8  C   UNL     1      -8.772   2.154 130.357  0.00  0.00    +0.000 C 
ENDROOT
BRANCH   6   9
ATOM      9  N   UNL     1      -9.654   6.251 130.363  0.00  0.00    +0.000 N 
ATOM     10  C   UNL     1     -10.491   6.231 131.522  0.00  0.00    +0.000 C 
ATOM     11  O   UNL     1     -10.133   6.295 132.747  0.00  0.00    +0.000 OA
ATOM     12  O   UNL     1     -11.745   5.882 131.341  0.00  0.00    +0.000 OA
ATOM     13  C   UNL     1     -12.238   7.161 131.227  0.00  0.00    +0.000 C 
ATOM     14  C   UNL     1     -12.189   7.065 129.772  0.00  0.00    +0.000 A 
ATOM     15  C   UNL     1     -13.403   6.907 129.025  0.00  0.00    +0.000 A 
ATOM     16  C   UNL     1     -13.590   7.366 127.741  0.00  0.00    +0.000 A 
ATOM     17  C   UNL     1     -12.616   8.255 127.401  0.00  0.00    +0.000 A 
ATOM     18  C   UNL     1     -11.252   8.128 128.166  0.00  0.00    +0.000 A 
ATOM     19  C   UNL     1     -10.918   7.004 129.227  0.00  0.00    +0.000 A 
ENDBRANCH   6   9
BRANCH   1  25
ATOM     20  C   UNL     1      -7.740  -0.785 127.782  0.00  0.00    +0.000 A 
ATOM     21  C   UNL     1      -8.419  -1.361 126.693  0.00  0.00    +0.000 A 
ATOM     22  C   UNL     1      -8.900  -0.592 125.645  0.00  0.00    +0.000 A 
ATOM     23  C   UNL     1      -8.850   0.784 125.782  0.00  0.00    +0.000 A 
ATOM     24  C   UNL     1      -8.097   1.373 126.809  0.00  0.00    +0.000 A 
ATOM     25  C   UNL     1      -7.493   0.604 127.838  0.00  0.00    +0.000 A 
BRANCH  20  27
ATOM     26  C   UNL     1      -8.093  -2.965 128.512  0.00  0.00    +0.000 C 
ATOM     27  O   UNL     1      -7.351  -1.772 128.653  0.00  0.00    +0.000 OA
ENDBRANCH  20  27
BRANCH  22  28
ATOM     28  O   UNL     1      -9.324  -1.268 124.535  0.00  0.00    +0.000 OA
BRANCH  28  29
ATOM     29  C   UNL     1      -8.976  -2.660 124.419  0.00  0.00    +0.000 C 
ATOM     30  C   UNL     1      -9.873  -3.476 123.466  0.00  0.00    +0.000 C 
BRANCH  29  31
ATOM     31  C   UNL     1      -7.551  -2.733 123.907  0.00  0.00    +0.000 A 
ATOM     32  C   UNL     1      -6.577  -3.535 124.519  0.00  0.00    +0.000 A 
ATOM     33  C   UNL     1      -5.279  -3.556 124.026  0.00  0.00    +0.000 A 
ATOM     34  C   UNL     1      -4.993  -2.781 122.918  0.00  0.00    +0.000 A 
ATOM     35  N   UNL     1      -5.894  -1.985 122.303  0.00  0.00    +0.000 NA
ATOM     36  C   UNL     1      -7.148  -1.979 122.810  0.00  0.00    +0.000 A 
ENDBRANCH  29  31
ENDBRANCH  28  29
ENDBRANCH  22  28
ENDBRANCH   1  25
TORSDOF 6
ENDMDL
MODEL 2
REMARK VINA RESULT:     -10.1      2.117      3.160
REMARK  Name = CHEMBL105406
REMARK  8 active torsions:
REMARK  status: ('A' for Active; 'I' for Inactive)
REMARK    1  A    between atoms: C_1  and  O_2
REMARK    2  A    between atoms: O_2  and  C_3
REMARK    3  A    between atoms: C_5  and  O_6
REMARK    4  A    between atoms: O_6  and  C_7
REMARK    5  A    between atoms: C_7  and  C_8
REMARK    6  A    between atoms: C_7  and  C_9
REMARK    7  A    between atoms: C_17  and  C_18
REMARK    8  A    between atoms: C_23  and  N_24
REMARK                            x       y       z     vdW  Elec       q    Type
REMARK                         _______ _______ _______ _____ _____    ______ ____
ROOT
ATOM      1  C   UNL     1      -4.862   3.151 129.879  0.00  0.00    +0.000 C 
ATOM      2  O   UNL     1      -3.708   3.340 130.281  0.00  0.00    +0.000 OA
ATOM      3  N   UNL     1      -5.953   3.799 130.524  0.00  0.00    +0.000 N 
ATOM      4  C   UNL     1      -5.966   5.296 130.525  0.00  0.00    +0.000 C 
ATOM      5  C   UNL     1      -6.610   5.871 131.752  0.00  0.00    +0.000 C 
ATOM      6  C   UNL     1      -8.333   5.520 131.685  0.00  0.00    +0.000 C 
ATOM      7  C   UNL     1      -8.002   3.806 131.913  0.00  0.00    +0.000 C 
ATOM      8  C   UNL     1      -7.253   3.141 130.777  0.00  0.00    +0.000 C 
ENDROOT
BRANCH   6   9
ATOM      9  N   UNL     1      -9.312   6.791 130.753  0.00  0.00    +0.000 N 
ATOM     10  C   UNL     1     -10.311   6.471 131.724  0.00  0.00    +0.000 C 
ATOM     11  O   UNL     1     -10.213   6.531 132.996  0.00  0.00    +0.000 OA
ATOM     12  O   UNL     1     -11.372   5.827 131.292  0.00  0.00    +0.000 OA
ATOM     13  C   UNL     1     -12.158   6.942 131.114  0.00  0.00    +0.000 C 
ATOM     14  C   UNL     1     -11.820   6.971 129.696  0.00  0.00    +0.000 A 
ATOM     15  C   UNL     1     -12.790   6.565 128.720  0.00  0.00    +0.000 A 
ATOM     16  C   UNL     1     -12.854   7.055 127.437  0.00  0.00    +0.000 A 
ATOM     17  C   UNL     1     -12.106   8.187 127.316  0.00  0.00    +0.000 A 
ATOM     18  C   UNL     1     -10.921   8.356 128.331  0.00  0.00    +0.000 A 
ATOM     19  C   UNL     1     -10.500   7.279 129.410  0.00  0.00    +0.000 A 
ENDBRANCH   6   9
BRANCH   1  25
ATOM     20  C   UNL     1      -4.498   2.600 127.314  0.00  0.00    +0.000 A 
ATOM     21  C   UNL     1      -4.734   1.732 126.232  0.00  0.00    +0.000 A 
ATOM     22  C   UNL     1      -5.466   0.565 126.381  0.00  0.00    +0.000 A 
ATOM     23  C   UNL     1      -5.812   0.182 127.665  0.00  0.00    +0.000 A 
ATOM     24  C   UNL     1      -5.670   1.074 128.739  0.00  0.00    +0.000 A 
ATOM     25  C   UNL     1      -5.025   2.330 128.596  0.00  0.00    +0.000 A 
BRANCH  20  27
ATOM     26  C   UNL     1      -2.380   3.494 126.959  0.00  0.00    +0.000 C 
ATOM     27  O   UNL     1      -3.778   3.685 126.882  0.00  0.00    +0.000 OA
ENDBRANCH  20  27
BRANCH  22  28
ATOM     28  O   UNL     1      -5.839  -0.074 125.231  0.00  0.00    +0.000 OA
BRANCH  28  29
ATOM     29  C   UNL     1      -7.119   0.255 124.660  0.00  0.00    +0.000 C 
ATOM     30  C   UNL     1      -7.056   1.069 123.352  0.00  0.00    +0.000 C 
BRANCH  29  31
ATOM     31  C   UNL     1      -7.839  -1.048 124.374  0.00  0.00    +0.000 A 
ATOM     32  C   UNL     1      -7.389  -2.278 124.878  0.00  0.00    +0.000 A 
ATOM     33  C   UNL     1      -8.071  -3.448 124.575  0.00  0.00    +0.000 A 
ATOM     34  C   UNL     1      -9.201  -3.355 123.785  0.00  0.00    +0.000 A 
ATOM     35  N   UNL     1      -9.666  -2.196 123.268  0.00  0.00    +0.000 NA
ATOM     36  C   UNL     1      -8.976  -1.073 123.574  0.00  0.00    +0.000 A 
ENDBRANCH  29  31
ENDBRANCH  28  29
ENDBRANCH  22  28
ENDBRANCH   1  25
TORSDOF 6
ENDMDL
MODEL 3
REMARK VINA RESULT:     -10.0      2.111      2.987
REMARK  Name = CHEMBL105406
REMARK  8 active torsions:
REMARK  status: ('A' for Active; 'I' for Inactive)
REMARK    1  A    between atoms: C_1  and  O_2
REMARK    2  A    between atoms: O_2  and  C_3
REMARK    3  A    between atoms: C_5  and  O_6
REMARK    4  A    between atoms: O_6  and  C_7
REMARK    5  A    between atoms: C_7  and  C_8
REMARK    6  A    between atoms: C_7  and  C_9
REMARK    7  A    between atoms: C_17  and  C_18
REMARK    8  A    between atoms: C_23  and  N_24
REMARK                            x       y       z     vdW  Elec       q    Type
REMARK                         _______ _______ _______ _____ _____    ______ ____
ROOT
ATOM      1  C   UNL     1      -5.464   2.944 128.102  0.00  0.00    +0.000 C 
ATOM      2  O   UNL     1      -4.236   3.014 128.220  0.00  0.00    +0.000 OA
ATOM      3  N   UNL     1      -6.307   3.554 129.074  0.00  0.00    +0.000 N 
ATOM      4  C   UNL     1      -6.191   5.035 129.258  0.00  0.00    +0.000 C 
ATOM      5  C   UNL     1      -6.466   5.470 130.666  0.00  0.00    +0.000 C 
ATOM      6  C   UNL     1      -8.178   5.223 130.993  0.00  0.00    +0.000 C 
ATOM      7  C   UNL     1      -7.950   3.480 130.923  0.00  0.00    +0.000 C 
ATOM      8  C   UNL     1      -7.559   2.938 129.565  0.00  0.00    +0.000 C 
ENDROOT
BRANCH   6   9
ATOM      9  N   UNL     1      -9.240   6.662 130.496  0.00  0.00    +0.000 N 
ATOM     10  C   UNL     1      -9.980   6.285 131.660  0.00  0.00    +0.000 C 
ATOM     11  O   UNL     1      -9.552   6.177 132.859  0.00  0.00    +0.000 OA
ATOM     12  O   UNL     1     -11.173   5.768 131.463  0.00  0.00    +0.000 OA
ATOM     13  C   UNL     1     -11.868   6.945 131.621  0.00  0.00    +0.000 C 
ATOM     14  C   UNL     1     -11.907   7.131 130.175  0.00  0.00    +0.000 A 
ATOM     15  C   UNL     1     -13.131   6.914 129.458  0.00  0.00    +0.000 A 
ATOM     16  C   UNL     1     -13.477   7.566 128.297  0.00  0.00    +0.000 A 
ATOM     17  C   UNL     1     -12.683   8.655 128.101  0.00  0.00    +0.000 A 
ATOM     18  C   UNL     1     -11.266   8.619 128.773  0.00  0.00    +0.000 A 
ATOM     19  C   UNL     1     -10.684   7.389 129.580  0.00  0.00    +0.000 A 
ENDBRANCH   6   9
BRANCH   1  25
ATOM     20  C   UNL     1      -6.748   2.938 125.785  0.00  0.00    +0.000 A 
ATOM     21  C   UNL     1      -7.164   2.218 124.650  0.00  0.00    +0.000 A 
ATOM     22  C   UNL     1      -6.837   0.883 124.474  0.00  0.00    +0.000 A 
ATOM     23  C   UNL     1      -5.939   0.318 125.363  0.00  0.00    +0.000 A 
ATOM     24  C   UNL     1      -5.590   0.985 126.547  0.00  0.00    +0.000 A 
ATOM     25  C   UNL     1      -6.003   2.317 126.812  0.00  0.00    +0.000 A 
BRANCH  20  27
ATOM     26  C   UNL     1      -6.314   5.134 125.155  0.00  0.00    +0.000 C 
ATOM     27  O   UNL     1      -7.232   4.220 125.717  0.00  0.00    +0.000 OA
ENDBRANCH  20  27
BRANCH  22  28
ATOM     28  O   UNL     1      -7.487   0.221 123.469  0.00  0.00    +0.000 OA
BRANCH  28  29
ATOM     29  C   UNL     1      -8.819  -0.257 123.728  0.00  0.00    +0.000 C 
ATOM     30  C   UNL     1      -9.661  -0.544 122.468  0.00  0.00    +0.000 C 
BRANCH  29  31
ATOM     31  C   UNL     1      -8.696  -1.544 124.520  0.00  0.00    +0.000 A 
ATOM     32  C   UNL     1      -8.222  -2.733 123.947  0.00  0.00    +0.000 A 
ATOM     33  C   UNL     1      -8.143  -3.892 124.707  0.00  0.00    +0.000 A 
ATOM     34  C   UNL     1      -8.527  -3.826 126.033  0.00  0.00    +0.000 A 
ATOM     35  N   UNL     1      -9.000  -2.708 126.626  0.00  0.00    +0.000 NA
ATOM     36  C   UNL     1      -9.073  -1.596 125.858  0.00  0.00    +0.000 A 
ENDBRANCH  29  31
ENDBRANCH  28  29
ENDBRANCH  22  28
ENDBRANCH   1  25
TORSDOF 6
ENDMDL
MODEL 4
REMARK VINA RESULT:      -9.9      1.604      2.272
REMARK  Name = CHEMBL105406
REMARK  8 active torsions:
REMARK  status: ('A' for Active; 'I' for Inactive)
REMARK    1  A    between atoms: C_1  and  O_2
REMARK    2  A    between atoms: O_2  and  C_3
REMARK    3  A    between atoms: C_5  and  O_6
REMARK    4  A    between atoms: O_6  and  C_7
REMARK    5  A    between atoms: C_7  and  C_8
REMARK    6  A    between atoms: C_7  and  C_9
REMARK    7  A    between atoms: C_17  and  C_18
REMARK    8  A    between atoms: C_23  and  N_24
REMARK                            x       y       z     vdW  Elec       q    Type
REMARK                         _______ _______ _______ _____ _____    ______ ____
ROOT
ATOM      1  C   UNL     1      -6.381   2.022 129.183  0.00  0.00    +0.000 C 
ATOM      2  O   UNL     1      -5.146   1.971 129.139  0.00  0.00    +0.000 OA
ATOM      3  N   UNL     1      -7.022   2.991 130.007  0.00  0.00    +0.000 N 
ATOM      4  C   UNL     1      -6.755   4.434 129.712  0.00  0.00    +0.000 C 
ATOM      5  C   UNL     1      -6.789   5.295 130.939  0.00  0.00    +0.000 C 
ATOM      6  C   UNL     1      -8.452   5.370 131.512  0.00  0.00    +0.000 C 
ATOM      7  C   UNL     1      -8.385   3.668 131.958  0.00  0.00    +0.000 C 
ATOM      8  C   UNL     1      -8.239   2.707 130.798  0.00  0.00    +0.000 C 
ENDROOT
BRANCH   6   9
ATOM      9  N   UNL     1      -9.448   6.719 130.717  0.00  0.00    +0.000 N 
ATOM     10  C   UNL     1     -10.374   6.401 131.758  0.00  0.00    +0.000 C 
ATOM     11  O   UNL     1     -10.166   6.405 133.019  0.00  0.00    +0.000 OA
ATOM     12  O   UNL     1     -11.497   5.820 131.397  0.00  0.00    +0.000 OA
ATOM     13  C   UNL     1     -12.243   6.973 131.330  0.00  0.00    +0.000 C 
ATOM     14  C   UNL     1     -12.026   7.046 129.889  0.00  0.00    +0.000 A 
ATOM     15  C   UNL     1     -13.094   6.721 128.988  0.00  0.00    +0.000 A 
ATOM     16  C   UNL     1     -13.244   7.266 127.734  0.00  0.00    +0.000 A 
ATOM     17  C   UNL     1     -12.459   8.370 127.591  0.00  0.00    +0.000 A 
ATOM     18  C   UNL     1     -11.186   8.448 128.505  0.00  0.00    +0.000 A 
ATOM     19  C   UNL     1     -10.723   7.310 129.501  0.00  0.00    +0.000 A 
ENDBRANCH   6   9
BRANCH   1  25
ATOM     20  C   UNL     1      -7.029  -0.282 128.048  0.00  0.00    +0.000 A 
ATOM     21  C   UNL     1      -7.823  -0.973 127.115  0.00  0.00    +0.000 A 
ATOM     22  C   UNL     1      -8.774  -0.324 126.344  0.00  0.00    +0.000 A 
ATOM     23  C   UNL     1      -9.048   1.000 126.641  0.00  0.00    +0.000 A 
ATOM     24  C   UNL     1      -8.208   1.729 127.497  0.00  0.00    +0.000 A 
ATOM     25  C   UNL     1      -7.149   1.116 128.217  0.00  0.00    +0.000 A 
BRANCH  20  27
ATOM     26  C   UNL     1      -5.354  -1.861 127.724  0.00  0.00    +0.000 C 
ATOM     27  O   UNL     1      -6.158  -1.157 128.647  0.00  0.00    +0.000 OA
ENDBRANCH  20  27
BRANCH  22  28
ATOM     28  O   UNL     1      -9.313  -1.037 125.310  0.00  0.00    +0.000 OA
BRANCH  28  29
ATOM     29  C   UNL     1      -8.543  -1.158 124.100  0.00  0.00    +0.000 C 
ATOM     30  C   UNL     1      -9.170  -2.061 123.019  0.00  0.00    +0.000 C 
BRANCH  29  31
ATOM     31  C   UNL     1      -8.381   0.233 123.521  0.00  0.00    +0.000 A 
ATOM     32  C   UNL     1      -9.471   0.980 123.051  0.00  0.00    +0.000 A 
ATOM     33  C   UNL     1      -9.272   2.244 122.512  0.00  0.00    +0.000 A 
ATOM     34  C   UNL     1      -7.982   2.737 122.473  0.00  0.00    +0.000 A 
ATOM     35  N   UNL     1      -6.900   2.051 122.902  0.00  0.00    +0.000 NA
ATOM     36  C   UNL     1      -7.123   0.819 123.415  0.00  0.00    +0.000 A 
ENDBRANCH  29  31
ENDBRANCH  28  29
ENDBRANCH  22  28
ENDBRANCH   1  25
TORSDOF 6
ENDMDL
MODEL 5
REMARK VINA RESULT:      -9.8      3.943     10.499
REMARK  Name = CHEMBL105406
REMARK  8 active torsions:
REMARK  status: ('A' for Active; 'I' for Inactive)
REMARK    1  A    between atoms: C_1  and  O_2
REMARK    2  A    between atoms: O_2  and  C_3
REMARK    3  A    between atoms: C_5  and  O_6
REMARK    4  A    between atoms: O_6  and  C_7
REMARK    5  A    between atoms: C_7  and  C_8
REMARK    6  A    between atoms: C_7  and  C_9
REMARK    7  A    between atoms: C_17  and  C_18
REMARK    8  A    between atoms: C_23  and  N_24
REMARK                            x       y       z     vdW  Elec       q    Type
REMARK                         _______ _______ _______ _____ _____    ______ ____
ROOT
ATOM      1  C   UNL     1      -6.249   4.913 125.597  0.00  0.00    +0.000 C 
ATOM      2  O   UNL     1      -6.151   6.018 125.052  0.00  0.00    +0.000 OA
ATOM      3  N   UNL     1      -7.019   3.885 124.982  0.00  0.00    +0.000 N 
ATOM      4  C   UNL     1      -6.593   3.420 123.624  0.00  0.00    +0.000 C 
ATOM      5  C   UNL     1      -7.745   2.976 122.773  0.00  0.00    +0.000 C 
ATOM      6  C   UNL     1      -8.388   1.485 123.453  0.00  0.00    +0.000 C 
ATOM      7  C   UNL     1      -8.970   2.367 124.861  0.00  0.00    +0.000 C 
ATOM      8  C   UNL     1      -7.888   2.958 125.739  0.00  0.00    +0.000 C 
ENDROOT
BRANCH   6   9
ATOM      9  N   UNL     1      -7.531  -0.040 122.833  0.00  0.00    +0.000 N 
ATOM     10  C   UNL     1      -8.750  -0.669 123.236  0.00  0.00    +0.000 C 
ATOM     11  O   UNL     1      -9.938  -0.391 122.855  0.00  0.00    +0.000 OA
ATOM     12  O   UNL     1      -8.689  -1.466 124.279  0.00  0.00    +0.000 OA
ATOM     13  C   UNL     1      -8.534  -2.631 123.563  0.00  0.00    +0.000 C 
ATOM     14  C   UNL     1      -7.089  -2.570 123.751  0.00  0.00    +0.000 A 
ATOM     15  C   UNL     1      -6.448  -3.464 124.672  0.00  0.00    +0.000 A 
ATOM     16  C   UNL     1      -5.157  -3.920 124.540  0.00  0.00    +0.000 A 
ATOM     17  C   UNL     1      -4.688  -3.684 123.284  0.00  0.00    +0.000 A 
ATOM     18  C   UNL     1      -5.352  -2.498 122.499  0.00  0.00    +0.000 A 
ATOM     19  C   UNL     1      -6.452  -1.530 123.094  0.00  0.00    +0.000 A 
ENDBRANCH   6   9
BRANCH   1  25
ATOM     20  C   UNL     1      -5.827   4.598 128.192  0.00  0.00    +0.000 A 
ATOM     21  C   UNL     1      -4.912   4.365 129.236  0.00  0.00    +0.000 A 
ATOM     22  C   UNL     1      -3.562   4.173 128.991  0.00  0.00    +0.000 A 
ATOM     23  C   UNL     1      -3.159   4.042 127.673  0.00  0.00    +0.000 A 
ATOM     24  C   UNL     1      -4.033   4.364 126.624  0.00  0.00    +0.000 A 
ATOM     25  C   UNL     1      -5.399   4.678 126.849  0.00  0.00    +0.000 A 
BRANCH  20  27
ATOM     26  C   UNL     1      -7.088   4.890 130.124  0.00  0.00    +0.000 C 
ATOM     27  O   UNL     1      -7.082   4.781 128.716  0.00  0.00    +0.000 OA
ENDBRANCH  20  27
BRANCH  22  28
ATOM     28  O   UNL     1      -2.734   4.196 130.079  0.00  0.00    +0.000 OA
BRANCH  28  29
ATOM     29  C   UNL     1      -3.303   4.549 131.353  0.00  0.00    +0.000 C 
ATOM     30  C   UNL     1      -3.240   3.439 132.421  0.00  0.00    +0.000 C 
BRANCH  29  31
ATOM     31  C   UNL     1      -2.545   5.754 131.873  0.00  0.00    +0.000 A 
ATOM     32  C   UNL     1      -1.202   5.678 132.271  0.00  0.00    +0.000 A 
ATOM     33  C   UNL     1      -0.553   6.804 132.758  0.00  0.00    +0.000 A 
ATOM     34  C   UNL     1      -1.265   7.988 132.820  0.00  0.00    +0.000 A 
ATOM     35  N   UNL     1      -2.561   8.107 132.459  0.00  0.00    +0.000 NA
ATOM     36  C   UNL     1      -3.169   6.991 131.996  0.00  0.00    +0.000 A 
ENDBRANCH  29  31
ENDBRANCH  28  29
ENDBRANCH  22  28
ENDBRANCH   1  25
TORSDOF 6
ENDMDL
MODEL 6
REMARK VINA RESULT:      -9.8      1.598      2.691
REMARK  Name = CHEMBL105406
REMARK  8 active torsions:
REMARK  status: ('A' for Active; 'I' for Inactive)
REMARK    1  A    between atoms: C_1  and  O_2
REMARK    2  A    between atoms: O_2  and  C_3
REMARK    3  A    between atoms: C_5  and  O_6
REMARK    4  A    between atoms: O_6  and  C_7
REMARK    5  A    between atoms: C_7  and  C_8
REMARK    6  A    between atoms: C_7  and  C_9
REMARK    7  A    between atoms: C_17  and  C_18
REMARK    8  A    between atoms: C_23  and  N_24
REMARK                            x       y       z     vdW  Elec       q    Type
REMARK                         _______ _______ _______ _____ _____    ______ ____
ROOT
ATOM      1  C   UNL     1      -6.426   0.957 131.170  0.00  0.00    +0.000 C 
ATOM      2  O   UNL     1      -5.432   0.883 131.902  0.00  0.00    +0.000 OA
ATOM      3  N   UNL     1      -7.423   1.941 131.425  0.00  0.00    +0.000 N 
ATOM      4  C   UNL     1      -7.006   3.378 131.372  0.00  0.00    +0.000 C 
ATOM      5  C   UNL     1      -7.781   4.244 132.320  0.00  0.00    +0.000 C 
ATOM      6  C   UNL     1      -9.438   4.353 131.736  0.00  0.00    +0.000 C 
ATOM      7  C   UNL     1      -9.692   2.652 132.112  0.00  0.00    +0.000 C 
ATOM      8  C   UNL     1      -8.873   1.684 131.286  0.00  0.00    +0.000 C 
ENDROOT
BRANCH   6   9
ATOM      9  N   UNL     1      -9.700   5.717 130.505  0.00  0.00    +0.000 N 
ATOM     10  C   UNL     1     -10.673   6.146 131.461  0.00  0.00    +0.000 C 
ATOM     11  O   UNL     1     -10.492   6.413 132.697  0.00  0.00    +0.000 OA
ATOM     12  O   UNL     1     -11.936   6.042 131.109  0.00  0.00    +0.000 OA
ATOM     13  C   UNL     1     -12.069   7.335 130.659  0.00  0.00    +0.000 C 
ATOM     14  C   UNL     1     -11.837   6.896 129.287  0.00  0.00    +0.000 A 
ATOM     15  C   UNL     1     -12.930   6.834 128.361  0.00  0.00    +0.000 A 
ATOM     16  C   UNL     1     -12.808   7.012 127.002  0.00  0.00    +0.000 A 
ATOM     17  C   UNL     1     -11.603   7.568 126.695  0.00  0.00    +0.000 A 
ATOM     18  C   UNL     1     -10.441   7.332 127.722  0.00  0.00    +0.000 A 
ATOM     19  C   UNL     1     -10.556   6.439 129.023  0.00  0.00    +0.000 A 
ENDBRANCH   6   9
BRANCH   1  25
ATOM     20  C   UNL     1      -5.771   0.258 128.701  0.00  0.00    +0.000 A 
ATOM     21  C   UNL     1      -5.883  -0.673 127.652  0.00  0.00    +0.000 A 
ATOM     22  C   UNL     1      -6.630  -1.833 127.784  0.00  0.00    +0.000 A 
ATOM     23  C   UNL     1      -7.122  -2.141 129.040  0.00  0.00    +0.000 A 
ATOM     24  C   UNL     1      -7.102  -1.187 130.069  0.00  0.00    +0.000 A 
ATOM     25  C   UNL     1      -6.443   0.062 129.928  0.00  0.00    +0.000 A 
BRANCH  20  27
ATOM     26  C   UNL     1      -5.761   2.379 127.749  0.00  0.00    +0.000 C 
ATOM     27  O   UNL     1      -5.003   1.319 128.291  0.00  0.00    +0.000 OA
ENDBRANCH  20  27
BRANCH  22  28
ATOM     28  O   UNL     1      -6.869  -2.540 126.639  0.00  0.00    +0.000 OA
BRANCH  28  29
ATOM     29  C   UNL     1      -6.289  -2.056 125.413  0.00  0.00    +0.000 C 
ATOM     30  C   UNL     1      -5.348  -3.050 124.704  0.00  0.00    +0.000 C 
BRANCH  29  31
ATOM     31  C   UNL     1      -7.428  -1.724 124.469  0.00  0.00    +0.000 A 
ATOM     32  C   UNL     1      -8.179  -2.718 123.824  0.00  0.00    +0.000 A 
ATOM     33  C   UNL     1      -9.201  -2.367 122.954  0.00  0.00    +0.000 A 
ATOM     34  C   UNL     1      -9.459  -1.022 122.764  0.00  0.00    +0.000 A 
ATOM     35  N   UNL     1      -8.756  -0.030 123.353  0.00  0.00    +0.000 NA
ATOM     36  C   UNL     1      -7.761  -0.403 124.190  0.00  0.00    +0.000 A 
ENDBRANCH  29  31
ENDBRANCH  28  29
ENDBRANCH  22  28
ENDBRANCH   1  25
TORSDOF 6
ENDMDL
MODEL 7
REMARK VINA RESULT:      -9.3      1.688      2.354
REMARK  Name = CHEMBL105406
REMARK  8 active torsions:
REMARK  status: ('A' for Active; 'I' for Inactive)
REMARK    1  A    between atoms: C_1  and  O_2
REMARK    2  A    between atoms: O_2  and  C_3
REMARK    3  A    between atoms: C_5  and  O_6
REMARK    4  A    between atoms: O_6  and  C_7
REMARK    5  A    between atoms: C_7  and  C_8
REMARK    6  A    between atoms: C_7  and  C_9
REMARK    7  A    between atoms: C_17  and  C_18
REMARK    8  A    between atoms: C_23  and  N_24
REMARK                            x       y       z     vdW  Elec       q    Type
REMARK                         _______ _______ _______ _____ _____    ______ ____
ROOT
ATOM      1  C   UNL     1      -6.392   1.106 131.539  0.00  0.00    +0.000 C 
ATOM      2  O   UNL     1      -5.383   1.083 132.252  0.00  0.00    +0.000 OA
ATOM      3  N   UNL     1      -7.400   2.086 131.767  0.00  0.00    +0.000 N 
ATOM      4  C   UNL     1      -7.008   3.525 131.634  0.00  0.00    +0.000 C 
ATOM      5  C   UNL     1      -7.777   4.425 132.554  0.00  0.00    +0.000 C 
ATOM      6  C   UNL     1      -9.447   4.479 132.002  0.00  0.00    +0.000 C 
ATOM      7  C   UNL     1      -9.665   2.795 132.467  0.00  0.00    +0.000 C 
ATOM      8  C   UNL     1      -8.848   1.799 131.672  0.00  0.00    +0.000 C 
ENDROOT
BRANCH   6   9
ATOM      9  N   UNL     1      -9.758   5.776 130.711  0.00  0.00    +0.000 N 
ATOM     10  C   UNL     1     -10.693   6.257 131.679  0.00  0.00    +0.000 C 
ATOM     11  O   UNL     1     -10.464   6.589 132.891  0.00  0.00    +0.000 OA
ATOM     12  O   UNL     1     -11.968   6.136 131.382  0.00  0.00    +0.000 OA
ATOM     13  C   UNL     1     -12.119   7.404 130.870  0.00  0.00    +0.000 C 
ATOM     14  C   UNL     1     -11.940   6.892 129.516  0.00  0.00    +0.000 A 
ATOM     15  C   UNL     1     -13.069   6.783 128.637  0.00  0.00    +0.000 A 
ATOM     16  C   UNL     1     -13.000   6.887 127.267  0.00  0.00    +0.000 A 
ATOM     17  C   UNL     1     -11.808   7.424 126.884  0.00  0.00    +0.000 A 
ATOM     18  C   UNL     1     -10.606   7.241 127.876  0.00  0.00    +0.000 A 
ATOM     19  C   UNL     1     -10.671   6.419 129.226  0.00  0.00    +0.000 A 
ENDBRANCH   6   9
BRANCH   1  25
ATOM     20  C   UNL     1      -6.162  -1.239 130.330  0.00  0.00    +0.000 A 
ATOM     21  C   UNL     1      -6.240  -1.983 129.138  0.00  0.00    +0.000 A 
ATOM     22  C   UNL     1      -6.601  -1.396 127.935  0.00  0.00    +0.000 A 
ATOM     23  C   UNL     1      -7.055  -0.089 127.968  0.00  0.00    +0.000 A 
ATOM     24  C   UNL     1      -6.897   0.694 129.122  0.00  0.00    +0.000 A 
ATOM     25  C   UNL     1      -6.420   0.149 130.344  0.00  0.00    +0.000 A 
BRANCH  20  27
ATOM     26  C   UNL     1      -6.494  -3.259 131.433  0.00  0.00    +0.000 C 
ATOM     27  O   UNL     1      -5.757  -2.057 131.354  0.00  0.00    +0.000 OA
ENDBRANCH  20  27
BRANCH  22  28
ATOM     28  O   UNL     1      -6.411  -2.146 126.808  0.00  0.00    +0.000 OA
BRANCH  28  29
ATOM     29  C   UNL     1      -7.437  -3.088 126.443  0.00  0.00    +0.000 C 
ATOM     30  C   UNL     1      -8.660  -3.111 127.382  0.00  0.00    +0.000 C 
BRANCH  29  31
ATOM     31  C   UNL     1      -7.914  -2.725 125.051  0.00  0.00    +0.000 A 
ATOM     32  C   UNL     1      -9.010  -3.358 124.447  0.00  0.00    +0.000 A 
ATOM     33  C   UNL     1      -9.400  -3.006 123.162  0.00  0.00    +0.000 A 
ATOM     34  C   UNL     1      -8.688  -2.012 122.518  0.00  0.00    +0.000 A 
ATOM     35  N   UNL     1      -7.619  -1.382 123.053  0.00  0.00    +0.000 NA
ATOM     36  C   UNL     1      -7.258  -1.752 124.303  0.00  0.00    +0.000 A 
ENDBRANCH  29  31
ENDBRANCH  28  29
ENDBRANCH  22  28
ENDBRANCH   1  25
TORSDOF 6
ENDMDL
MODEL 8
REMARK VINA RESULT:      -9.2      6.882     10.869
REMARK  Name = CHEMBL105406
REMARK  8 active torsions:
REMARK  status: ('A' for Active; 'I' for Inactive)
REMARK    1  A    between atoms: C_1  and  O_2
REMARK    2  A    between atoms: O_2  and  C_3
REMARK    3  A    between atoms: C_5  and  O_6
REMARK    4  A    between atoms: O_6  and  C_7
REMARK    5  A    between atoms: C_7  and  C_8
REMARK    6  A    between atoms: C_7  and  C_9
REMARK    7  A    between atoms: C_17  and  C_18
REMARK    8  A    between atoms: C_23  and  N_24
REMARK                            x       y       z     vdW  Elec       q    Type
REMARK                         _______ _______ _______ _____ _____    ______ ____
ROOT
ATOM      1  C   UNL     1      -3.685   5.332 132.266  0.00  0.00    +0.000 C 
ATOM      2  O   UNL     1      -3.313   4.328 131.647  0.00  0.00    +0.000 OA
ATOM      3  N   UNL     1      -2.722   6.197 132.861  0.00  0.00    +0.000 N 
ATOM      4  C   UNL     1      -1.731   6.856 131.953  0.00  0.00    +0.000 C 
ATOM      5  C   UNL     1      -0.403   7.084 132.611  0.00  0.00    +0.000 C 
ATOM      6  C   UNL     1      -0.605   8.322 133.845  0.00  0.00    +0.000 C 
ATOM      7  C   UNL     1      -1.583   7.218 134.806  0.00  0.00    +0.000 C 
ATOM      8  C   UNL     1      -2.908   6.829 134.185  0.00  0.00    +0.000 C 
ENDROOT
BRANCH   6   9
ATOM      9  N   UNL     1      -0.416  10.051 133.197  0.00  0.00    +0.000 N 
ATOM     10  C   UNL     1       0.011  10.313 134.535  0.00  0.00    +0.000 C 
ATOM     11  O   UNL     1       0.964   9.752 135.177  0.00  0.00    +0.000 OA
ATOM     12  O   UNL     1      -0.790  11.040 135.282  0.00  0.00    +0.000 OA
ATOM     13  C   UNL     1      -0.166  12.241 135.038  0.00  0.00    +0.000 C 
ATOM     14  C   UNL     1      -1.142  12.554 134.000  0.00  0.00    +0.000 A 
ATOM     15  C   UNL     1      -2.160  13.534 134.247  0.00  0.00    +0.000 A 
ATOM     16  C   UNL     1      -2.733  14.321 133.275  0.00  0.00    +0.000 A 
ATOM     17  C   UNL     1      -1.995  14.286 132.130  0.00  0.00    +0.000 A 
ATOM     18  C   UNL     1      -1.107  13.011 131.908  0.00  0.00    +0.000 A 
ATOM     19  C   UNL     1      -1.078  11.756 132.870  0.00  0.00    +0.000 A 
ENDBRANCH   6   9
BRANCH   1  25
ATOM     20  C   UNL     1      -6.180   5.299 133.153  0.00  0.00    +0.000 A 
ATOM     21  C   UNL     1      -7.519   5.691 132.972  0.00  0.00    +0.000 A 
ATOM     22  C   UNL     1      -7.911   6.470 131.894  0.00  0.00    +0.000 A 
ATOM     23  C   UNL     1      -6.918   7.002 131.091  0.00  0.00    +0.000 A 
ATOM     24  C   UNL     1      -5.593   6.550 131.197  0.00  0.00    +0.000 A 
ATOM     25  C   UNL     1      -5.180   5.660 132.223  0.00  0.00    +0.000 A 
BRANCH  20  27
ATOM     26  C   UNL     1      -6.623   5.122 135.429  0.00  0.00    +0.000 C 
ATOM     27  O   UNL     1      -6.081   4.516 134.275  0.00  0.00    +0.000 OA
ENDBRANCH  20  27
BRANCH  22  28
ATOM     28  O   UNL     1      -9.256   6.588 131.683  0.00  0.00    +0.000 OA
BRANCH  28  29
ATOM     29  C   UNL     1      -9.794   6.078 130.449  0.00  0.00    +0.000 C 
ATOM     30  C   UNL     1     -10.548   4.740 130.573  0.00  0.00    +0.000 C 
BRANCH  29  31
ATOM     31  C   UNL     1     -10.756   7.117 129.907  0.00  0.00    +0.000 A 
ATOM     32  C   UNL     1     -11.924   7.484 130.590  0.00  0.00    +0.000 A 
ATOM     33  C   UNL     1     -12.785   8.428 130.046  0.00  0.00    +0.000 A 
ATOM     34  C   UNL     1     -12.443   8.994 128.833  0.00  0.00    +0.000 A 
ATOM     35  N   UNL     1     -11.336   8.665 128.132  0.00  0.00    +0.000 NA
ATOM     36  C   UNL     1     -10.520   7.737 128.683  0.00  0.00    +0.000 A 
ENDBRANCH  29  31
ENDBRANCH  28  29
ENDBRANCH  22  28
ENDBRANCH   1  25
TORSDOF 6
ENDMDL
MODEL 9
REMARK VINA RESULT:      -9.2      3.937      9.359
REMARK  Name = CHEMBL105406
REMARK  8 active torsions:
REMARK  status: ('A' for Active; 'I' for Inactive)
REMARK    1  A    between atoms: C_1  and  O_2
REMARK    2  A    between atoms: O_2  and  C_3
REMARK    3  A    between atoms: C_5  and  O_6
REMARK    4  A    between atoms: O_6  and  C_7
REMARK    5  A    between atoms: C_7  and  C_8
REMARK    6  A    between atoms: C_7  and  C_9
REMARK    7  A    between atoms: C_17  and  C_18
REMARK    8  A    between atoms: C_23  and  N_24
REMARK                            x       y       z     vdW  Elec       q    Type
REMARK                         _______ _______ _______ _____ _____    ______ ____
ROOT
ATOM      1  C   UNL     1      -4.957   4.964 127.655  0.00  0.00    +0.000 C 
ATOM      2  O   UNL     1      -4.228   5.935 127.427  0.00  0.00    +0.000 OA
ATOM      3  N   UNL     1      -5.793   4.447 126.623  0.00  0.00    +0.000 N 
ATOM      4  C   UNL     1      -5.125   3.933 125.386  0.00  0.00    +0.000 C 
ATOM      5  C   UNL     1      -5.957   4.125 124.153  0.00  0.00    +0.000 C 
ATOM      6  C   UNL     1      -7.348   3.051 124.256  0.00  0.00    +0.000 C 
ATOM      7  C   UNL     1      -7.996   4.003 125.588  0.00  0.00    +0.000 C 
ATOM      8  C   UNL     1      -7.173   3.972 126.858  0.00  0.00    +0.000 C 
ENDROOT
BRANCH   6   9
ATOM      9  N   UNL     1      -7.021   1.349 123.592  0.00  0.00    +0.000 N 
ATOM     10  C   UNL     1      -8.415   1.399 123.281  0.00  0.00    +0.000 C 
ATOM     11  O   UNL     1      -9.028   2.266 122.571  0.00  0.00    +0.000 OA
ATOM     12  O   UNL     1      -9.205   0.610 123.976  0.00  0.00    +0.000 OA
ATOM     13  C   UNL     1      -9.221  -0.419 123.063  0.00  0.00    +0.000 C 
ATOM     14  C   UNL     1      -8.174  -1.112 123.807  0.00  0.00    +0.000 A 
ATOM     15  C   UNL     1      -8.499  -2.269 124.590  0.00  0.00    +0.000 A 
ATOM     16  C   UNL     1      -7.631  -3.306 124.841  0.00  0.00    +0.000 A 
ATOM     17  C   UNL     1      -6.561  -3.253 123.999  0.00  0.00    +0.000 A 
ATOM     18  C   UNL     1      -6.200  -1.844 123.412  0.00  0.00    +0.000 A 
ATOM     19  C   UNL     1      -6.935  -0.496 123.793  0.00  0.00    +0.000 A 
ENDBRANCH   6   9
BRANCH   1  25
ATOM     20  C   UNL     1      -4.457   2.936 129.283  0.00  0.00    +0.000 A 
ATOM     21  C   UNL     1      -4.343   2.462 130.603  0.00  0.00    +0.000 A 
ATOM     22  C   UNL     1      -4.532   3.295 131.695  0.00  0.00    +0.000 A 
ATOM     23  C   UNL     1      -4.664   4.651 131.454  0.00  0.00    +0.000 A 
ATOM     24  C   UNL     1      -4.873   5.129 130.151  0.00  0.00    +0.000 A 
ATOM     25  C   UNL     1      -4.800   4.280 129.016  0.00  0.00    +0.000 A 
BRANCH  20  27
ATOM     26  C   UNL     1      -5.356   1.028 128.305  0.00  0.00    +0.000 C 
ATOM     27  O   UNL     1      -4.251   1.901 128.406  0.00  0.00    +0.000 OA
ENDBRANCH  20  27
BRANCH  22  28
ATOM     28  O   UNL     1      -4.637   2.688 132.915  0.00  0.00    +0.000 OA
BRANCH  28  29
ATOM     29  C   UNL     1      -5.679   1.711 133.096  0.00  0.00    +0.000 C 
ATOM     30  C   UNL     1      -5.440   0.712 134.246  0.00  0.00    +0.000 C 
BRANCH  29  31
ATOM     31  C   UNL     1      -6.964   2.464 133.380  0.00  0.00    +0.000 A 
ATOM     32  C   UNL     1      -7.013   3.558 134.257  0.00  0.00    +0.000 A 
ATOM     33  C   UNL     1      -8.217   4.205 134.500  0.00  0.00    +0.000 A 
ATOM     34  C   UNL     1      -9.344   3.748 133.843  0.00  0.00    +0.000 A 
ATOM     35  N   UNL     1      -9.348   2.692 133.000  0.00  0.00    +0.000 NA
ATOM     36  C   UNL     1      -8.163   2.077 132.788  0.00  0.00    +0.000 A 
ENDBRANCH  29  31
ENDBRANCH  28  29
ENDBRANCH  22  28
ENDBRANCH   1  25
TORSDOF 6
ENDMDL
