MODEL 1
REMARK VINA RESULT:      -9.1      0.000      0.000
REMARK  Name = CHEMBL277425
REMARK  13 active torsions:
REMARK  status: ('A' for Active; 'I' for Inactive)
REMARK    1  A    between atoms: C_1  and  C_2
REMARK    2  A    between atoms: C_2  and  C_4
REMARK    3  A    between atoms: C_4  and  C_5
REMARK    4  A    between atoms: C_5  and  C_6
REMARK    5  A    between atoms: C_6  and  C_7
REMARK    6  A    between atoms: N_9  and  C_10
REMARK    7  A    between atoms: C_12  and  C_13
REMARK    8  A    between atoms: N_25  and  C_26
REMARK    9  A    between atoms: C_26  and  C_27
REMARK   10  A    between atoms: N_29  and  C_30
REMARK   11  A    between atoms: C_30  and  C_31
REMARK   12  A    between atoms: C_30  and  C_40
REMARK   13  A    between atoms: C_31  and  C_32
REMARK                            x       y       z     vdW  Elec       q    Type
REMARK                         _______ _______ _______ _____ _____    ______ ____
ROOT
ATOM      1  C   UNL     1      -7.912   4.138 128.932  0.00  0.00    +0.000 C 
ATOM      2  N   UNL     1      -8.315   3.620 127.617  0.00  0.00    +0.000 NA
ATOM      3  C   UNL     1      -7.475   2.820 127.042  0.00  0.00    +0.000 C 
ATOM      4  C   UNL     1      -6.130   2.599 127.547  0.00  0.00    +0.000 A 
ATOM      5  C   UNL     1      -5.183   2.652 126.560  0.00  0.00    +0.000 A 
ATOM      6  C   UNL     1      -3.905   2.662 126.981  0.00  0.00    +0.000 A 
ATOM      7  C   UNL     1      -3.548   2.743 128.334  0.00  0.00    +0.000 A 
ATOM      8  C   UNL     1      -4.482   2.522 129.311  0.00  0.00    +0.000 A 
ATOM      9  C   UNL     1      -5.793   2.428 128.919  0.00  0.00    +0.000 A 
ATOM     10  N   UNL     1      -6.758   2.167 129.908  0.00  0.00    +0.000 N 
ATOM     11  C   UNL     1      -7.916   2.905 129.912  0.00  0.00    +0.000 C 
ATOM     12  O   UNL     1      -8.857   2.588 130.642  0.00  0.00    +0.000 OA
ENDROOT
BRANCH   3  13
ATOM     13  C   UNL     1      -7.819   2.151 125.706  0.00  0.00    +0.000 C 
ATOM     14  C   UNL     1      -8.773   1.008 125.997  0.00  0.00    +0.000 C 
ATOM     15  C   UNL     1      -9.368   0.431 124.726  0.00  0.00    +0.000 C 
ATOM     16  C   UNL     1      -9.994   1.523 123.865  0.00  0.00    +0.000 C 
ATOM     17  C   UNL     1      -8.974   2.594 123.499  0.00  0.00    +0.000 C 
ATOM     18  C   UNL     1      -8.374   3.212 124.751  0.00  0.00    +0.000 C 
ENDBRANCH   3  13
BRANCH   1  21
ATOM     19  C   UNL     1      -8.577   6.149 130.084  0.00  0.00    +0.000 C 
ATOM     20  O   UNL     1      -7.415   6.467 130.322  0.00  0.00    +0.000 OA
ATOM     21  N   UNL     1      -8.927   5.057 129.328  0.00  0.00    +0.000 N 
ATOM     22  H   UNL     1      -9.791   5.010 128.817  0.00  0.00    +0.000 HD
BRANCH  19  23
ATOM     23  C   UNL     1      -9.750   6.921 130.620  0.00  0.00    +0.000 C 
BRANCH  23  24
ATOM     24  C   UNL     1     -10.842   6.942 129.554  0.00  0.00    +0.000 C 
BRANCH  24  25
ATOM     25  C   UNL     1     -10.509   7.866 128.398  0.00  0.00    +0.000 C 
BRANCH  25  27
ATOM     26  C   UNL     1     -12.034   7.290 126.410  0.00  0.00    +0.000 C 
ATOM     27  C   UNL     1     -10.691   7.153 127.069  0.00  0.00    +0.000 C 
ATOM     28  O   UNL     1      -9.802   6.487 126.538  0.00  0.00    +0.000 OA
ENDBRANCH  25  27
ENDBRANCH  24  25
ENDBRANCH  23  24
ENDBRANCH  19  23
ENDBRANCH   1  21
BRANCH  10  29
ATOM     29  C   UNL     1      -6.596   1.154 130.964  0.00  0.00    +0.000 C 
BRANCH  29  30
ATOM     30  C   UNL     1      -6.789  -0.292 130.479  0.00  0.00    +0.000 C 
ATOM     31  O   UNL     1      -7.776  -0.883 130.781  0.00  0.00    +0.000 OA
ATOM     32  N   UNL     1      -5.728  -0.879 129.788  0.00  0.00    +0.000 N 
ATOM     33  H   UNL     1      -4.821  -0.645 130.153  0.00  0.00    +0.000 HD
BRANCH  32  34
ATOM     34  C   UNL     1      -5.878  -2.195 129.096  0.00  0.00    +0.000 C 
BRANCH  34  35
ATOM     35  C   UNL     1      -5.093  -3.371 129.723  0.00  0.00    +0.000 C 
ATOM     36  N   UNL     1      -3.781  -3.520 129.388  0.00  0.00    +0.000 N 
ATOM     37  O   UNL     1      -5.591  -4.147 130.537  0.00  0.00    +0.000 OA
ATOM     38  H   UNL     1      -3.258  -2.932 128.768  0.00  0.00    +0.000 HD
ATOM     39  H   UNL     1      -3.286  -4.290 129.820  0.00  0.00    +0.000 HD
ENDBRANCH  34  35
BRANCH  34  40
ATOM     40  C   UNL     1      -5.454  -2.120 127.589  0.00  0.00    +0.000 C 
BRANCH  40  41
ATOM     41  C   UNL     1      -6.512  -2.351 126.533  0.00  0.00    +0.000 A 
ATOM     42  C   UNL     1      -7.716  -2.952 126.863  0.00  0.00    +0.000 A 
ATOM     43  C   UNL     1      -8.725  -3.133 125.922  0.00  0.00    +0.000 A 
ATOM     44  C   UNL     1      -8.445  -2.988 124.546  0.00  0.00    +0.000 A 
ATOM     45 CL   UNL     1      -9.641  -3.130 123.261  0.00  0.00    +0.000 Cl
ATOM     46  C   UNL     1      -7.200  -2.462 124.192  0.00  0.00    +0.000 A 
ATOM     47 CL   UNL     1      -6.811  -2.084 122.546  0.00  0.00    +0.000 Cl
ATOM     48  C   UNL     1      -6.281  -2.076 125.179  0.00  0.00    +0.000 A 
ENDBRANCH  40  41
ENDBRANCH  34  40
ENDBRANCH  32  34
ENDBRANCH  29  30
ENDBRANCH  10  29
TORSDOF 12
ENDMDL
MODEL 2
REMARK VINA RESULT:      -9.0      3.100      7.062
REMARK  Name = CHEMBL277425
REMARK  13 active torsions:
REMARK  status: ('A' for Active; 'I' for Inactive)
REMARK    1  A    between atoms: C_1  and  C_2
REMARK    2  A    between atoms: C_2  and  C_4
REMARK    3  A    between atoms: C_4  and  C_5
REMARK    4  A    between atoms: C_5  and  C_6
REMARK    5  A    between atoms: C_6  and  C_7
REMARK    6  A    between atoms: N_9  and  C_10
REMARK    7  A    between atoms: C_12  and  C_13
REMARK    8  A    between atoms: N_25  and  C_26
REMARK    9  A    between atoms: C_26  and  C_27
REMARK   10  A    between atoms: N_29  and  C_30
REMARK   11  A    between atoms: C_30  and  C_31
REMARK   12  A    between atoms: C_30  and  C_40
REMARK   13  A    between atoms: C_31  and  C_32
REMARK                            x       y       z     vdW  Elec       q    Type
REMARK                         _______ _______ _______ _____ _____    ______ ____
ROOT
ATOM      1  C   UNL     1      -8.004   0.167 129.601  0.00  0.00    +0.000 C 
ATOM      2  N   UNL     1      -7.740  -0.962 130.503  0.00  0.00    +0.000 NA
ATOM      3  C   UNL     1      -7.599  -2.118 129.937  0.00  0.00    +0.000 C 
ATOM      4  C   UNL     1      -7.885  -2.342 128.529  0.00  0.00    +0.000 A 
ATOM      5  C   UNL     1      -8.627  -3.472 128.318  0.00  0.00    +0.000 A 
ATOM      6  C   UNL     1      -9.101  -3.629 127.069  0.00  0.00    +0.000 A 
ATOM      7  C   UNL     1      -8.963  -2.655 126.071  0.00  0.00    +0.000 A 
ATOM      8  C   UNL     1      -8.085  -1.616 126.235  0.00  0.00    +0.000 A 
ATOM      9  C   UNL     1      -7.518  -1.461 127.473  0.00  0.00    +0.000 A 
ATOM     10  N   UNL     1      -6.589  -0.420 127.646  0.00  0.00    +0.000 N 
ATOM     11  C   UNL     1      -6.689   0.377 128.760  0.00  0.00    +0.000 C 
ATOM     12  O   UNL     1      -5.793   1.177 129.038  0.00  0.00    +0.000 OA
ENDROOT
BRANCH   3  13
ATOM     13  C   UNL     1      -7.240  -3.357 130.766  0.00  0.00    +0.000 C 
ATOM     14  C   UNL     1      -5.941  -3.915 130.217  0.00  0.00    +0.000 C 
ATOM     15  C   UNL     1      -5.367  -4.997 131.113  0.00  0.00    +0.000 C 
ATOM     16  C   UNL     1      -5.244  -4.511 132.554  0.00  0.00    +0.000 C 
ATOM     17  C   UNL     1      -6.592  -4.066 133.106  0.00  0.00    +0.000 C 
ATOM     18  C   UNL     1      -7.187  -2.964 132.245  0.00  0.00    +0.000 C 
ENDBRANCH   3  13
BRANCH   1  21
ATOM     19  C   UNL     1      -8.830   2.412 129.904  0.00  0.00    +0.000 C 
ATOM     20  O   UNL     1      -9.345   2.436 128.789  0.00  0.00    +0.000 OA
ATOM     21  N   UNL     1      -8.215   1.305 130.434  0.00  0.00    +0.000 N 
ATOM     22  H   UNL     1      -8.151   1.146 131.424  0.00  0.00    +0.000 HD
BRANCH  19  23
ATOM     23  C   UNL     1      -8.802   3.615 130.805  0.00  0.00    +0.000 C 
BRANCH  23  24
ATOM     24  C   UNL     1     -10.127   4.358 130.660  0.00  0.00    +0.000 C 
BRANCH  24  25
ATOM     25  C   UNL     1      -9.943   5.859 130.535  0.00  0.00    +0.000 C 
BRANCH  25  27
ATOM     26  C   UNL     1      -7.661   6.836 131.200  0.00  0.00    +0.000 C 
ATOM     27  C   UNL     1      -9.028   6.383 131.628  0.00  0.00    +0.000 C 
ATOM     28  O   UNL     1      -9.362   6.442 132.811  0.00  0.00    +0.000 OA
ENDBRANCH  25  27
ENDBRANCH  24  25
ENDBRANCH  23  24
ENDBRANCH  19  23
ENDBRANCH   1  21
BRANCH  10  29
ATOM     29  C   UNL     1      -5.514  -0.113 126.687  0.00  0.00    +0.000 C 
BRANCH  29  30
ATOM     30  C   UNL     1      -5.649   1.264 126.017  0.00  0.00    +0.000 C 
ATOM     31  O   UNL     1      -4.787   2.071 126.161  0.00  0.00    +0.000 OA
ATOM     32  N   UNL     1      -6.847   1.534 125.352  0.00  0.00    +0.000 N 
ATOM     33  H   UNL     1      -7.664   1.179 125.818  0.00  0.00    +0.000 HD
BRANCH  32  34
ATOM     34  C   UNL     1      -7.009   2.748 124.496  0.00  0.00    +0.000 C 
BRANCH  34  35
ATOM     35  C   UNL     1      -7.444   4.034 125.239  0.00  0.00    +0.000 C 
ATOM     36  N   UNL     1      -6.479   4.927 125.597  0.00  0.00    +0.000 N 
ATOM     37  O   UNL     1      -8.620   4.300 125.480  0.00  0.00    +0.000 OA
ATOM     38  H   UNL     1      -5.496   4.838 125.423  0.00  0.00    +0.000 HD
ATOM     39  H   UNL     1      -6.790   5.766 126.072  0.00  0.00    +0.000 HD
ENDBRANCH  34  35
BRANCH  34  40
ATOM     40  C   UNL     1      -8.044   2.522 123.341  0.00  0.00    +0.000 C 
BRANCH  40  41
ATOM     41  C   UNL     1      -7.732   3.092 121.976  0.00  0.00    +0.000 A 
ATOM     42  C   UNL     1      -6.431   3.421 121.631  0.00  0.00    +0.000 A 
ATOM     43  C   UNL     1      -6.110   3.904 120.366  0.00  0.00    +0.000 A 
ATOM     44  C   UNL     1      -7.129   4.356 119.500  0.00  0.00    +0.000 A 
ATOM     45 CL   UNL     1      -6.863   4.931 117.856  0.00  0.00    +0.000 Cl
ATOM     46  C   UNL     1      -8.452   4.108 119.873  0.00  0.00    +0.000 A 
ATOM     47 CL   UNL     1      -9.775   4.467 118.814  0.00  0.00    +0.000 Cl
ATOM     48  C   UNL     1      -8.741   3.414 121.058  0.00  0.00    +0.000 A 
ENDBRANCH  40  41
ENDBRANCH  34  40
ENDBRANCH  32  34
ENDBRANCH  29  30
ENDBRANCH  10  29
TORSDOF 12
ENDMDL
MODEL 3
REMARK VINA RESULT:      -8.6      3.951      7.351
REMARK  Name = CHEMBL277425
REMARK  13 active torsions:
REMARK  status: ('A' for Active; 'I' for Inactive)
REMARK    1  A    between atoms: C_1  and  C_2
REMARK    2  A    between atoms: C_2  and  C_4
REMARK    3  A    between atoms: C_4  and  C_5
REMARK    4  A    between atoms: C_5  and  C_6
REMARK    5  A    between atoms: C_6  and  C_7
REMARK    6  A    between atoms: N_9  and  C_10
REMARK    7  A    between atoms: C_12  and  C_13
REMARK    8  A    between atoms: N_25  and  C_26
REMARK    9  A    between atoms: C_26  and  C_27
REMARK   10  A    between atoms: N_29  and  C_30
REMARK   11  A    between atoms: C_30  and  C_31
REMARK   12  A    between atoms: C_30  and  C_40
REMARK   13  A    between atoms: C_31  and  C_32
REMARK                            x       y       z     vdW  Elec       q    Type
REMARK                         _______ _______ _______ _____ _____    ______ ____
ROOT
ATOM      1  C   UNL     1      -5.371   3.750 126.827  0.00  0.00    +0.000 C 
ATOM      2  N   UNL     1      -5.743   3.677 125.407  0.00  0.00    +0.000 NA
ATOM      3  C   UNL     1      -6.291   2.570 125.021  0.00  0.00    +0.000 C 
ATOM      4  C   UNL     1      -6.352   1.389 125.867  0.00  0.00    +0.000 A 
ATOM      5  C   UNL     1      -5.989   0.248 125.204  0.00  0.00    +0.000 A 
ATOM      6  C   UNL     1      -5.825  -0.843 125.973  0.00  0.00    +0.000 A 
ATOM      7  C   UNL     1      -5.891  -0.808 127.373  0.00  0.00    +0.000 A 
ATOM      8  C   UNL     1      -6.416   0.283 128.013  0.00  0.00    +0.000 A 
ATOM      9  C   UNL     1      -6.671   1.396 127.255  0.00  0.00    +0.000 A 
ATOM     10  N   UNL     1      -7.241   2.511 127.893  0.00  0.00    +0.000 N 
ATOM     11  C   UNL     1      -6.721   3.757 127.637  0.00  0.00    +0.000 C 
ATOM     12  O   UNL     1      -7.302   4.769 128.032  0.00  0.00    +0.000 OA
ENDROOT
BRANCH   3  13
ATOM     13  C   UNL     1      -6.797   2.405 123.583  0.00  0.00    +0.000 C 
ATOM     14  C   UNL     1      -8.310   2.501 123.616  0.00  0.00    +0.000 C 
ATOM     15  C   UNL     1      -8.901   2.595 122.221  0.00  0.00    +0.000 C 
ATOM     16  C   UNL     1      -8.250   3.719 121.421  0.00  0.00    +0.000 C 
ATOM     17  C   UNL     1      -6.743   3.524 121.315  0.00  0.00    +0.000 C 
ATOM     18  C   UNL     1      -6.113   3.450 122.696  0.00  0.00    +0.000 C 
ENDBRANCH   3  13
BRANCH   1  21
ATOM     19  C   UNL     1      -3.422   5.011 127.478  0.00  0.00    +0.000 C 
ATOM     20  O   UNL     1      -2.743   3.998 127.624  0.00  0.00    +0.000 OA
ATOM     21  N   UNL     1      -4.710   5.001 127.004  0.00  0.00    +0.000 N 
ATOM     22  H   UNL     1      -5.115   5.787 126.526  0.00  0.00    +0.000 HD
BRANCH  19  23
ATOM     23  C   UNL     1      -2.911   6.381 127.827  0.00  0.00    +0.000 C 
BRANCH  23  24
ATOM     24  C   UNL     1      -3.299   6.687 129.271  0.00  0.00    +0.000 C 
BRANCH  24  25
ATOM     25  C   UNL     1      -2.344   6.071 130.274  0.00  0.00    +0.000 C 
BRANCH  25  27
ATOM     26  C   UNL     1      -0.890   6.799 132.265  0.00  0.00    +0.000 C 
ATOM     27  C   UNL     1      -2.150   6.990 131.468  0.00  0.00    +0.000 C 
ATOM     28  O   UNL     1      -2.966   7.852 131.791  0.00  0.00    +0.000 OA
ENDBRANCH  25  27
ENDBRANCH  24  25
ENDBRANCH  23  24
ENDBRANCH  19  23
ENDBRANCH   1  21
BRANCH  10  29
ATOM     29  C   UNL     1      -8.361   2.427 128.846  0.00  0.00    +0.000 C 
BRANCH  29  30
ATOM     30  C   UNL     1      -7.977   2.767 130.294  0.00  0.00    +0.000 C 
ATOM     31  O   UNL     1      -7.217   2.064 130.879  0.00  0.00    +0.000 OA
ATOM     32  N   UNL     1      -8.635   3.845 130.892  0.00  0.00    +0.000 N 
ATOM     33  H   UNL     1      -9.611   3.909 130.659  0.00  0.00    +0.000 HD
BRANCH  32  34
ATOM     34  C   UNL     1      -8.201   4.392 132.212  0.00  0.00    +0.000 C 
BRANCH  34  35
ATOM     35  C   UNL     1      -8.835   3.721 133.454  0.00  0.00    +0.000 C 
ATOM     36  N   UNL     1      -8.845   4.416 134.626  0.00  0.00    +0.000 N 
ATOM     37  O   UNL     1      -9.364   2.611 133.416  0.00  0.00    +0.000 OA
ATOM     38  H   UNL     1      -8.480   5.338 134.770  0.00  0.00    +0.000 HD
ATOM     39  H   UNL     1      -9.276   3.961 135.421  0.00  0.00    +0.000 HD
ENDBRANCH  34  35
BRANCH  34  40
ATOM     40  C   UNL     1      -8.482   5.928 132.335  0.00  0.00    +0.000 C 
BRANCH  40  41
ATOM     41  C   UNL     1      -9.657   6.506 131.579  0.00  0.00    +0.000 A 
ATOM     42  C   UNL     1     -10.951   6.309 132.032  0.00  0.00    +0.000 A 
ATOM     43  C   UNL     1     -12.047   6.869 131.382  0.00  0.00    +0.000 A 
ATOM     44  C   UNL     1     -11.905   7.399 130.082  0.00  0.00    +0.000 A 
ATOM     45 CL   UNL     1     -13.193   8.188 129.176  0.00  0.00    +0.000 Cl
ATOM     46  C   UNL     1     -10.610   7.527 129.574  0.00  0.00    +0.000 A 
ATOM     47 CL   UNL     1     -10.303   8.316 128.062  0.00  0.00    +0.000 Cl
ATOM     48  C   UNL     1      -9.499   7.158 130.349  0.00  0.00    +0.000 A 
ENDBRANCH  40  41
ENDBRANCH  34  40
ENDBRANCH  32  34
ENDBRANCH  29  30
ENDBRANCH  10  29
TORSDOF 12
ENDMDL
MODEL 4
REMARK VINA RESULT:      -8.6      3.658      6.781
REMARK  Name = CHEMBL277425
REMARK  13 active torsions:
REMARK  status: ('A' for Active; 'I' for Inactive)
REMARK    1  A    between atoms: C_1  and  C_2
REMARK    2  A    between atoms: C_2  and  C_4
REMARK    3  A    between atoms: C_4  and  C_5
REMARK    4  A    between atoms: C_5  and  C_6
REMARK    5  A    between atoms: C_6  and  C_7
REMARK    6  A    between atoms: N_9  and  C_10
REMARK    7  A    between atoms: C_12  and  C_13
REMARK    8  A    between atoms: N_25  and  C_26
REMARK    9  A    between atoms: C_26  and  C_27
REMARK   10  A    between atoms: N_29  and  C_30
REMARK   11  A    between atoms: C_30  and  C_31
REMARK   12  A    between atoms: C_30  and  C_40
REMARK   13  A    between atoms: C_31  and  C_32
REMARK                            x       y       z     vdW  Elec       q    Type
REMARK                         _______ _______ _______ _____ _____    ______ ____
ROOT
ATOM      1  C   UNL     1      -9.509   5.388 131.705  0.00  0.00    +0.000 C 
ATOM      2  N   UNL     1      -8.799   5.582 132.977  0.00  0.00    +0.000 NA
ATOM      3  C   UNL     1      -7.914   4.686 133.274  0.00  0.00    +0.000 C 
ATOM      4  C   UNL     1      -7.762   3.452 132.520  0.00  0.00    +0.000 A 
ATOM      5  C   UNL     1      -7.655   2.353 133.327  0.00  0.00    +0.000 A 
ATOM      6  C   UNL     1      -7.720   1.164 132.701  0.00  0.00    +0.000 A 
ATOM      7  C   UNL     1      -8.004   1.035 131.334  0.00  0.00    +0.000 A 
ATOM      8  C   UNL     1      -7.943   2.126 130.509  0.00  0.00    +0.000 A 
ATOM      9  C   UNL     1      -7.801   3.355 131.100  0.00  0.00    +0.000 A 
ATOM     10  N   UNL     1      -7.701   4.481 130.263  0.00  0.00    +0.000 N 
ATOM     11  C   UNL     1      -8.441   5.597 130.567  0.00  0.00    +0.000 C 
ATOM     12  O   UNL     1      -8.247   6.657 129.969  0.00  0.00    +0.000 OA
ENDROOT
BRANCH   3  13
ATOM     13  C   UNL     1      -7.050   4.824 134.534  0.00  0.00    +0.000 C 
ATOM     14  C   UNL     1      -5.744   5.477 134.126  0.00  0.00    +0.000 C 
ATOM     15  C   UNL     1      -4.914   5.883 135.330  0.00  0.00    +0.000 C 
ATOM     16  C   UNL     1      -5.728   6.736 136.298  0.00  0.00    +0.000 C 
ATOM     17  C   UNL     1      -6.974   5.999 136.774  0.00  0.00    +0.000 C 
ATOM     18  C   UNL     1      -7.842   5.597 135.593  0.00  0.00    +0.000 C 
ENDBRANCH   3  13
BRANCH   1  21
ATOM     19  C   UNL     1     -11.549   6.273 130.773  0.00  0.00    +0.000 C 
ATOM     20  O   UNL     1     -11.793   5.232 130.168  0.00  0.00    +0.000 OA
ATOM     21  N   UNL     1     -10.486   6.423 131.630  0.00  0.00    +0.000 N 
ATOM     22  H   UNL     1     -10.497   7.079 132.391  0.00  0.00    +0.000 HD
BRANCH  19  23
ATOM     23  C   UNL     1     -12.388   7.510 130.620  0.00  0.00    +0.000 C 
BRANCH  23  24
ATOM     24  C   UNL     1     -13.006   7.505 129.224  0.00  0.00    +0.000 C 
BRANCH  24  25
ATOM     25  C   UNL     1     -12.492   8.636 128.355  0.00  0.00    +0.000 C 
BRANCH  25  27
ATOM     26  C   UNL     1     -11.091   7.364 126.615  0.00  0.00    +0.000 C 
ATOM     27  C   UNL     1     -11.123   8.302 127.789  0.00  0.00    +0.000 C 
ATOM     28  O   UNL     1     -10.077   8.759 128.249  0.00  0.00    +0.000 OA
ENDBRANCH  25  27
ENDBRANCH  24  25
ENDBRANCH  23  24
ENDBRANCH  19  23
ENDBRANCH   1  21
BRANCH  10  29
ATOM     29  C   UNL     1      -6.861   4.532 129.055  0.00  0.00    +0.000 C 
BRANCH  29  30
ATOM     30  C   UNL     1      -7.538   3.966 127.797  0.00  0.00    +0.000 C 
ATOM     31  O   UNL     1      -8.705   4.131 127.636  0.00  0.00    +0.000 OA
ATOM     32  N   UNL     1      -6.753   3.183 126.948  0.00  0.00    +0.000 N 
ATOM     33  H   UNL     1      -6.114   2.572 127.428  0.00  0.00    +0.000 HD
BRANCH  32  34
ATOM     34  C   UNL     1      -7.243   2.754 125.604  0.00  0.00    +0.000 C 
BRANCH  34  35
ATOM     35  C   UNL     1      -7.671   1.271 125.491  0.00  0.00    +0.000 C 
ATOM     36  N   UNL     1      -6.761   0.372 125.024  0.00  0.00    +0.000 N 
ATOM     37  O   UNL     1      -8.779   0.868 125.843  0.00  0.00    +0.000 OA
ATOM     38  H   UNL     1      -5.820   0.574 124.744  0.00  0.00    +0.000 HD
ATOM     39  H   UNL     1      -7.061  -0.593 124.971  0.00  0.00    +0.000 HD
ENDBRANCH  34  35
BRANCH  34  40
ATOM     40  C   UNL     1      -6.178   3.003 124.481  0.00  0.00    +0.000 C 
BRANCH  40  41
ATOM     41  C   UNL     1      -6.666   3.388 123.102  0.00  0.00    +0.000 A 
ATOM     42  C   UNL     1      -7.931   3.019 122.674  0.00  0.00    +0.000 A 
ATOM     43  C   UNL     1      -8.422   3.399 121.429  0.00  0.00    +0.000 A 
ATOM     44  C   UNL     1      -7.546   3.912 120.448  0.00  0.00    +0.000 A 
ATOM     45 CL   UNL     1      -8.047   4.485 118.860  0.00  0.00    +0.000 Cl
ATOM     46  C   UNL     1      -6.239   4.211 120.842  0.00  0.00    +0.000 A 
ATOM     47 CL   UNL     1      -5.128   4.998 119.770  0.00  0.00    +0.000 Cl
ATOM     48  C   UNL     1      -5.833   4.024 122.172  0.00  0.00    +0.000 A 
ENDBRANCH  40  41
ENDBRANCH  34  40
ENDBRANCH  32  34
ENDBRANCH  29  30
ENDBRANCH  10  29
TORSDOF 12
ENDMDL
MODEL 5
REMARK VINA RESULT:      -8.6      3.889      7.349
REMARK  Name = CHEMBL277425
REMARK  13 active torsions:
REMARK  status: ('A' for Active; 'I' for Inactive)
REMARK    1  A    between atoms: C_1  and  C_2
REMARK    2  A    between atoms: C_2  and  C_4
REMARK    3  A    between atoms: C_4  and  C_5
REMARK    4  A    between atoms: C_5  and  C_6
REMARK    5  A    between atoms: C_6  and  C_7
REMARK    6  A    between atoms: N_9  and  C_10
REMARK    7  A    between atoms: C_12  and  C_13
REMARK    8  A    between atoms: N_25  and  C_26
REMARK    9  A    between atoms: C_26  and  C_27
REMARK   10  A    between atoms: N_29  and  C_30
REMARK   11  A    between atoms: C_30  and  C_31
REMARK   12  A    between atoms: C_30  and  C_40
REMARK   13  A    between atoms: C_31  and  C_32
REMARK                            x       y       z     vdW  Elec       q    Type
REMARK                         _______ _______ _______ _____ _____    ______ ____
ROOT
ATOM      1  C   UNL     1      -7.584   1.737 127.256  0.00  0.00    +0.000 C 
ATOM      2  N   UNL     1      -7.768   0.514 126.462  0.00  0.00    +0.000 NA
ATOM      3  C   UNL     1      -7.202   0.505 125.298  0.00  0.00    +0.000 C 
ATOM      4  C   UNL     1      -6.598   1.689 124.709  0.00  0.00    +0.000 A 
ATOM      5  C   UNL     1      -6.955   1.866 123.400  0.00  0.00    +0.000 A 
ATOM      6  C   UNL     1      -6.603   3.044 122.856  0.00  0.00    +0.000 A 
ATOM      7  C   UNL     1      -6.022   4.084 123.595  0.00  0.00    +0.000 A 
ATOM      8  C   UNL     1      -5.518   3.845 124.846  0.00  0.00    +0.000 A 
ATOM      9  C   UNL     1      -5.789   2.626 125.412  0.00  0.00    +0.000 A 
ATOM     10  N   UNL     1      -5.248   2.355 126.681  0.00  0.00    +0.000 N 
ATOM     11  C   UNL     1      -6.057   1.791 127.637  0.00  0.00    +0.000 C 
ATOM     12  O   UNL     1      -5.579   1.374 128.694  0.00  0.00    +0.000 OA
ENDROOT
BRANCH   3  13
ATOM     13  C   UNL     1      -7.253  -0.746 124.412  0.00  0.00    +0.000 C 
ATOM     14  C   UNL     1      -6.003  -1.557 124.691  0.00  0.00    +0.000 C 
ATOM     15  C   UNL     1      -6.066  -2.932 124.051  0.00  0.00    +0.000 C 
ATOM     16  C   UNL     1      -7.348  -3.662 124.438  0.00  0.00    +0.000 C 
ATOM     17  C   UNL     1      -8.583  -2.865 124.037  0.00  0.00    +0.000 C 
ATOM     18  C   UNL     1      -8.565  -1.488 124.681  0.00  0.00    +0.000 C 
ENDBRANCH   3  13
BRANCH   1  21
ATOM     19  C   UNL     1      -8.761   2.677 129.139  0.00  0.00    +0.000 C 
ATOM     20  O   UNL     1      -8.619   3.827 128.729  0.00  0.00    +0.000 OA
ATOM     21  N   UNL     1      -8.359   1.566 128.440  0.00  0.00    +0.000 N 
ATOM     22  H   UNL     1      -8.797   0.668 128.557  0.00  0.00    +0.000 HD
BRANCH  19  23
ATOM     23  C   UNL     1      -9.379   2.368 130.474  0.00  0.00    +0.000 C 
BRANCH  23  24
ATOM     24  C   UNL     1      -8.396   1.519 131.275  0.00  0.00    +0.000 C 
BRANCH  24  25
ATOM     25  C   UNL     1      -8.949   0.147 131.609  0.00  0.00    +0.000 C 
BRANCH  25  27
ATOM     26  C   UNL     1      -7.512  -1.955 131.959  0.00  0.00    +0.000 C 
ATOM     27  C   UNL     1      -8.083  -0.945 131.005  0.00  0.00    +0.000 C 
ATOM     28  O   UNL     1      -7.842  -1.020 129.800  0.00  0.00    +0.000 OA
ENDBRANCH  25  27
ENDBRANCH  24  25
ENDBRANCH  23  24
ENDBRANCH  19  23
ENDBRANCH   1  21
BRANCH  10  29
ATOM     29  C   UNL     1      -3.859   2.659 127.063  0.00  0.00    +0.000 C 
BRANCH  29  30
ATOM     30  C   UNL     1      -3.700   3.962 127.862  0.00  0.00    +0.000 C 
ATOM     31  O   UNL     1      -3.467   4.976 127.286  0.00  0.00    +0.000 OA
ATOM     32  N   UNL     1      -3.734   3.864 129.255  0.00  0.00    +0.000 N 
ATOM     33  H   UNL     1      -3.264   3.053 129.620  0.00  0.00    +0.000 HD
BRANCH  32  34
ATOM     34  C   UNL     1      -3.796   5.078 130.123  0.00  0.00    +0.000 C 
BRANCH  34  35
ATOM     35  C   UNL     1      -2.440   5.764 130.410  0.00  0.00    +0.000 C 
ATOM     36  N   UNL     1      -1.884   6.527 129.428  0.00  0.00    +0.000 N 
ATOM     37  O   UNL     1      -1.867   5.682 131.495  0.00  0.00    +0.000 OA
ATOM     38  H   UNL     1      -2.274   6.699 128.520  0.00  0.00    +0.000 HD
ATOM     39  H   UNL     1      -1.002   6.975 129.644  0.00  0.00    +0.000 HD
ENDBRANCH  34  35
BRANCH  34  40
ATOM     40  C   UNL     1      -4.453   4.775 131.513  0.00  0.00    +0.000 C 
BRANCH  40  41
ATOM     41  C   UNL     1      -5.915   5.112 131.706  0.00  0.00    +0.000 A 
ATOM     42  C   UNL     1      -6.476   6.204 131.063  0.00  0.00    +0.000 A 
ATOM     43  C   UNL     1      -7.828   6.509 131.185  0.00  0.00    +0.000 A 
ATOM     44  C   UNL     1      -8.604   5.901 132.197  0.00  0.00    +0.000 A 
ATOM     45 CL   UNL     1     -10.333   6.153 132.420  0.00  0.00    +0.000 Cl
ATOM     46  C   UNL     1      -8.023   4.852 132.913  0.00  0.00    +0.000 A 
ATOM     47 CL   UNL     1      -8.933   3.925 134.060  0.00  0.00    +0.000 Cl
ATOM     48  C   UNL     1      -6.724   4.415 132.613  0.00  0.00    +0.000 A 
ENDBRANCH  40  41
ENDBRANCH  34  40
ENDBRANCH  32  34
ENDBRANCH  29  30
ENDBRANCH  10  29
TORSDOF 12
ENDMDL
MODEL 6
REMARK VINA RESULT:      -8.6      3.496      5.563
REMARK  Name = CHEMBL277425
REMARK  13 active torsions:
REMARK  status: ('A' for Active; 'I' for Inactive)
REMARK    1  A    between atoms: C_1  and  C_2
REMARK    2  A    between atoms: C_2  and  C_4
REMARK    3  A    between atoms: C_4  and  C_5
REMARK    4  A    between atoms: C_5  and  C_6
REMARK    5  A    between atoms: C_6  and  C_7
REMARK    6  A    between atoms: N_9  and  C_10
REMARK    7  A    between atoms: C_12  and  C_13
REMARK    8  A    between atoms: N_25  and  C_26
REMARK    9  A    between atoms: C_26  and  C_27
REMARK   10  A    between atoms: N_29  and  C_30
REMARK   11  A    between atoms: C_30  and  C_31
REMARK   12  A    between atoms: C_30  and  C_40
REMARK   13  A    between atoms: C_31  and  C_32
REMARK                            x       y       z     vdW  Elec       q    Type
REMARK                         _______ _______ _______ _____ _____    ______ ____
ROOT
ATOM      1  C   UNL     1      -9.290   5.874 131.448  0.00  0.00    +0.000 C 
ATOM      2  N   UNL     1      -7.982   6.193 130.858  0.00  0.00    +0.000 NA
ATOM      3  C   UNL     1      -6.948   5.854 131.558  0.00  0.00    +0.000 C 
ATOM      4  C   UNL     1      -7.049   5.379 132.929  0.00  0.00    +0.000 A 
ATOM      5  C   UNL     1      -6.140   5.975 133.760  0.00  0.00    +0.000 A 
ATOM      6  C   UNL     1      -6.311   5.739 135.073  0.00  0.00    +0.000 A 
ATOM      7  C   UNL     1      -7.412   5.037 135.586  0.00  0.00    +0.000 A 
ATOM      8  C   UNL     1      -8.216   4.307 134.752  0.00  0.00    +0.000 A 
ATOM      9  C   UNL     1      -8.027   4.459 133.402  0.00  0.00    +0.000 A 
ATOM     10  N   UNL     1      -8.823   3.690 132.536  0.00  0.00    +0.000 N 
ATOM     11  C   UNL     1      -9.401   4.303 131.451  0.00  0.00    +0.000 C 
ATOM     12  O   UNL     1      -9.951   3.633 130.575  0.00  0.00    +0.000 OA
ENDROOT
BRANCH   3  13
ATOM     13  C   UNL     1      -5.530   6.061 131.012  0.00  0.00    +0.000 C 
ATOM     14  C   UNL     1      -5.302   5.028 129.925  0.00  0.00    +0.000 C 
ATOM     15  C   UNL     1      -4.025   5.295 129.150  0.00  0.00    +0.000 C 
ATOM     16  C   UNL     1      -3.987   6.728 128.627  0.00  0.00    +0.000 C 
ATOM     17  C   UNL     1      -4.105   7.736 129.763  0.00  0.00    +0.000 C 
ATOM     18  C   UNL     1      -5.387   7.513 130.548  0.00  0.00    +0.000 C 
ENDBRANCH   3  13
BRANCH   1  21
ATOM     19  C   UNL     1     -11.560   6.558 131.011  0.00  0.00    +0.000 C 
ATOM     20  O   UNL     1     -11.899   6.387 132.180  0.00  0.00    +0.000 OA
ATOM     21  N   UNL     1     -10.270   6.412 130.564  0.00  0.00    +0.000 N 
ATOM     22  H   UNL     1      -9.920   6.905 129.761  0.00  0.00    +0.000 HD
BRANCH  19  23
ATOM     23  C   UNL     1     -12.541   6.928 129.934  0.00  0.00    +0.000 C 
BRANCH  23  24
ATOM     24  C   UNL     1     -12.543   8.446 129.783  0.00  0.00    +0.000 C 
BRANCH  24  25
ATOM     25  C   UNL     1     -12.356   8.889 128.344  0.00  0.00    +0.000 C 
BRANCH  25  27
ATOM     26  C   UNL     1     -11.103   7.621 126.492  0.00  0.00    +0.000 C 
ATOM     27  C   UNL     1     -11.038   8.377 127.789  0.00  0.00    +0.000 C 
ATOM     28  O   UNL     1      -9.959   8.554 128.353  0.00  0.00    +0.000 OA
ENDBRANCH  25  27
ENDBRANCH  24  25
ENDBRANCH  23  24
ENDBRANCH  19  23
ENDBRANCH   1  21
BRANCH  10  29
ATOM     29  C   UNL     1      -9.096   2.256 132.729  0.00  0.00    +0.000 C 
BRANCH  29  30
ATOM     30  C   UNL     1      -7.925   1.338 132.345  0.00  0.00    +0.000 C 
ATOM     31  O   UNL     1      -7.443   0.628 133.168  0.00  0.00    +0.000 OA
ATOM     32  N   UNL     1      -7.411   1.469 131.052  0.00  0.00    +0.000 N 
ATOM     33  H   UNL     1      -7.365   2.418 130.723  0.00  0.00    +0.000 HD
BRANCH  32  34
ATOM     34  C   UNL     1      -6.418   0.497 130.504  0.00  0.00    +0.000 C 
BRANCH  34  35
ATOM     35  C   UNL     1      -4.935   0.813 130.812  0.00  0.00    +0.000 C 
ATOM     36  N   UNL     1      -4.660   1.812 131.696  0.00  0.00    +0.000 N 
ATOM     37  O   UNL     1      -4.001   0.177 130.325  0.00  0.00    +0.000 OA
ATOM     38  H   UNL     1      -5.333   2.373 132.183  0.00  0.00    +0.000 HD
ATOM     39  H   UNL     1      -3.683   1.992 131.890  0.00  0.00    +0.000 HD
ENDBRANCH  34  35
BRANCH  34  40
ATOM     40  C   UNL     1      -6.535   0.349 128.948  0.00  0.00    +0.000 C 
BRANCH  40  41
ATOM     41  C   UNL     1      -6.431   1.595 128.098  0.00  0.00    +0.000 A 
ATOM     42  C   UNL     1      -7.569   2.298 127.737  0.00  0.00    +0.000 A 
ATOM     43  C   UNL     1      -7.498   3.474 126.996  0.00  0.00    +0.000 A 
ATOM     44  C   UNL     1      -6.301   3.823 126.334  0.00  0.00    +0.000 A 
ATOM     45 CL   UNL     1      -6.062   5.308 125.417  0.00  0.00    +0.000 Cl
ATOM     46  C   UNL     1      -5.160   3.070 126.622  0.00  0.00    +0.000 A 
ATOM     47 CL   UNL     1      -3.604   3.510 126.000  0.00  0.00    +0.000 Cl
ATOM     48  C   UNL     1      -5.213   2.021 127.553  0.00  0.00    +0.000 A 
ENDBRANCH  40  41
ENDBRANCH  34  40
ENDBRANCH  32  34
ENDBRANCH  29  30
ENDBRANCH  10  29
TORSDOF 12
ENDMDL
MODEL 7
REMARK VINA RESULT:      -8.5      2.606      4.771
REMARK  Name = CHEMBL277425
REMARK  13 active torsions:
REMARK  status: ('A' for Active; 'I' for Inactive)
REMARK    1  A    between atoms: C_1  and  C_2
REMARK    2  A    between atoms: C_2  and  C_4
REMARK    3  A    between atoms: C_4  and  C_5
REMARK    4  A    between atoms: C_5  and  C_6
REMARK    5  A    between atoms: C_6  and  C_7
REMARK    6  A    between atoms: N_9  and  C_10
REMARK    7  A    between atoms: C_12  and  C_13
REMARK    8  A    between atoms: N_25  and  C_26
REMARK    9  A    between atoms: C_26  and  C_27
REMARK   10  A    between atoms: N_29  and  C_30
REMARK   11  A    between atoms: C_30  and  C_31
REMARK   12  A    between atoms: C_30  and  C_40
REMARK   13  A    between atoms: C_31  and  C_32
REMARK                            x       y       z     vdW  Elec       q    Type
REMARK                         _______ _______ _______ _____ _____    ______ ____
ROOT
ATOM      1  C   UNL     1      -8.670   4.930 130.807  0.00  0.00    +0.000 C 
ATOM      2  N   UNL     1      -7.452   5.703 130.527  0.00  0.00    +0.000 NA
ATOM      3  C   UNL     1      -6.337   5.150 130.882  0.00  0.00    +0.000 C 
ATOM      4  C   UNL     1      -6.282   3.944 131.692  0.00  0.00    +0.000 A 
ATOM      5  C   UNL     1      -5.377   4.038 132.713  0.00  0.00    +0.000 A 
ATOM      6  C   UNL     1      -5.420   3.047 133.621  0.00  0.00    +0.000 A 
ATOM      7  C   UNL     1      -6.399   2.044 133.611  0.00  0.00    +0.000 A 
ATOM      8  C   UNL     1      -7.187   1.858 132.506  0.00  0.00    +0.000 A 
ATOM      9  C   UNL     1      -7.121   2.807 131.518  0.00  0.00    +0.000 A 
ATOM     10  N   UNL     1      -7.899   2.611 130.364  0.00  0.00    +0.000 N 
ATOM     11  C   UNL     1      -8.620   3.669 129.866  0.00  0.00    +0.000 C 
ATOM     12  O   UNL     1      -9.165   3.589 128.764  0.00  0.00    +0.000 OA
ENDROOT
BRANCH   3  13
ATOM     13  C   UNL     1      -4.995   5.822 130.568  0.00  0.00    +0.000 C 
ATOM     14  C   UNL     1      -4.581   5.391 129.174  0.00  0.00    +0.000 C 
ATOM     15  C   UNL     1      -3.391   6.185 128.666  0.00  0.00    +0.000 C 
ATOM     16  C   UNL     1      -3.644   7.685 128.774  0.00  0.00    +0.000 C 
ATOM     17  C   UNL     1      -3.944   8.095 130.211  0.00  0.00    +0.000 C 
ATOM     18  C   UNL     1      -5.147   7.336 130.745  0.00  0.00    +0.000 C 
ENDBRANCH   3  13
BRANCH   1  21
ATOM     19  C   UNL     1     -10.499   6.385 131.403  0.00  0.00    +0.000 C 
ATOM     20  O   UNL     1     -10.181   6.395 132.590  0.00  0.00    +0.000 OA
ATOM     21  N   UNL     1      -9.767   5.758 130.426  0.00  0.00    +0.000 N 
ATOM     22  H   UNL     1      -9.783   6.056 129.466  0.00  0.00    +0.000 HD
BRANCH  19  23
ATOM     23  C   UNL     1     -11.750   7.048 130.898  0.00  0.00    +0.000 C 
BRANCH  23  24
ATOM     24  C   UNL     1     -11.404   7.834 129.637  0.00  0.00    +0.000 C 
BRANCH  24  25
ATOM     25  C   UNL     1     -12.528   7.827 128.619  0.00  0.00    +0.000 C 
BRANCH  25  27
ATOM     26  C   UNL     1     -10.636   7.770 126.880  0.00  0.00    +0.000 C 
ATOM     27  C   UNL     1     -12.028   7.352 127.266  0.00  0.00    +0.000 C 
ATOM     28  O   UNL     1     -12.705   6.664 126.503  0.00  0.00    +0.000 OA
ENDBRANCH  25  27
ENDBRANCH  24  25
ENDBRANCH  23  24
ENDBRANCH  19  23
ENDBRANCH   1  21
BRANCH  10  29
ATOM     29  C   UNL     1      -8.008   1.324 129.657  0.00  0.00    +0.000 C 
BRANCH  29  30
ATOM     30  C   UNL     1      -6.822   1.017 128.729  0.00  0.00    +0.000 C 
ATOM     31  O   UNL     1      -6.169   0.042 128.916  0.00  0.00    +0.000 OA
ATOM     32  N   UNL     1      -6.506   1.976 127.763  0.00  0.00    +0.000 N 
ATOM     33  H   UNL     1      -6.593   2.925 128.083  0.00  0.00    +0.000 HD
BRANCH  32  34
ATOM     34  C   UNL     1      -5.514   1.697 126.681  0.00  0.00    +0.000 C 
BRANCH  34  35
ATOM     35  C   UNL     1      -4.294   2.648 126.633  0.00  0.00    +0.000 C 
ATOM     36  N   UNL     1      -3.256   2.405 127.480  0.00  0.00    +0.000 N 
ATOM     37  O   UNL     1      -4.207   3.583 125.839  0.00  0.00    +0.000 OA
ATOM     38  H   UNL     1      -3.195   1.655 128.143  0.00  0.00    +0.000 HD
ATOM     39  H   UNL     1      -2.464   3.033 127.422  0.00  0.00    +0.000 HD
ENDBRANCH  34  35
BRANCH  34  40
ATOM     40  C   UNL     1      -6.169   1.730 125.258  0.00  0.00    +0.000 C 
BRANCH  40  41
ATOM     41  C   UNL     1      -6.965   0.526 124.806  0.00  0.00    +0.000 A 
ATOM     42  C   UNL     1      -6.541  -0.756 125.116  0.00  0.00    +0.000 A 
ATOM     43  C   UNL     1      -7.279  -1.878 124.754  0.00  0.00    +0.000 A 
ATOM     44  C   UNL     1      -8.318  -1.768 123.805  0.00  0.00    +0.000 A 
ATOM     45 CL   UNL     1      -9.365  -3.094 123.307  0.00  0.00    +0.000 Cl
ATOM     46  C   UNL     1      -8.703  -0.482 123.416  0.00  0.00    +0.000 A 
ATOM     47 CL   UNL     1     -10.073  -0.219 122.388  0.00  0.00    +0.000 Cl
ATOM     48  C   UNL     1      -8.085   0.648 123.972  0.00  0.00    +0.000 A 
ENDBRANCH  40  41
ENDBRANCH  34  40
ENDBRANCH  32  34
ENDBRANCH  29  30
ENDBRANCH  10  29
TORSDOF 12
ENDMDL
MODEL 8
REMARK VINA RESULT:      -8.4      3.732      6.209
REMARK  Name = CHEMBL277425
REMARK  13 active torsions:
REMARK  status: ('A' for Active; 'I' for Inactive)
REMARK    1  A    between atoms: C_1  and  C_2
REMARK    2  A    between atoms: C_2  and  C_4
REMARK    3  A    between atoms: C_4  and  C_5
REMARK    4  A    between atoms: C_5  and  C_6
REMARK    5  A    between atoms: C_6  and  C_7
REMARK    6  A    between atoms: N_9  and  C_10
REMARK    7  A    between atoms: C_12  and  C_13
REMARK    8  A    between atoms: N_25  and  C_26
REMARK    9  A    between atoms: C_26  and  C_27
REMARK   10  A    between atoms: N_29  and  C_30
REMARK   11  A    between atoms: C_30  and  C_31
REMARK   12  A    between atoms: C_30  and  C_40
REMARK   13  A    between atoms: C_31  and  C_32
REMARK                            x       y       z     vdW  Elec       q    Type
REMARK                         _______ _______ _______ _____ _____    ______ ____
ROOT
ATOM      1  C   UNL     1      -8.166   4.184 129.369  0.00  0.00    +0.000 C 
ATOM      2  N   UNL     1      -8.519   3.603 128.066  0.00  0.00    +0.000 NA
ATOM      3  C   UNL     1      -7.615   2.859 127.515  0.00  0.00    +0.000 C 
ATOM      4  C   UNL     1      -6.258   2.760 128.029  0.00  0.00    +0.000 A 
ATOM      5  C   UNL     1      -5.314   2.863 127.044  0.00  0.00    +0.000 A 
ATOM      6  C   UNL     1      -4.044   2.988 127.468  0.00  0.00    +0.000 A 
ATOM      7  C   UNL     1      -3.701   3.131 128.820  0.00  0.00    +0.000 A 
ATOM      8  C   UNL     1      -4.619   2.860 129.799  0.00  0.00    +0.000 A 
ATOM      9  C   UNL     1      -5.916   2.651 129.406  0.00  0.00    +0.000 A 
ATOM     10  N   UNL     1      -6.861   2.338 130.398  0.00  0.00    +0.000 N 
ATOM     11  C   UNL     1      -8.075   2.980 130.380  0.00  0.00    +0.000 C 
ATOM     12  O   UNL     1      -8.991   2.607 131.115  0.00  0.00    +0.000 OA
ENDROOT
BRANCH   3  13
ATOM     13  C   UNL     1      -7.897   2.131 126.195  0.00  0.00    +0.000 C 
ATOM     14  C   UNL     1      -8.882   1.015 126.488  0.00  0.00    +0.000 C 
ATOM     15  C   UNL     1      -9.418   0.385 125.215  0.00  0.00    +0.000 C 
ATOM     16  C   UNL     1      -9.980   1.442 124.271  0.00  0.00    +0.000 C 
ATOM     17  C   UNL     1      -8.926   2.482 123.910  0.00  0.00    +0.000 C 
ATOM     18  C   UNL     1      -8.383   3.152 125.162  0.00  0.00    +0.000 C 
ENDBRANCH   3  13
BRANCH   1  21
ATOM     19  C   UNL     1      -8.984   6.256 130.291  0.00  0.00    +0.000 C 
ATOM     20  O   UNL     1      -7.857   6.741 130.355  0.00  0.00    +0.000 OA
ATOM     21  N   UNL     1      -9.253   5.028 129.739  0.00  0.00    +0.000 N 
ATOM     22  H   UNL     1     -10.146   4.803 129.335  0.00  0.00    +0.000 HD
BRANCH  19  23
ATOM     23  C   UNL     1     -10.196   6.959 130.836  0.00  0.00    +0.000 C 
BRANCH  23  24
ATOM     24  C   UNL     1     -11.173   7.197 129.688  0.00  0.00    +0.000 C 
BRANCH  24  25
ATOM     25  C   UNL     1     -10.555   7.986 128.550  0.00  0.00    +0.000 C 
BRANCH  25  27
ATOM     26  C   UNL     1     -11.868   7.352 126.434  0.00  0.00    +0.000 C 
ATOM     27  C   UNL     1     -10.617   7.199 127.253  0.00  0.00    +0.000 C 
ATOM     28  O   UNL     1      -9.707   6.466 126.868  0.00  0.00    +0.000 OA
ENDBRANCH  25  27
ENDBRANCH  24  25
ENDBRANCH  23  24
ENDBRANCH  19  23
ENDBRANCH   1  21
BRANCH  10  29
ATOM     29  C   UNL     1      -6.624   1.368 131.481  0.00  0.00    +0.000 C 
BRANCH  29  30
ATOM     30  C   UNL     1      -6.762   1.960 132.892  0.00  0.00    +0.000 C 
ATOM     31  O   UNL     1      -7.195   1.285 133.770  0.00  0.00    +0.000 OA
ATOM     32  N   UNL     1      -6.466   3.317 133.046  0.00  0.00    +0.000 N 
ATOM     33  H   UNL     1      -6.779   3.893 132.284  0.00  0.00    +0.000 HD
BRANCH  32  34
ATOM     34  C   UNL     1      -6.367   3.947 134.397  0.00  0.00    +0.000 C 
BRANCH  34  35
ATOM     35  C   UNL     1      -7.598   4.774 134.839  0.00  0.00    +0.000 C 
ATOM     36  N   UNL     1      -8.837   4.286 134.553  0.00  0.00    +0.000 N 
ATOM     37  O   UNL     1      -7.504   5.825 135.471  0.00  0.00    +0.000 OA
ATOM     38  H   UNL     1      -9.040   3.427 134.078  0.00  0.00    +0.000 HD
ATOM     39  H   UNL     1      -9.626   4.839 134.863  0.00  0.00    +0.000 HD
ENDBRANCH  34  35
BRANCH  34  40
ATOM     40  C   UNL     1      -5.122   4.890 134.517  0.00  0.00    +0.000 C 
BRANCH  40  41
ATOM     41  C   UNL     1      -4.347   5.221 133.261  0.00  0.00    +0.000 A 
ATOM     42  C   UNL     1      -3.112   4.640 133.022  0.00  0.00    +0.000 A 
ATOM     43  C   UNL     1      -2.400   4.890 131.853  0.00  0.00    +0.000 A 
ATOM     44  C   UNL     1      -2.766   5.968 131.017  0.00  0.00    +0.000 A 
ATOM     45 CL   UNL     1      -1.989   6.354 129.484  0.00  0.00    +0.000 Cl
ATOM     46  C   UNL     1      -3.969   6.621 131.295  0.00  0.00    +0.000 A 
ATOM     47 CL   UNL     1      -4.600   7.844 130.241  0.00  0.00    +0.000 Cl
ATOM     48  C   UNL     1      -4.783   6.198 132.356  0.00  0.00    +0.000 A 
ENDBRANCH  40  41
ENDBRANCH  34  40
ENDBRANCH  32  34
ENDBRANCH  29  30
ENDBRANCH  10  29
TORSDOF 12
ENDMDL
MODEL 9
REMARK VINA RESULT:      -8.4      2.122      3.638
REMARK  Name = CHEMBL277425
REMARK  13 active torsions:
REMARK  status: ('A' for Active; 'I' for Inactive)
REMARK    1  A    between atoms: C_1  and  C_2
REMARK    2  A    between atoms: C_2  and  C_4
REMARK    3  A    between atoms: C_4  and  C_5
REMARK    4  A    between atoms: C_5  and  C_6
REMARK    5  A    between atoms: C_6  and  C_7
REMARK    6  A    between atoms: N_9  and  C_10
REMARK    7  A    between atoms: C_12  and  C_13
REMARK    8  A    between atoms: N_25  and  C_26
REMARK    9  A    between atoms: C_26  and  C_27
REMARK   10  A    between atoms: N_29  and  C_30
REMARK   11  A    between atoms: C_30  and  C_31
REMARK   12  A    between atoms: C_30  and  C_40
REMARK   13  A    between atoms: C_31  and  C_32
REMARK                            x       y       z     vdW  Elec       q    Type
REMARK                         _______ _______ _______ _____ _____    ______ ____
ROOT
ATOM      1  C   UNL     1      -8.032   4.768 130.747  0.00  0.00    +0.000 C 
ATOM      2  N   UNL     1      -6.738   4.813 130.052  0.00  0.00    +0.000 NA
ATOM      3  C   UNL     1      -5.817   4.034 130.521  0.00  0.00    +0.000 C 
ATOM      4  C   UNL     1      -5.963   3.311 131.774  0.00  0.00    +0.000 A 
ATOM      5  C   UNL     1      -4.853   3.407 132.569  0.00  0.00    +0.000 A 
ATOM      6  C   UNL     1      -4.993   2.940 133.822  0.00  0.00    +0.000 A 
ATOM      7  C   UNL     1      -6.219   2.498 134.339  0.00  0.00    +0.000 A 
ATOM      8  C   UNL     1      -7.273   2.247 133.502  0.00  0.00    +0.000 A 
ATOM      9  C   UNL     1      -7.145   2.639 132.194  0.00  0.00    +0.000 A 
ATOM     10  N   UNL     1      -8.206   2.356 131.316  0.00  0.00    +0.000 N 
ATOM     11  C   UNL     1      -8.637   3.343 130.462  0.00  0.00    +0.000 C 
ATOM     12  O   UNL     1      -9.435   3.082 129.559  0.00  0.00    +0.000 OA
ENDROOT
BRANCH   3  13
ATOM     13  C   UNL     1      -4.451   3.931 129.831  0.00  0.00    +0.000 C 
ATOM     14  C   UNL     1      -4.593   2.961 128.674  0.00  0.00    +0.000 C 
ATOM     15  C   UNL     1      -3.370   2.969 127.776  0.00  0.00    +0.000 C 
ATOM     16  C   UNL     1      -3.026   4.385 127.325  0.00  0.00    +0.000 C 
ATOM     17  C   UNL     1      -2.779   5.302 128.517  0.00  0.00    +0.000 C 
ATOM     18  C   UNL     1      -3.995   5.337 129.428  0.00  0.00    +0.000 C 
ENDBRANCH   3  13
BRANCH   1  21
ATOM     19  C   UNL     1      -9.673   6.526 130.919  0.00  0.00    +0.000 C 
ATOM     20  O   UNL     1      -9.642   6.515 132.147  0.00  0.00    +0.000 OA
ATOM     21  N   UNL     1      -8.852   5.758 130.131  0.00  0.00    +0.000 N 
ATOM     22  H   UNL     1      -8.594   6.029 129.198  0.00  0.00    +0.000 HD
BRANCH  19  23
ATOM     23  C   UNL     1     -10.640   7.377 130.144  0.00  0.00    +0.000 C 
BRANCH  23  24
ATOM     24  C   UNL     1     -10.113   7.534 128.721  0.00  0.00    +0.000 C 
BRANCH  24  25
ATOM     25  C   UNL     1     -11.032   8.367 127.848  0.00  0.00    +0.000 C 
BRANCH  25  27
ATOM     26  C   UNL     1     -13.560   7.911 127.932  0.00  0.00    +0.000 C 
ATOM     27  C   UNL     1     -12.215   7.543 127.371  0.00  0.00    +0.000 C 
ATOM     28  O   UNL     1     -12.108   6.615 126.570  0.00  0.00    +0.000 OA
ENDBRANCH  25  27
ENDBRANCH  24  25
ENDBRANCH  23  24
ENDBRANCH  19  23
ENDBRANCH   1  21
BRANCH  10  29
ATOM     29  C   UNL     1      -8.907   1.062 131.265  0.00  0.00    +0.000 C 
BRANCH  29  30
ATOM     30  C   UNL     1      -8.023  -0.110 130.810  0.00  0.00    +0.000 C 
ATOM     31  O   UNL     1      -8.072  -1.142 131.398  0.00  0.00    +0.000 OA
ATOM     32  N   UNL     1      -7.116   0.140 129.777  0.00  0.00    +0.000 N 
ATOM     33  H   UNL     1      -6.675   1.042 129.828  0.00  0.00    +0.000 HD
BRANCH  32  34
ATOM     34  C   UNL     1      -6.358  -0.966 129.118  0.00  0.00    +0.000 C 
BRANCH  34  35
ATOM     35  C   UNL     1      -4.999  -1.322 129.766  0.00  0.00    +0.000 C 
ATOM     36  N   UNL     1      -3.939  -0.500 129.529  0.00  0.00    +0.000 N 
ATOM     37  O   UNL     1      -4.847  -2.286 130.514  0.00  0.00    +0.000 OA
ATOM     38  H   UNL     1      -3.949   0.332 128.970  0.00  0.00    +0.000 HD
ATOM     39  H   UNL     1      -3.063  -0.747 129.973  0.00  0.00    +0.000 HD
ENDBRANCH  34  35
BRANCH  34  40
ATOM     40  C   UNL     1      -6.075  -0.667 127.606  0.00  0.00    +0.000 C 
BRANCH  40  41
ATOM     41  C   UNL     1      -6.974  -1.300 126.568  0.00  0.00    +0.000 A 
ATOM     42  C   UNL     1      -8.100  -2.010 126.951  0.00  0.00    +0.000 A 
ATOM     43  C   UNL     1      -8.970  -2.563 126.016  0.00  0.00    +0.000 A 
ATOM     44  C   UNL     1      -8.578  -2.678 124.665  0.00  0.00    +0.000 A 
ATOM     45 CL   UNL     1      -9.603  -3.300 123.375  0.00  0.00    +0.000 Cl
ATOM     46  C   UNL     1      -7.398  -2.038 124.278  0.00  0.00    +0.000 A 
ATOM     47 CL   UNL     1      -6.906  -1.970 122.618  0.00  0.00    +0.000 Cl
ATOM     48  C   UNL     1      -6.652  -1.294 125.205  0.00  0.00    +0.000 A 
ENDBRANCH  40  41
ENDBRANCH  34  40
ENDBRANCH  32  34
ENDBRANCH  29  30
ENDBRANCH  10  29
TORSDOF 12
ENDMDL
