MODEL 1
REMARK VINA RESULT:     -12.3      0.000      0.000
REMARK  Name = CHEMBL30510
REMARK  7 active torsions:
REMARK  status: ('A' for Active; 'I' for Inactive)
REMARK    1  A    between atoms: C_2  and  C_3
REMARK    2  A    between atoms: C_3  and  N_4
REMARK    3  A    between atoms: C_7  and  C_8
REMARK    4  A    between atoms: N_17  and  C_18
REMARK    5  A    between atoms: C_18  and  C_19
REMARK    6  A    between atoms: C_23  and  C_24
REMARK    7  A    between atoms: C_29  and  N_30
REMARK                            x       y       z     vdW  Elec       q    Type
REMARK                         _______ _______ _______ _____ _____    ______ ____
ROOT
ATOM      1  C   UNL     1      -4.803   5.238 134.058  0.00  0.00    +0.000 A 
ATOM      2  C   UNL     1      -3.985   6.343 134.285  0.00  0.00    +0.000 A 
ATOM      3  C   UNL     1      -3.341   6.574 133.042  0.00  0.00    +0.000 A 
ATOM      4  C   UNL     1      -3.847   6.954 131.765  0.00  0.00    +0.000 A 
ATOM      5  C   UNL     1      -3.212   6.668 130.536  0.00  0.00    +0.000 A 
ATOM      6  C   UNL     1      -1.969   6.056 130.616  0.00  0.00    +0.000 A 
ATOM      7  C   UNL     1      -1.636   5.411 131.841  0.00  0.00    +0.000 A 
ATOM      8  C   UNL     1      -2.645   5.382 132.877  0.00  0.00    +0.000 A 
ATOM      9  O   UNL     1      -3.958   4.493 133.081  0.00  0.00    +0.000 OA
ENDROOT
BRANCH   5  10
ATOM     10  C   UNL     1      -3.934   6.836 129.212  0.00  0.00    +0.000 C 
ATOM     11  O   UNL     1      -3.909   7.939 128.669  0.00  0.00    +0.000 OA
ATOM     12  N   UNL     1      -4.514   5.680 128.611  0.00  0.00    +0.000 N 
ATOM     13  C   UNL     1      -4.122   5.181 127.283  0.00  0.00    +0.000 C 
ATOM     14  C   UNL     1      -5.342   4.715 126.451  0.00  0.00    +0.000 C 
ATOM     15  C   UNL     1      -6.256   3.353 127.211  0.00  0.00    +0.000 C 
ATOM     16  C   UNL     1      -6.640   4.327 128.575  0.00  0.00    +0.000 C 
ATOM     17  C   UNL     1      -5.392   4.776 129.348  0.00  0.00    +0.000 C 
BRANCH  15  18
ATOM     18  N   UNL     1      -6.290   1.543 126.732  0.00  0.00    +0.000 N 
ATOM     19  C   UNL     1      -7.450   1.938 126.014  0.00  0.00    +0.000 C 
ATOM     20  O   UNL     1      -8.472   2.542 126.430  0.00  0.00    +0.000 OA
ATOM     21  O   UNL     1      -7.265   1.905 124.705  0.00  0.00    +0.000 OA
ATOM     22  C   UNL     1      -7.873   0.699 124.459  0.00  0.00    +0.000 C 
ATOM     23  C   UNL     1      -6.624  -0.066 124.441  0.00  0.00    +0.000 A 
ATOM     24  C   UNL     1      -6.624  -1.001 123.217  0.00  0.00    +0.000 A 
ATOM     25  C   UNL     1      -6.068  -2.242 123.110  0.00  0.00    +0.000 A 
ATOM     26  C   UNL     1      -5.550  -2.567 124.337  0.00  0.00    +0.000 A 
ATOM     27  C   UNL     1      -5.462  -1.481 125.610  0.00  0.00    +0.000 A 
ATOM     28  C   UNL     1      -5.906   0.052 125.671  0.00  0.00    +0.000 A 
ENDBRANCH  15  18
ENDBRANCH   5  10
BRANCH   1  29
ATOM     29  C   UNL     1      -5.846   4.706 135.120  0.00  0.00    +0.000 C 
BRANCH  29  32
ATOM     30  O   UNL     1      -9.188   3.623 134.101  0.00  0.00    +0.000 OA
ATOM     31  C   UNL     1      -8.243   4.411 134.214  0.00  0.00    +0.000 C 
ATOM     32  N   UNL     1      -7.067   3.947 134.822  0.00  0.00    +0.000 N 
ATOM     33  H   UNL     1      -7.121   2.965 135.064  0.00  0.00    +0.000 HD
BRANCH  31  34
ATOM     34  C   UNL     1      -8.388   5.881 133.713  0.00  0.00    +0.000 C 
BRANCH  34  35
ATOM     35  N   UNL     1      -9.089   6.077 132.400  0.00  0.00    +0.000 N 
ATOM     36  C   UNL     1     -10.471   6.005 132.341  0.00  0.00    +0.000 A 
ATOM     37  C   UNL     1     -11.154   6.541 131.324  0.00  0.00    +0.000 A 
ATOM     38  C   UNL     1     -10.343   6.818 130.120  0.00  0.00    +0.000 A 
ATOM     39  N   UNL     1      -9.048   6.816 130.117  0.00  0.00    +0.000 NA
ATOM     40  C   UNL     1      -8.372   6.592 131.305  0.00  0.00    +0.000 A 
ATOM     41  O   UNL     1      -7.173   6.843 131.403  0.00  0.00    +0.000 OA
BRANCH  38  42
ATOM     42  C   UNL     1     -11.113   7.052 128.855  0.00  0.00    +0.000 A 
ATOM     43  C   UNL     1     -12.515   7.010 128.842  0.00  0.00    +0.000 A 
ATOM     44  C   UNL     1     -13.211   7.056 127.624  0.00  0.00    +0.000 A 
ATOM     45  C   UNL     1     -12.522   7.280 126.434  0.00  0.00    +0.000 A 
ATOM     46  C   UNL     1     -11.144   7.479 126.465  0.00  0.00    +0.000 A 
ATOM     47  C   UNL     1     -10.433   7.296 127.657  0.00  0.00    +0.000 A 
ENDBRANCH  38  42
ENDBRANCH  34  35
ENDBRANCH  31  34
ENDBRANCH  29  32
ENDBRANCH   1  29
TORSDOF 7
ENDMDL
MODEL 2
REMARK VINA RESULT:     -11.6      3.005      4.952
REMARK  Name = CHEMBL30510
REMARK  7 active torsions:
REMARK  status: ('A' for Active; 'I' for Inactive)
REMARK    1  A    between atoms: C_2  and  C_3
REMARK    2  A    between atoms: C_3  and  N_4
REMARK    3  A    between atoms: C_7  and  C_8
REMARK    4  A    between atoms: N_17  and  C_18
REMARK    5  A    between atoms: C_18  and  C_19
REMARK    6  A    between atoms: C_23  and  C_24
REMARK    7  A    between atoms: C_29  and  N_30
REMARK                            x       y       z     vdW  Elec       q    Type
REMARK                         _______ _______ _______ _____ _____    ______ ____
ROOT
ATOM      1  C   UNL     1      -4.614   4.717 133.888  0.00  0.00    +0.000 A 
ATOM      2  C   UNL     1      -3.998   5.905 134.280  0.00  0.00    +0.000 A 
ATOM      3  C   UNL     1      -3.329   6.362 133.115  0.00  0.00    +0.000 A 
ATOM      4  C   UNL     1      -3.814   6.793 131.846  0.00  0.00    +0.000 A 
ATOM      5  C   UNL     1      -3.073   6.740 130.646  0.00  0.00    +0.000 A 
ATOM      6  C   UNL     1      -1.754   6.322 130.759  0.00  0.00    +0.000 A 
ATOM      7  C   UNL     1      -1.393   5.609 131.937  0.00  0.00    +0.000 A 
ATOM      8  C   UNL     1      -2.442   5.316 132.889  0.00  0.00    +0.000 A 
ATOM      9  O   UNL     1      -3.605   4.219 132.909  0.00  0.00    +0.000 OA
ENDROOT
BRANCH   5  10
ATOM     10  C   UNL     1      -3.735   6.934 129.294  0.00  0.00    +0.000 C 
ATOM     11  O   UNL     1      -3.669   8.043 128.765  0.00  0.00    +0.000 OA
ATOM     12  N   UNL     1      -4.306   5.795 128.656  0.00  0.00    +0.000 N 
ATOM     13  C   UNL     1      -3.865   5.304 127.340  0.00  0.00    +0.000 C 
ATOM     14  C   UNL     1      -5.056   4.867 126.451  0.00  0.00    +0.000 C 
ATOM     15  C   UNL     1      -6.023   3.512 127.156  0.00  0.00    +0.000 C 
ATOM     16  C   UNL     1      -6.450   4.477 128.513  0.00  0.00    +0.000 C 
ATOM     17  C   UNL     1      -5.229   4.897 129.344  0.00  0.00    +0.000 C 
BRANCH  15  18
ATOM     18  N   UNL     1      -6.066   1.708 126.654  0.00  0.00    +0.000 N 
ATOM     19  C   UNL     1      -7.329   2.071 126.117  0.00  0.00    +0.000 C 
ATOM     20  O   UNL     1      -8.300   2.633 126.685  0.00  0.00    +0.000 OA
ATOM     21  O   UNL     1      -7.333   2.061 124.795  0.00  0.00    +0.000 OA
ATOM     22  C   UNL     1      -7.930   0.837 124.617  0.00  0.00    +0.000 C 
ATOM     23  C   UNL     1      -6.672   0.117 124.406  0.00  0.00    +0.000 A 
ATOM     24  C   UNL     1      -6.816  -0.801 123.179  0.00  0.00    +0.000 A 
ATOM     25  C   UNL     1      -6.241  -2.020 122.972  0.00  0.00    +0.000 A 
ATOM     26  C   UNL     1      -5.541  -2.342 124.106  0.00  0.00    +0.000 A 
ATOM     27  C   UNL     1      -5.307  -1.270 125.373  0.00  0.00    +0.000 A 
ATOM     28  C   UNL     1      -5.789   0.246 125.523  0.00  0.00    +0.000 A 
ENDBRANCH  15  18
ENDBRANCH   5  10
BRANCH   1  29
ATOM     29  C   UNL     1      -5.617   3.922 134.815  0.00  0.00    +0.000 C 
BRANCH  29  32
ATOM     30  O   UNL     1      -8.638   2.363 133.463  0.00  0.00    +0.000 OA
ATOM     31  C   UNL     1      -7.427   2.474 133.682  0.00  0.00    +0.000 C 
ATOM     32  N   UNL     1      -6.995   3.551 134.472  0.00  0.00    +0.000 N 
ATOM     33  H   UNL     1      -7.768   4.105 134.820  0.00  0.00    +0.000 HD
BRANCH  31  34
ATOM     34  C   UNL     1      -6.424   1.450 133.066  0.00  0.00    +0.000 C 
BRANCH  34  35
ATOM     35  N   UNL     1      -6.945   0.587 131.953  0.00  0.00    +0.000 N 
ATOM     36  C   UNL     1      -6.677   0.925 130.637  0.00  0.00    +0.000 A 
ATOM     37  C   UNL     1      -6.766   0.023 129.654  0.00  0.00    +0.000 A 
ATOM     38  C   UNL     1      -7.551  -1.182 129.998  0.00  0.00    +0.000 A 
ATOM     39  N   UNL     1      -7.889  -1.490 131.209  0.00  0.00    +0.000 NA
ATOM     40  C   UNL     1      -7.463  -0.687 132.253  0.00  0.00    +0.000 A 
ATOM     41  O   UNL     1      -7.529  -1.078 133.416  0.00  0.00    +0.000 OA
BRANCH  38  42
ATOM     42  C   UNL     1      -7.995  -2.023 128.838  0.00  0.00    +0.000 A 
ATOM     43  C   UNL     1      -8.083  -1.487 127.546  0.00  0.00    +0.000 A 
ATOM     44  C   UNL     1      -8.666  -2.233 126.510  0.00  0.00    +0.000 A 
ATOM     45  C   UNL     1      -9.035  -3.559 126.727  0.00  0.00    +0.000 A 
ATOM     46  C   UNL     1      -8.803  -4.142 127.970  0.00  0.00    +0.000 A 
ATOM     47  C   UNL     1      -8.352  -3.360 129.041  0.00  0.00    +0.000 A 
ENDBRANCH  38  42
ENDBRANCH  34  35
ENDBRANCH  31  34
ENDBRANCH  29  32
ENDBRANCH   1  29
TORSDOF 7
ENDMDL
MODEL 3
REMARK VINA RESULT:     -11.4      3.134      9.095
REMARK  Name = CHEMBL30510
REMARK  7 active torsions:
REMARK  status: ('A' for Active; 'I' for Inactive)
REMARK    1  A    between atoms: C_2  and  C_3
REMARK    2  A    between atoms: C_3  and  N_4
REMARK    3  A    between atoms: C_7  and  C_8
REMARK    4  A    between atoms: N_17  and  C_18
REMARK    5  A    between atoms: C_18  and  C_19
REMARK    6  A    between atoms: C_23  and  C_24
REMARK    7  A    between atoms: C_29  and  N_30
REMARK                            x       y       z     vdW  Elec       q    Type
REMARK                         _______ _______ _______ _____ _____    ______ ____
ROOT
ATOM      1  C   UNL     1      -8.116  -2.981 127.735  0.00  0.00    +0.000 A 
ATOM      2  C   UNL     1      -8.703  -3.248 128.971  0.00  0.00    +0.000 A 
ATOM      3  C   UNL     1      -7.754  -2.797 129.923  0.00  0.00    +0.000 A 
ATOM      4  C   UNL     1      -7.243  -1.499 130.217  0.00  0.00    +0.000 A 
ATOM      5  C   UNL     1      -5.985  -1.248 130.807  0.00  0.00    +0.000 A 
ATOM      6  C   UNL     1      -5.260  -2.365 131.201  0.00  0.00    +0.000 A 
ATOM      7  C   UNL     1      -5.623  -3.616 130.626  0.00  0.00    +0.000 A 
ATOM      8  C   UNL     1      -6.669  -3.614 129.626  0.00  0.00    +0.000 A 
ATOM      9  O   UNL     1      -6.684  -3.208 128.080  0.00  0.00    +0.000 OA
ENDROOT
BRANCH   5  10
ATOM     10  C   UNL     1      -5.379   0.143 130.824  0.00  0.00    +0.000 C 
ATOM     11  O   UNL     1      -4.162   0.251 130.685  0.00  0.00    +0.000 OA
ATOM     12  N   UNL     1      -6.262   1.260 130.893  0.00  0.00    +0.000 N 
ATOM     13  C   UNL     1      -6.325   2.301 129.853  0.00  0.00    +0.000 C 
ATOM     14  C   UNL     1      -6.459   3.721 130.457  0.00  0.00    +0.000 C 
ATOM     15  C   UNL     1      -7.959   3.949 131.439  0.00  0.00    +0.000 C 
ATOM     16  C   UNL     1      -7.458   2.736 132.549  0.00  0.00    +0.000 C 
ATOM     17  C   UNL     1      -7.322   1.355 131.891  0.00  0.00    +0.000 C 
BRANCH  15  18
ATOM     18  N   UNL     1      -9.519   4.891 131.007  0.00  0.00    +0.000 N 
ATOM     19  C   UNL     1      -8.667   6.017 131.153  0.00  0.00    +0.000 C 
ATOM     20  O   UNL     1      -7.937   6.338 132.125  0.00  0.00    +0.000 OA
ATOM     21  O   UNL     1      -8.424   6.615 129.999  0.00  0.00    +0.000 OA
ATOM     22  C   UNL     1      -9.327   7.641 130.123  0.00  0.00    +0.000 C 
ATOM     23  C   UNL     1     -10.366   6.988 129.323  0.00  0.00    +0.000 A 
ATOM     24  C   UNL     1     -10.935   8.001 128.313  0.00  0.00    +0.000 A 
ATOM     25  C   UNL     1     -12.212   8.088 127.843  0.00  0.00    +0.000 A 
ATOM     26  C   UNL     1     -12.956   7.137 128.493  0.00  0.00    +0.000 A 
ATOM     27  C   UNL     1     -12.280   5.975 129.495  0.00  0.00    +0.000 A 
ATOM     28  C   UNL     1     -10.748   5.725 129.873  0.00  0.00    +0.000 A 
ENDBRANCH  15  18
ENDBRANCH   5  10
BRANCH   1  29
ATOM     29  C   UNL     1      -8.878  -3.166 126.363  0.00  0.00    +0.000 C 
BRANCH  29  32
ATOM     30  O   UNL     1      -7.849  -1.548 123.247  0.00  0.00    +0.000 OA
ATOM     31  C   UNL     1      -8.291  -1.598 124.401  0.00  0.00    +0.000 C 
ATOM     32  N   UNL     1      -8.344  -2.850 125.032  0.00  0.00    +0.000 N 
ATOM     33  H   UNL     1      -7.955  -3.587 124.458  0.00  0.00    +0.000 HD
BRANCH  31  34
ATOM     34  C   UNL     1      -8.791  -0.298 125.102  0.00  0.00    +0.000 C 
BRANCH  34  35
ATOM     35  N   UNL     1      -7.735   0.629 125.631  0.00  0.00    +0.000 N 
ATOM     36  C   UNL     1      -6.443   0.166 125.818  0.00  0.00    +0.000 A 
ATOM     37  C   UNL     1      -5.407   1.007 125.904  0.00  0.00    +0.000 A 
ATOM     38  C   UNL     1      -5.777   2.406 126.207  0.00  0.00    +0.000 A 
ATOM     39  N   UNL     1      -6.988   2.857 126.121  0.00  0.00    +0.000 NA
ATOM     40  C   UNL     1      -7.992   2.012 125.679  0.00  0.00    +0.000 A 
ATOM     41  O   UNL     1      -9.083   2.459 125.331  0.00  0.00    +0.000 OA
BRANCH  38  42
ATOM     42  C   UNL     1      -4.662   3.287 126.684  0.00  0.00    +0.000 A 
ATOM     43  C   UNL     1      -3.348   2.806 126.777  0.00  0.00    +0.000 A 
ATOM     44  C   UNL     1      -2.352   3.584 127.389  0.00  0.00    +0.000 A 
ATOM     45  C   UNL     1      -2.632   4.890 127.784  0.00  0.00    +0.000 A 
ATOM     46  C   UNL     1      -3.897   5.423 127.548  0.00  0.00    +0.000 A 
ATOM     47  C   UNL     1      -4.927   4.606 127.067  0.00  0.00    +0.000 A 
ENDBRANCH  38  42
ENDBRANCH  34  35
ENDBRANCH  31  34
ENDBRANCH  29  32
ENDBRANCH   1  29
TORSDOF 7
ENDMDL
MODEL 4
REMARK VINA RESULT:     -11.4      3.718      5.840
REMARK  Name = CHEMBL30510
REMARK  7 active torsions:
REMARK  status: ('A' for Active; 'I' for Inactive)
REMARK    1  A    between atoms: C_2  and  C_3
REMARK    2  A    between atoms: C_3  and  N_4
REMARK    3  A    between atoms: C_7  and  C_8
REMARK    4  A    between atoms: N_17  and  C_18
REMARK    5  A    between atoms: C_18  and  C_19
REMARK    6  A    between atoms: C_23  and  C_24
REMARK    7  A    between atoms: C_29  and  N_30
REMARK                            x       y       z     vdW  Elec       q    Type
REMARK                         _______ _______ _______ _____ _____    ______ ____
ROOT
ATOM      1  C   UNL     1      -3.022   5.238 132.159  0.00  0.00    +0.000 A 
ATOM      2  C   UNL     1      -2.220   4.125 132.403  0.00  0.00    +0.000 A 
ATOM      3  C   UNL     1      -3.067   3.217 133.089  0.00  0.00    +0.000 A 
ATOM      4  C   UNL     1      -4.250   2.531 132.689  0.00  0.00    +0.000 A 
ATOM      5  C   UNL     1      -5.249   2.074 133.576  0.00  0.00    +0.000 A 
ATOM      6  C   UNL     1      -4.987   2.237 134.930  0.00  0.00    +0.000 A 
ATOM      7  C   UNL     1      -3.987   3.183 135.293  0.00  0.00    +0.000 A 
ATOM      8  C   UNL     1      -3.375   3.950 134.229  0.00  0.00    +0.000 A 
ATOM      9  O   UNL     1      -3.874   5.210 133.383  0.00  0.00    +0.000 OA
ENDROOT
BRANCH   5  10
ATOM     10  C   UNL     1      -6.608   1.620 133.076  0.00  0.00    +0.000 C 
ATOM     11  O   UNL     1      -7.611   2.032 133.656  0.00  0.00    +0.000 OA
ATOM     12  N   UNL     1      -6.658   0.825 131.894  0.00  0.00    +0.000 N 
ATOM     13  C   UNL     1      -7.372   1.239 130.675  0.00  0.00    +0.000 C 
ATOM     14  C   UNL     1      -8.141   0.064 130.021  0.00  0.00    +0.000 C 
ATOM     15  C   UNL     1      -7.070  -1.296 129.497  0.00  0.00    +0.000 C 
ATOM     16  C   UNL     1      -6.570  -1.572 131.119  0.00  0.00    +0.000 C 
ATOM     17  C   UNL     1      -5.833  -0.367 131.721  0.00  0.00    +0.000 C 
BRANCH  15  18
ATOM     18  N   UNL     1      -6.535  -1.776 127.768  0.00  0.00    +0.000 N 
ATOM     19  C   UNL     1      -7.590  -2.718 127.895  0.00  0.00    +0.000 C 
ATOM     20  O   UNL     1      -7.788  -3.571 128.798  0.00  0.00    +0.000 OA
ATOM     21  O   UNL     1      -8.613  -2.435 127.106  0.00  0.00    +0.000 OA
ATOM     22  C   UNL     1      -8.326  -3.323 126.099  0.00  0.00    +0.000 C 
ATOM     23  C   UNL     1      -7.667  -2.331 125.245  0.00  0.00    +0.000 A 
ATOM     24  C   UNL     1      -8.193  -2.476 123.806  0.00  0.00    +0.000 A 
ATOM     25  C   UNL     1      -7.515  -2.270 122.641  0.00  0.00    +0.000 A 
ATOM     26  C   UNL     1      -6.217  -1.969 122.969  0.00  0.00    +0.000 A 
ATOM     27  C   UNL     1      -5.710  -1.702 124.543  0.00  0.00    +0.000 A 
ATOM     28  C   UNL     1      -6.553  -1.719 125.900  0.00  0.00    +0.000 A 
ENDBRANCH  15  18
ENDBRANCH   5  10
BRANCH   1  29
ATOM     29  C   UNL     1      -2.554   6.457 131.268  0.00  0.00    +0.000 C 
BRANCH  29  32
ATOM     30  O   UNL     1      -4.085   6.835 127.967  0.00  0.00    +0.000 OA
ATOM     31  C   UNL     1      -3.566   6.222 128.906  0.00  0.00    +0.000 C 
ATOM     32  N   UNL     1      -3.228   6.948 130.059  0.00  0.00    +0.000 N 
ATOM     33  H   UNL     1      -3.504   7.919 129.996  0.00  0.00    +0.000 HD
BRANCH  31  34
ATOM     34  C   UNL     1      -3.282   4.694 128.781  0.00  0.00    +0.000 C 
BRANCH  34  35
ATOM     35  N   UNL     1      -4.314   3.875 128.061  0.00  0.00    +0.000 N 
ATOM     36  C   UNL     1      -5.606   3.809 128.554  0.00  0.00    +0.000 A 
ATOM     37  C   UNL     1      -6.630   3.437 127.777  0.00  0.00    +0.000 A 
ATOM     38  C   UNL     1      -6.236   2.724 126.544  0.00  0.00    +0.000 A 
ATOM     39  N   UNL     1      -5.023   2.697 126.094  0.00  0.00    +0.000 NA
ATOM     40  C   UNL     1      -4.039   3.406 126.763  0.00  0.00    +0.000 A 
ATOM     41  O   UNL     1      -2.952   3.625 126.234  0.00  0.00    +0.000 OA
BRANCH  38  42
ATOM     42  C   UNL     1      -7.330   1.967 125.852  0.00  0.00    +0.000 A 
ATOM     43  C   UNL     1      -7.305   1.767 124.464  0.00  0.00    +0.000 A 
ATOM     44  C   UNL     1      -8.418   1.213 123.811  0.00  0.00    +0.000 A 
ATOM     45  C   UNL     1      -9.496   0.734 124.553  0.00  0.00    +0.000 A 
ATOM     46  C   UNL     1      -9.451   0.790 125.944  0.00  0.00    +0.000 A 
ATOM     47  C   UNL     1      -8.408   1.466 126.588  0.00  0.00    +0.000 A 
ENDBRANCH  38  42
ENDBRANCH  34  35
ENDBRANCH  31  34
ENDBRANCH  29  32
ENDBRANCH   1  29
TORSDOF 7
ENDMDL
MODEL 5
REMARK VINA RESULT:     -11.2      2.178      2.690
REMARK  Name = CHEMBL30510
REMARK  7 active torsions:
REMARK  status: ('A' for Active; 'I' for Inactive)
REMARK    1  A    between atoms: C_2  and  C_3
REMARK    2  A    between atoms: C_3  and  N_4
REMARK    3  A    between atoms: C_7  and  C_8
REMARK    4  A    between atoms: N_17  and  C_18
REMARK    5  A    between atoms: C_18  and  C_19
REMARK    6  A    between atoms: C_23  and  C_24
REMARK    7  A    between atoms: C_29  and  N_30
REMARK                            x       y       z     vdW  Elec       q    Type
REMARK                         _______ _______ _______ _____ _____    ______ ____
ROOT
ATOM      1  C   UNL     1      -5.206   5.374 133.993  0.00  0.00    +0.000 A 
ATOM      2  C   UNL     1      -4.410   6.488 134.252  0.00  0.00    +0.000 A 
ATOM      3  C   UNL     1      -3.499   6.538 133.166  0.00  0.00    +0.000 A 
ATOM      4  C   UNL     1      -3.693   6.748 131.769  0.00  0.00    +0.000 A 
ATOM      5  C   UNL     1      -2.816   6.288 130.762  0.00  0.00    +0.000 A 
ATOM      6  C   UNL     1      -1.649   5.675 131.198  0.00  0.00    +0.000 A 
ATOM      7  C   UNL     1      -1.623   5.199 132.540  0.00  0.00    +0.000 A 
ATOM      8  C   UNL     1      -2.836   5.326 133.318  0.00  0.00    +0.000 A 
ATOM      9  O   UNL     1      -4.199   4.491 133.336  0.00  0.00    +0.000 OA
ENDROOT
BRANCH   5  10
ATOM     10  C   UNL     1      -3.221   6.283 129.299  0.00  0.00    +0.000 C 
ATOM     11  O   UNL     1      -2.850   7.216 128.588  0.00  0.00    +0.000 OA
ATOM     12  N   UNL     1      -3.919   5.146 128.799  0.00  0.00    +0.000 N 
ATOM     13  C   UNL     1      -3.404   4.302 127.708  0.00  0.00    +0.000 C 
ATOM     14  C   UNL     1      -4.519   3.888 126.714  0.00  0.00    +0.000 C 
ATOM     15  C   UNL     1      -5.839   2.915 127.476  0.00  0.00    +0.000 C 
ATOM     16  C   UNL     1      -6.246   4.221 128.518  0.00  0.00    +0.000 C 
ATOM     17  C   UNL     1      -5.098   4.600 129.464  0.00  0.00    +0.000 C 
BRANCH  15  18
ATOM     18  N   UNL     1      -6.183   1.080 127.333  0.00  0.00    +0.000 N 
ATOM     19  C   UNL     1      -5.544   1.042 128.601  0.00  0.00    +0.000 C 
ATOM     20  O   UNL     1      -4.418   1.490 128.935  0.00  0.00    +0.000 OA
ATOM     21  O   UNL     1      -6.387   0.753 129.578  0.00  0.00    +0.000 OA
ATOM     22  C   UNL     1      -6.081  -0.579 129.703  0.00  0.00    +0.000 C 
ATOM     23  C   UNL     1      -7.204  -1.041 128.885  0.00  0.00    +0.000 A 
ATOM     24  C   UNL     1      -7.907  -2.206 129.605  0.00  0.00    +0.000 A 
ATOM     25  C   UNL     1      -8.519  -3.290 129.046  0.00  0.00    +0.000 A 
ATOM     26  C   UNL     1      -8.341  -3.208 127.689  0.00  0.00    +0.000 A 
ATOM     27  C   UNL     1      -7.678  -1.868 126.932  0.00  0.00    +0.000 A 
ATOM     28  C   UNL     1      -7.164  -0.494 127.565  0.00  0.00    +0.000 A 
ENDBRANCH  15  18
ENDBRANCH   5  10
BRANCH   1  29
ATOM     29  C   UNL     1      -6.479   5.007 134.854  0.00  0.00    +0.000 C 
BRANCH  29  32
ATOM     30  O   UNL     1      -8.589   2.320 133.546  0.00  0.00    +0.000 OA
ATOM     31  C   UNL     1      -7.846   3.305 133.479  0.00  0.00    +0.000 C 
ATOM     32  N   UNL     1      -7.326   3.821 134.676  0.00  0.00    +0.000 N 
ATOM     33  H   UNL     1      -7.599   3.272 135.481  0.00  0.00    +0.000 HD
BRANCH  31  34
ATOM     34  C   UNL     1      -7.530   3.953 132.096  0.00  0.00    +0.000 C 
BRANCH  34  35
ATOM     35  N   UNL     1      -8.647   4.710 131.438  0.00  0.00    +0.000 N 
ATOM     36  C   UNL     1      -8.705   6.089 131.552  0.00  0.00    +0.000 A 
ATOM     37  C   UNL     1      -9.418   6.830 130.696  0.00  0.00    +0.000 A 
ATOM     38  C   UNL     1     -10.431   6.075 129.929  0.00  0.00    +0.000 A 
ATOM     39  N   UNL     1     -10.457   4.782 129.863  0.00  0.00    +0.000 NA
ATOM     40  C   UNL     1      -9.465   4.055 130.499  0.00  0.00    +0.000 A 
ATOM     41  O   UNL     1      -9.298   2.864 130.245  0.00  0.00    +0.000 OA
BRANCH  38  42
ATOM     42  C   UNL     1     -11.488   6.900 129.258  0.00  0.00    +0.000 A 
ATOM     43  C   UNL     1     -11.303   8.272 129.034  0.00  0.00    +0.000 A 
ATOM     44  C   UNL     1     -12.366   9.061 128.568  0.00  0.00    +0.000 A 
ATOM     45  C   UNL     1     -13.569   8.463 128.196  0.00  0.00    +0.000 A 
ATOM     46  C   UNL     1     -13.699   7.078 128.270  0.00  0.00    +0.000 A 
ATOM     47  C   UNL     1     -12.692   6.308 128.864  0.00  0.00    +0.000 A 
ENDBRANCH  38  42
ENDBRANCH  34  35
ENDBRANCH  31  34
ENDBRANCH  29  32
ENDBRANCH   1  29
TORSDOF 7
ENDMDL
MODEL 6
REMARK VINA RESULT:     -11.1      2.672      8.140
REMARK  Name = CHEMBL30510
REMARK  7 active torsions:
REMARK  status: ('A' for Active; 'I' for Inactive)
REMARK    1  A    between atoms: C_2  and  C_3
REMARK    2  A    between atoms: C_3  and  N_4
REMARK    3  A    between atoms: C_7  and  C_8
REMARK    4  A    between atoms: N_17  and  C_18
REMARK    5  A    between atoms: C_18  and  C_19
REMARK    6  A    between atoms: C_23  and  C_24
REMARK    7  A    between atoms: C_29  and  N_30
REMARK                            x       y       z     vdW  Elec       q    Type
REMARK                         _______ _______ _______ _____ _____    ______ ____
ROOT
ATOM      1  C   UNL     1      -4.145   4.360 126.593  0.00  0.00    +0.000 A 
ATOM      2  C   UNL     1      -2.853   3.887 126.814  0.00  0.00    +0.000 A 
ATOM      3  C   UNL     1      -2.519   4.353 128.112  0.00  0.00    +0.000 A 
ATOM      4  C   UNL     1      -3.064   4.064 129.397  0.00  0.00    +0.000 A 
ATOM      5  C   UNL     1      -2.997   4.932 130.508  0.00  0.00    +0.000 A 
ATOM      6  C   UNL     1      -2.262   6.097 130.332  0.00  0.00    +0.000 A 
ATOM      7  C   UNL     1      -2.007   6.512 128.995  0.00  0.00    +0.000 A 
ATOM      8  C   UNL     1      -2.592   5.729 127.928  0.00  0.00    +0.000 A 
ATOM      9  O   UNL     1      -4.073   5.652 127.333  0.00  0.00    +0.000 OA
ENDROOT
BRANCH   5  10
ATOM     10  C   UNL     1      -3.841   4.702 131.749  0.00  0.00    +0.000 C 
ATOM     11  O   UNL     1      -3.272   4.371 132.788  0.00  0.00    +0.000 OA
ATOM     12  N   UNL     1      -5.236   4.983 131.674  0.00  0.00    +0.000 N 
ATOM     13  C   UNL     1      -5.902   5.980 132.528  0.00  0.00    +0.000 C 
ATOM     14  C   UNL     1      -7.280   5.486 133.035  0.00  0.00    +0.000 C 
ATOM     15  C   UNL     1      -8.458   5.146 131.706  0.00  0.00    +0.000 C 
ATOM     16  C   UNL     1      -7.438   3.916 131.071  0.00  0.00    +0.000 C 
ATOM     17  C   UNL     1      -6.080   4.460 130.604  0.00  0.00    +0.000 C 
BRANCH  15  18
ATOM     18  N   UNL     1      -9.947   6.145 131.167  0.00  0.00    +0.000 N 
ATOM     19  C   UNL     1      -9.006   6.738 130.284  0.00  0.00    +0.000 C 
ATOM     20  O   UNL     1      -7.899   7.273 130.548  0.00  0.00    +0.000 OA
ATOM     21  O   UNL     1      -9.227   6.410 129.022  0.00  0.00    +0.000 OA
ATOM     22  C   UNL     1      -9.879   7.556 128.640  0.00  0.00    +0.000 C 
ATOM     23  C   UNL     1     -11.221   6.993 128.799  0.00  0.00    +0.000 A 
ATOM     24  C   UNL     1     -12.066   7.346 127.561  0.00  0.00    +0.000 A 
ATOM     25  C   UNL     1     -13.404   7.600 127.503  0.00  0.00    +0.000 A 
ATOM     26  C   UNL     1     -13.885   7.559 128.787  0.00  0.00    +0.000 A 
ATOM     27  C   UNL     1     -12.965   7.055 130.093  0.00  0.00    +0.000 A 
ATOM     28  C   UNL     1     -11.454   6.536 130.133  0.00  0.00    +0.000 A 
ENDBRANCH  15  18
ENDBRANCH   5  10
BRANCH   1  29
ATOM     29  C   UNL     1      -5.006   3.951 125.332  0.00  0.00    +0.000 C 
BRANCH  29  32
ATOM     30  O   UNL     1      -8.603   3.887 124.665  0.00  0.00    +0.000 OA
ATOM     31  C   UNL     1      -7.488   3.403 124.888  0.00  0.00    +0.000 C 
ATOM     32  N   UNL     1      -6.418   4.285 125.109  0.00  0.00    +0.000 N 
ATOM     33  H   UNL     1      -6.712   5.253 125.104  0.00  0.00    +0.000 HD
BRANCH  31  34
ATOM     34  C   UNL     1      -7.295   1.856 124.893  0.00  0.00    +0.000 C 
BRANCH  34  35
ATOM     35  N   UNL     1      -7.251   1.188 126.237  0.00  0.00    +0.000 N 
ATOM     36  C   UNL     1      -7.762   1.840 127.346  0.00  0.00    +0.000 A 
ATOM     37  C   UNL     1      -8.101   1.171 128.453  0.00  0.00    +0.000 A 
ATOM     38  C   UNL     1      -7.516  -0.182 128.555  0.00  0.00    +0.000 A 
ATOM     39  N   UNL     1      -6.959  -0.794 127.559  0.00  0.00    +0.000 NA
ATOM     40  C   UNL     1      -6.943  -0.183 126.316  0.00  0.00    +0.000 A 
ATOM     41  O   UNL     1      -6.672  -0.824 125.303  0.00  0.00    +0.000 OA
BRANCH  38  42
ATOM     42  C   UNL     1      -7.551  -0.807 129.918  0.00  0.00    +0.000 A 
ATOM     43  C   UNL     1      -7.172  -2.143 130.112  0.00  0.00    +0.000 A 
ATOM     44  C   UNL     1      -7.377  -2.761 131.355  0.00  0.00    +0.000 A 
ATOM     45  C   UNL     1      -7.830  -2.014 132.441  0.00  0.00    +0.000 A 
ATOM     46  C   UNL     1      -8.057  -0.648 132.287  0.00  0.00    +0.000 A 
ATOM     47  C   UNL     1      -7.987  -0.061 131.018  0.00  0.00    +0.000 A 
ENDBRANCH  38  42
ENDBRANCH  34  35
ENDBRANCH  31  34
ENDBRANCH  29  32
ENDBRANCH   1  29
TORSDOF 7
ENDMDL
MODEL 7
REMARK VINA RESULT:     -11.0      2.967      8.565
REMARK  Name = CHEMBL30510
REMARK  7 active torsions:
REMARK  status: ('A' for Active; 'I' for Inactive)
REMARK    1  A    between atoms: C_2  and  C_3
REMARK    2  A    between atoms: C_3  and  N_4
REMARK    3  A    between atoms: C_7  and  C_8
REMARK    4  A    between atoms: N_17  and  C_18
REMARK    5  A    between atoms: C_18  and  C_19
REMARK    6  A    between atoms: C_23  and  C_24
REMARK    7  A    between atoms: C_29  and  N_30
REMARK                            x       y       z     vdW  Elec       q    Type
REMARK                         _______ _______ _______ _____ _____    ______ ____
ROOT
ATOM      1  C   UNL     1      -7.898  -1.578 124.792  0.00  0.00    +0.000 A 
ATOM      2  C   UNL     1      -8.008  -1.553 123.403  0.00  0.00    +0.000 A 
ATOM      3  C   UNL     1      -8.041  -0.173 123.072  0.00  0.00    +0.000 A 
ATOM      4  C   UNL     1      -7.075   0.865 123.220  0.00  0.00    +0.000 A 
ATOM      5  C   UNL     1      -7.386   2.238 123.325  0.00  0.00    +0.000 A 
ATOM      6  C   UNL     1      -8.724   2.576 123.178  0.00  0.00    +0.000 A 
ATOM      7  C   UNL     1      -9.683   1.538 123.351  0.00  0.00    +0.000 A 
ATOM      8  C   UNL     1      -9.193   0.232 123.736  0.00  0.00    +0.000 A 
ATOM      9  O   UNL     1      -8.696  -0.366 125.132  0.00  0.00    +0.000 OA
ENDROOT
BRANCH   5  10
ATOM     10  C   UNL     1      -6.351   3.254 123.771  0.00  0.00    +0.000 C 
ATOM     11  O   UNL     1      -5.949   4.077 122.949  0.00  0.00    +0.000 OA
ATOM     12  N   UNL     1      -5.977   3.273 125.146  0.00  0.00    +0.000 N 
ATOM     13  C   UNL     1      -6.160   4.449 126.013  0.00  0.00    +0.000 C 
ATOM     14  C   UNL     1      -4.947   4.678 126.950  0.00  0.00    +0.000 C 
ATOM     15  C   UNL     1      -4.641   3.303 128.083  0.00  0.00    +0.000 C 
ATOM     16  C   UNL     1      -4.346   2.238 126.765  0.00  0.00    +0.000 C 
ATOM     17  C   UNL     1      -5.575   2.066 125.861  0.00  0.00    +0.000 C 
BRANCH  15  18
ATOM     18  N   UNL     1      -4.980   3.192 129.921  0.00  0.00    +0.000 N 
ATOM     19  C   UNL     1      -4.159   4.351 129.962  0.00  0.00    +0.000 C 
ATOM     20  O   UNL     1      -3.001   4.519 129.501  0.00  0.00    +0.000 OA
ATOM     21  O   UNL     1      -4.844   5.439 130.272  0.00  0.00    +0.000 OA
ATOM     22  C   UNL     1      -4.505   5.502 131.601  0.00  0.00    +0.000 C 
ATOM     23  C   UNL     1      -5.732   4.855 132.071  0.00  0.00    +0.000 A 
ATOM     24  C   UNL     1      -6.305   5.658 133.252  0.00  0.00    +0.000 A 
ATOM     25  C   UNL     1      -6.981   5.185 134.338  0.00  0.00    +0.000 A 
ATOM     26  C   UNL     1      -7.008   3.817 134.242  0.00  0.00    +0.000 A 
ATOM     27  C   UNL     1      -6.481   2.986 132.886  0.00  0.00    +0.000 A 
ATOM     28  C   UNL     1      -5.896   3.550 131.511  0.00  0.00    +0.000 A 
ENDBRANCH  15  18
ENDBRANCH   5  10
BRANCH   1  29
ATOM     29  C   UNL     1      -7.662  -2.909 125.612  0.00  0.00    +0.000 C 
BRANCH  29  32
ATOM     30  O   UNL     1      -9.048  -3.679 128.909  0.00  0.00    +0.000 OA
ATOM     31  C   UNL     1      -8.276  -3.141 128.107  0.00  0.00    +0.000 C 
ATOM     32  N   UNL     1      -8.476  -3.382 126.738  0.00  0.00    +0.000 N 
ATOM     33  H   UNL     1      -9.292  -3.955 126.564  0.00  0.00    +0.000 HD
BRANCH  31  34
ATOM     34  C   UNL     1      -7.107  -2.249 128.625  0.00  0.00    +0.000 C 
BRANCH  34  35
ATOM     35  N   UNL     1      -7.459  -0.844 129.021  0.00  0.00    +0.000 N 
ATOM     36  C   UNL     1      -7.614   0.127 128.047  0.00  0.00    +0.000 A 
ATOM     37  C   UNL     1      -8.288   1.256 128.291  0.00  0.00    +0.000 A 
ATOM     38  C   UNL     1      -8.469   1.565 129.724  0.00  0.00    +0.000 A 
ATOM     39  N   UNL     1      -8.257   0.707 130.670  0.00  0.00    +0.000 NA
ATOM     40  C   UNL     1      -7.887  -0.586 130.337  0.00  0.00    +0.000 A 
ATOM     41  O   UNL     1      -7.936  -1.489 131.169  0.00  0.00    +0.000 OA
BRANCH  38  42
ATOM     42  C   UNL     1      -8.868   2.975 130.043  0.00  0.00    +0.000 A 
ATOM     43  C   UNL     1      -8.471   4.042 129.224  0.00  0.00    +0.000 A 
ATOM     44  C   UNL     1      -8.701   5.366 129.629  0.00  0.00    +0.000 A 
ATOM     45  C   UNL     1      -9.445   5.626 130.778  0.00  0.00    +0.000 A 
ATOM     46  C   UNL     1      -9.974   4.564 131.508  0.00  0.00    +0.000 A 
ATOM     47  C   UNL     1      -9.629   3.246 131.184  0.00  0.00    +0.000 A 
ENDBRANCH  38  42
ENDBRANCH  34  35
ENDBRANCH  31  34
ENDBRANCH  29  32
ENDBRANCH   1  29
TORSDOF 7
ENDMDL
MODEL 8
REMARK VINA RESULT:     -11.0      4.109      7.233
REMARK  Name = CHEMBL30510
REMARK  7 active torsions:
REMARK  status: ('A' for Active; 'I' for Inactive)
REMARK    1  A    between atoms: C_2  and  C_3
REMARK    2  A    between atoms: C_3  and  N_4
REMARK    3  A    between atoms: C_7  and  C_8
REMARK    4  A    between atoms: N_17  and  C_18
REMARK    5  A    between atoms: C_18  and  C_19
REMARK    6  A    between atoms: C_23  and  C_24
REMARK    7  A    between atoms: C_29  and  N_30
REMARK                            x       y       z     vdW  Elec       q    Type
REMARK                         _______ _______ _______ _____ _____    ______ ____
ROOT
ATOM      1  C   UNL     1      -5.464  -1.266 133.495  0.00  0.00    +0.000 A 
ATOM      2  C   UNL     1      -5.087  -0.476 134.579  0.00  0.00    +0.000 A 
ATOM      3  C   UNL     1      -5.109   0.852 134.079  0.00  0.00    +0.000 A 
ATOM      4  C   UNL     1      -6.171   1.669 133.591  0.00  0.00    +0.000 A 
ATOM      5  C   UNL     1      -6.006   2.738 132.684  0.00  0.00    +0.000 A 
ATOM      6  C   UNL     1      -4.699   3.049 132.334  0.00  0.00    +0.000 A 
ATOM      7  C   UNL     1      -3.707   2.054 132.565  0.00  0.00    +0.000 A 
ATOM      8  C   UNL     1      -4.148   0.775 133.077  0.00  0.00    +0.000 A 
ATOM      9  O   UNL     1      -4.856  -0.479 132.384  0.00  0.00    +0.000 OA
ENDROOT
BRANCH   5  10
ATOM     10  C   UNL     1      -7.192   3.373 131.982  0.00  0.00    +0.000 C 
ATOM     11  O   UNL     1      -7.953   4.078 132.643  0.00  0.00    +0.000 OA
ATOM     12  N   UNL     1      -7.304   3.208 130.570  0.00  0.00    +0.000 N 
ATOM     13  C   UNL     1      -7.314   4.338 129.627  0.00  0.00    +0.000 C 
ATOM     14  C   UNL     1      -8.354   4.145 128.495  0.00  0.00    +0.000 C 
ATOM     15  C   UNL     1      -8.046   2.685 127.474  0.00  0.00    +0.000 C 
ATOM     16  C   UNL     1      -8.253   1.650 128.832  0.00  0.00    +0.000 C 
ATOM     17  C   UNL     1      -7.208   1.901 129.928  0.00  0.00    +0.000 C 
BRANCH  15  18
ATOM     18  N   UNL     1      -7.367   2.587 125.731  0.00  0.00    +0.000 N 
ATOM     19  C   UNL     1      -8.597   1.923 125.480  0.00  0.00    +0.000 C 
ATOM     20  O   UNL     1      -9.094   0.926 126.064  0.00  0.00    +0.000 OA
ATOM     21  O   UNL     1      -9.412   2.646 124.731  0.00  0.00    +0.000 OA
ATOM     22  C   UNL     1      -9.163   2.028 123.531  0.00  0.00    +0.000 C 
ATOM     23  C   UNL     1      -8.199   3.031 123.074  0.00  0.00    +0.000 A 
ATOM     24  C   UNL     1      -8.522   3.417 121.619  0.00  0.00    +0.000 A 
ATOM     25  C   UNL     1      -7.650   3.769 120.632  0.00  0.00    +0.000 A 
ATOM     26  C   UNL     1      -6.383   3.653 121.142  0.00  0.00    +0.000 A 
ATOM     27  C   UNL     1      -6.073   3.348 122.761  0.00  0.00    +0.000 A 
ATOM     28  C   UNL     1      -7.095   3.159 123.973  0.00  0.00    +0.000 A 
ENDBRANCH  15  18
ENDBRANCH   5  10
BRANCH   1  29
ATOM     29  C   UNL     1      -5.741  -2.817 133.616  0.00  0.00    +0.000 C 
BRANCH  29  32
ATOM     30  O   UNL     1      -5.627  -5.002 130.684  0.00  0.00    +0.000 OA
ATOM     31  C   UNL     1      -6.024  -4.054 131.370  0.00  0.00    +0.000 C 
ATOM     32  N   UNL     1      -5.405  -3.832 132.610  0.00  0.00    +0.000 N 
ATOM     33  H   UNL     1      -4.644  -4.478 132.780  0.00  0.00    +0.000 HD
BRANCH  31  34
ATOM     34  C   UNL     1      -7.196  -3.159 130.862  0.00  0.00    +0.000 C 
BRANCH  34  35
ATOM     35  N   UNL     1      -7.348  -3.031 129.374  0.00  0.00    +0.000 N 
ATOM     36  C   UNL     1      -8.347  -3.735 128.722  0.00  0.00    +0.000 A 
ATOM     37  C   UNL     1      -8.773  -3.374 127.506  0.00  0.00    +0.000 A 
ATOM     38  C   UNL     1      -7.849  -2.485 126.772  0.00  0.00    +0.000 A 
ATOM     39  N   UNL     1      -6.855  -1.872 127.331  0.00  0.00    +0.000 NA
ATOM     40  C   UNL     1      -6.661  -2.008 128.696  0.00  0.00    +0.000 A 
ATOM     41  O   UNL     1      -5.911  -1.248 129.303  0.00  0.00    +0.000 OA
BRANCH  38  42
ATOM     42  C   UNL     1      -8.091  -2.368 125.296  0.00  0.00    +0.000 A 
ATOM     43  C   UNL     1      -9.200  -2.979 124.694  0.00  0.00    +0.000 A 
ATOM     44  C   UNL     1      -9.316  -3.009 123.295  0.00  0.00    +0.000 A 
ATOM     45  C   UNL     1      -8.404  -2.315 122.504  0.00  0.00    +0.000 A 
ATOM     46  C   UNL     1      -7.391  -1.576 123.111  0.00  0.00    +0.000 A 
ATOM     47  C   UNL     1      -7.192  -1.659 124.494  0.00  0.00    +0.000 A 
ENDBRANCH  38  42
ENDBRANCH  34  35
ENDBRANCH  31  34
ENDBRANCH  29  32
ENDBRANCH   1  29
TORSDOF 7
ENDMDL
MODEL 9
REMARK VINA RESULT:     -10.8      3.174      3.959
REMARK  Name = CHEMBL30510
REMARK  7 active torsions:
REMARK  status: ('A' for Active; 'I' for Inactive)
REMARK    1  A    between atoms: C_2  and  C_3
REMARK    2  A    between atoms: C_3  and  N_4
REMARK    3  A    between atoms: C_7  and  C_8
REMARK    4  A    between atoms: N_17  and  C_18
REMARK    5  A    between atoms: C_18  and  C_19
REMARK    6  A    between atoms: C_23  and  C_24
REMARK    7  A    between atoms: C_29  and  N_30
REMARK                            x       y       z     vdW  Elec       q    Type
REMARK                         _______ _______ _______ _____ _____    ______ ____
ROOT
ATOM      1  C   UNL     1      -3.366   6.004 133.193  0.00  0.00    +0.000 A 
ATOM      2  C   UNL     1      -3.385   7.300 132.682  0.00  0.00    +0.000 A 
ATOM      3  C   UNL     1      -3.291   7.131 131.276  0.00  0.00    +0.000 A 
ATOM      4  C   UNL     1      -4.168   6.527 130.329  0.00  0.00    +0.000 A 
ATOM      5  C   UNL     1      -3.759   5.985 129.091  0.00  0.00    +0.000 A 
ATOM      6  C   UNL     1      -2.421   6.152 128.763  0.00  0.00    +0.000 A 
ATOM      7  C   UNL     1      -1.520   6.457 129.822  0.00  0.00    +0.000 A 
ATOM      8  C   UNL     1      -2.058   6.500 131.165  0.00  0.00    +0.000 A 
ATOM      9  O   UNL     1      -2.462   5.353 132.202  0.00  0.00    +0.000 OA
ENDROOT
BRANCH   5  10
ATOM     10  C   UNL     1      -4.678   5.102 128.268  0.00  0.00    +0.000 C 
ATOM     11  O   UNL     1      -4.947   5.450 127.119  0.00  0.00    +0.000 OA
ATOM     12  N   UNL     1      -5.098   3.861 128.829  0.00  0.00    +0.000 N 
ATOM     13  C   UNL     1      -4.806   2.558 128.210  0.00  0.00    +0.000 C 
ATOM     14  C   UNL     1      -6.016   1.592 128.281  0.00  0.00    +0.000 C 
ATOM     15  C   UNL     1      -6.528   1.203 129.971  0.00  0.00    +0.000 C 
ATOM     16  C   UNL     1      -6.901   2.854 130.274  0.00  0.00    +0.000 C 
ATOM     17  C   UNL     1      -5.670   3.765 130.169  0.00  0.00    +0.000 C 
BRANCH  15  18
ATOM     18  N   UNL     1      -6.274  -0.375 130.946  0.00  0.00    +0.000 N 
ATOM     19  C   UNL     1      -7.449  -0.779 130.259  0.00  0.00    +0.000 C 
ATOM     20  O   UNL     1      -8.565  -0.204 130.191  0.00  0.00    +0.000 OA
ATOM     21  O   UNL     1      -7.207  -1.724 129.366  0.00  0.00    +0.000 OA
ATOM     22  C   UNL     1      -7.618  -2.800 130.113  0.00  0.00    +0.000 C 
ATOM     23  C   UNL     1      -6.270  -3.167 130.552  0.00  0.00    +0.000 A 
ATOM     24  C   UNL     1      -6.081  -4.685 130.381  0.00  0.00    +0.000 A 
ATOM     25  C   UNL     1      -5.343  -5.530 131.157  0.00  0.00    +0.000 A 
ATOM     26  C   UNL     1      -4.834  -4.795 132.196  0.00  0.00    +0.000 A 
ATOM     27  C   UNL     1      -4.960  -3.126 132.285  0.00  0.00    +0.000 A 
ATOM     28  C   UNL     1      -5.630  -2.102 131.258  0.00  0.00    +0.000 A 
ENDBRANCH  15  18
ENDBRANCH   5  10
BRANCH   1  29
ATOM     29  C   UNL     1      -3.613   5.678 134.720  0.00  0.00    +0.000 C 
BRANCH  29  32
ATOM     30  O   UNL     1      -7.054   6.133 135.877  0.00  0.00    +0.000 OA
ATOM     31  C   UNL     1      -6.161   5.741 135.117  0.00  0.00    +0.000 C 
ATOM     32  N   UNL     1      -4.829   5.990 135.481  0.00  0.00    +0.000 N 
ATOM     33  H   UNL     1      -4.756   6.440 136.385  0.00  0.00    +0.000 HD
BRANCH  31  34
ATOM     34  C   UNL     1      -6.530   5.018 133.786  0.00  0.00    +0.000 C 
BRANCH  34  35
ATOM     35  N   UNL     1      -7.610   5.649 132.955  0.00  0.00    +0.000 N 
ATOM     36  C   UNL     1      -7.270   6.511 131.926  0.00  0.00    +0.000 A 
ATOM     37  C   UNL     1      -8.126   6.784 130.935  0.00  0.00    +0.000 A 
ATOM     38  C   UNL     1      -9.536   6.458 131.235  0.00  0.00    +0.000 A 
ATOM     39  N   UNL     1      -9.899   5.720 132.236  0.00  0.00    +0.000 NA
ATOM     40  C   UNL     1      -8.926   5.161 133.048  0.00  0.00    +0.000 A 
ATOM     41  O   UNL     1      -9.205   4.255 133.830  0.00  0.00    +0.000 OA
BRANCH  38  42
ATOM     42  C   UNL     1     -10.557   7.085 130.334  0.00  0.00    +0.000 A 
ATOM     43  C   UNL     1     -10.173   7.785 129.181  0.00  0.00    +0.000 A 
ATOM     44  C   UNL     1     -11.123   8.513 128.448  0.00  0.00    +0.000 A 
ATOM     45  C   UNL     1     -12.474   8.432 128.781  0.00  0.00    +0.000 A 
ATOM     46  C   UNL     1     -12.874   7.610 129.832  0.00  0.00    +0.000 A 
ATOM     47  C   UNL     1     -11.917   6.996 130.649  0.00  0.00    +0.000 A 
ENDBRANCH  38  42
ENDBRANCH  34  35
ENDBRANCH  31  34
ENDBRANCH  29  32
ENDBRANCH   1  29
TORSDOF 7
ENDMDL
