MODEL 1
REMARK VINA RESULT:      -9.6      0.000      0.000
REMARK  Name = CHEMBL2369842
REMARK  20 active torsions:
REMARK  status: ('A' for Active; 'I' for Inactive)
REMARK    1  A    between atoms: C_2  and  C_4
REMARK    2  A    between atoms: C_4  and  N_5
REMARK    3  A    between atoms: C_6  and  C_8
REMARK    4  A    between atoms: C_8  and  C_9
REMARK    5  A    between atoms: C_8  and  N_16
REMARK    6  A    between atoms: C_9  and  C_10
REMARK    7  A    between atoms: C_10  and  C_11
REMARK    8  A    between atoms: C_11  and  N_12
REMARK    9  A    between atoms: C_17  and  C_19
REMARK   10  A    between atoms: C_24  and  C_26
REMARK   11  A    between atoms: C_35  and  C_36
REMARK   12  A    between atoms: C_36  and  C_37
REMARK   13  A    between atoms: C_40  and  O_41
REMARK   14  A    between atoms: C_47  and  C_48
REMARK   15  A    between atoms: C_48  and  C_49
REMARK   16  A    between atoms: C_58  and  C_59
REMARK   17  A    between atoms: C_59  and  C_60
REMARK   18  A    between atoms: C_63  and  O_64
REMARK   19  A    between atoms: C_70  and  C_71
REMARK   20  A    between atoms: C_71  and  C_72
REMARK                            x       y       z     vdW  Elec       q    Type
REMARK                         _______ _______ _______ _____ _____    ______ ____
ROOT
ATOM      1  C   UNL     1      -7.850   1.627 130.805  0.00  0.00    +0.000 C 
ATOM      2  C   UNL     1      -8.594  -0.410 132.164  0.00  0.00    +0.000 C 
ATOM      3  S   UNL     1      -8.656  -2.415 133.891  0.00  0.00    +0.000 S 
ATOM      4  S   UNL     1      -8.383  -4.759 135.398  0.00  0.00    +0.000 S 
ATOM      5  C   UNL     1      -6.603  -5.154 136.455  0.00  0.00    +0.000 C 
ATOM      6  C   UNL     1      -5.427  -6.123 136.709  0.00  0.00    +0.000 C 
ATOM      7  C   UNL     1      -3.989  -5.532 136.758  0.00  0.00    +0.000 C 
ATOM      8  O   UNL     1      -3.039  -6.224 137.136  0.00  0.00    +0.000 OA
ATOM      9  N   UNL     1      -3.781  -4.244 136.344  0.00  0.00    +0.000 N 
ATOM     10  C   UNL     1      -4.789  -3.350 135.855  0.00  0.00    +0.000 C 
ATOM     11  C   UNL     1      -5.367  -4.049 134.424  0.00  0.00    +0.000 C 
ATOM     12  O   UNL     1      -5.722  -5.223 134.194  0.00  0.00    +0.000 OA
ATOM     13  N   UNL     1      -5.862  -3.278 133.510  0.00  0.00    +0.000 N 
ATOM     14  C   UNL     1      -5.429  -2.008 133.465  0.00  0.00    +0.000 C 
ATOM     15  C   UNL     1      -6.097  -0.944 134.342  0.00  0.00    +0.000 C 
ATOM     16  O   UNL     1      -6.314  -1.041 135.547  0.00  0.00    +0.000 OA
ATOM     17  N   UNL     1      -6.375   0.227 133.922  0.00  0.00    +0.000 N 
ATOM     18  C   UNL     1      -6.344   0.628 132.689  0.00  0.00    +0.000 C 
ATOM     19  C   UNL     1      -4.720   1.040 132.202  0.00  0.00    +0.000 C 
ATOM     20  O   UNL     1      -3.697   0.548 131.684  0.00  0.00    +0.000 OA
ATOM     21  N   UNL     1      -4.508   2.192 131.748  0.00  0.00    +0.000 N 
ATOM     22  C   UNL     1      -5.422   3.068 131.419  0.00  0.00    +0.000 C 
ATOM     23  C   UNL     1      -6.318   1.832 130.632  0.00  0.00    +0.000 C 
ATOM     24  O   UNL     1      -6.613   0.597 130.742  0.00  0.00    +0.000 OA
ATOM     25  N   UNL     1      -7.540   2.795 129.831  0.00  0.00    +0.000 N 
ATOM     26  H   UNL     1      -2.852  -3.842 136.390  0.00  0.00    +0.000 HD
ATOM     27  H   UNL     1      -5.986  -3.701 132.600  0.00  0.00    +0.000 HD
ATOM     28  H   UNL     1      -6.862   0.817 134.519  0.00  0.00    +0.000 HD
ATOM     29  H   UNL     1      -3.727   2.091 131.073  0.00  0.00    +0.000 HD
ATOM     30  H   UNL     1      -7.479   3.122 128.620  0.00  0.00    +0.000 HD
ENDROOT
BRANCH   1  36
ATOM     31  C   UNL     1      -4.837   3.673 127.020  0.00  0.00    +0.000 C 
ATOM     32  C   UNL     1      -3.309   3.071 126.860  0.00  0.00    +0.000 C 
ATOM     33  C   UNL     1      -2.477   4.238 126.553  0.00  0.00    +0.000 C 
ATOM     34  C   UNL     1      -3.647   5.298 127.676  0.00  0.00    +0.000 C 
ATOM     35  N   UNL     1      -5.399   4.443 128.435  0.00  0.00    +0.000 N 
ATOM     36  C   UNL     1      -6.570   3.370 129.868  0.00  0.00    +0.000 C 
ATOM     37  O   UNL     1      -6.276   4.842 129.903  0.00  0.00    +0.000 OA
BRANCH  31  39
ATOM     38  N   UNL     1      -5.880   1.522 127.182  0.00  0.00    +0.000 N 
ATOM     39  C   UNL     1      -5.879   2.859 127.410  0.00  0.00    +0.000 C 
ATOM     40  O   UNL     1      -6.805   3.519 127.778  0.00  0.00    +0.000 OA
ATOM     41  H   UNL     1      -5.107   1.177 126.635  0.00  0.00    +0.000 HD
BRANCH  38  42
ATOM     42  C   UNL     1      -6.930   0.596 127.416  0.00  0.00    +0.000 C 
BRANCH  42  44
ATOM     43  N   UNL     1      -6.175  -1.256 126.127  0.00  0.00    +0.000 N 
ATOM     44  C   UNL     1      -6.539  -0.757 127.285  0.00  0.00    +0.000 C 
ATOM     45  O   UNL     1      -6.798  -1.387 128.261  0.00  0.00    +0.000 OA
ATOM     46  H   UNL     1      -5.459  -0.830 125.552  0.00  0.00    +0.000 HD
BRANCH  43  47
ATOM     47  C   UNL     1      -5.703  -2.413 125.896  0.00  0.00    +0.000 C 
BRANCH  47  49
ATOM     48  N   UNL     1      -5.796  -2.341 122.684  0.00  0.00    +0.000 N 
ATOM     49  C   UNL     1      -5.053  -3.279 124.108  0.00  0.00    +0.000 C 
ATOM     50  O   UNL     1      -4.966  -4.532 123.885  0.00  0.00    +0.000 OA
ATOM     51  H   UNL     1      -5.436  -2.716 121.892  0.00  0.00    +0.000 HD
ATOM     52  H   UNL     1      -5.983  -1.287 122.719  0.00  0.00    +0.000 HD
ENDBRANCH  47  49
ENDBRANCH  43  47
ENDBRANCH  42  44
BRANCH  42  53
ATOM     53  C   UNL     1      -8.391   1.031 127.341  0.00  0.00    +0.000 C 
BRANCH  53  54
ATOM     54  C   UNL     1      -9.446   0.727 126.053  0.00  0.00    +0.000 C 
BRANCH  54  55
ATOM     55  C   UNL     1      -9.116   1.585 124.949  0.00  0.00    +0.000 C 
BRANCH  55  56
ATOM     56  N   UNL     1      -8.741   2.868 125.502  0.00  0.00    +0.000 NA
ATOM     57  C   UNL     1      -8.193   3.696 124.679  0.00  0.00    +0.000 C 
ATOM     58  N   UNL     1      -7.979   3.390 123.357  0.00  0.00    +0.000 N 
ATOM     59  N   UNL     1      -7.817   4.943 125.129  0.00  0.00    +0.000 N 
ATOM     60  H   UNL     1      -8.239   2.476 122.970  0.00  0.00    +0.000 HD
ATOM     61  H   UNL     1      -7.558   4.007 122.682  0.00  0.00    +0.000 HD
ATOM     62  H   UNL     1      -7.952   5.227 126.110  0.00  0.00    +0.000 HD
ATOM     63  H   UNL     1      -7.383   5.658 124.562  0.00  0.00    +0.000 HD
ENDBRANCH  55  56
ENDBRANCH  54  55
ENDBRANCH  53  54
ENDBRANCH  42  53
ENDBRANCH  38  42
ENDBRANCH  31  39
ENDBRANCH   1  36
BRANCH  10  64
ATOM     64  C   UNL     1      -4.132  -2.061 135.695  0.00  0.00    +0.000 C 
BRANCH  64  65
ATOM     65  C   UNL     1      -2.739  -1.948 135.432  0.00  0.00    +0.000 A 
ATOM     66  C   UNL     1      -2.516  -1.542 134.153  0.00  0.00    +0.000 A 
ATOM     67  C   UNL     1      -1.241  -1.488 133.678  0.00  0.00    +0.000 A 
ATOM     68  C   UNL     1      -0.194  -1.797 134.519  0.00  0.00    +0.000 A 
ATOM     69  C   UNL     1      -0.434  -2.195 135.819  0.00  0.00    +0.000 A 
ATOM     70  C   UNL     1      -1.717  -2.261 136.294  0.00  0.00    +0.000 A 
BRANCH  68  71
ATOM     71  O   UNL     1       1.111  -1.738 134.150  0.00  0.00    +0.000 OA
ATOM     72  H   UNL     1       1.290  -1.128 133.418  0.00  0.00    +0.000 HD
ENDBRANCH  68  71
ENDBRANCH  64  65
ENDBRANCH  10  64
BRANCH  14  73
ATOM     73  C   UNL     1      -5.716  -1.795 131.960  0.00  0.00    +0.000 C 
BRANCH  73  74
ATOM     74  C   UNL     1      -4.523  -2.737 130.605  0.00  0.00    +0.000 A 
ATOM     75  C   UNL     1      -5.100  -3.798 130.077  0.00  0.00    +0.000 A 
ATOM     76  C   UNL     1      -4.205  -4.299 129.318  0.00  0.00    +0.000 A 
ATOM     77  C   UNL     1      -2.953  -3.803 129.067  0.00  0.00    +0.000 A 
ATOM     78  C   UNL     1      -2.387  -2.671 129.523  0.00  0.00    +0.000 A 
ATOM     79  C   UNL     1      -3.206  -1.828 129.977  0.00  0.00    +0.000 A 
ENDBRANCH  73  74
ENDBRANCH  14  73
BRANCH  18  80
ATOM     80  C   UNL     1      -7.271   1.783 132.787  0.00  0.00    +0.000 C 
BRANCH  80  81
ATOM     81  C   UNL     1      -7.251   2.834 133.854  0.00  0.00    +0.000 A 
ATOM     82  C   UNL     1      -6.223   3.424 134.744  0.00  0.00    +0.000 A 
ATOM     83  C   UNL     1      -6.507   4.503 135.465  0.00  0.00    +0.000 A 
ATOM     84  C   UNL     1      -7.773   4.969 135.334  0.00  0.00    +0.000 A 
ATOM     85  C   UNL     1      -8.710   4.384 134.497  0.00  0.00    +0.000 A 
ATOM     86  C   UNL     1      -8.449   3.330 133.740  0.00  0.00    +0.000 A 
BRANCH  84  87
ATOM     87  O   UNL     1      -8.223   6.032 136.028  0.00  0.00    +0.000 OA
ATOM     88  H   UNL     1      -8.729   5.796 136.819  0.00  0.00    +0.000 HD
ENDBRANCH  84  87
ENDBRANCH  80  81
ENDBRANCH  18  80
BRANCH  22  89
ATOM     89  C   UNL     1      -4.902   4.350 130.970  0.00  0.00    +0.000 C 
BRANCH  89  90
ATOM     90  C   UNL     1      -4.019   5.059 131.782  0.00  0.00    +0.000 C 
ATOM     91  N   UNL     1      -3.944   6.313 131.327  0.00  0.00    +0.000 N 
ATOM     92  O   UNL     1      -3.441   4.634 132.753  0.00  0.00    +0.000 OA
ATOM     93  H   UNL     1      -4.534   6.665 130.570  0.00  0.00    +0.000 HD
ATOM     94  H   UNL     1      -3.332   6.943 131.763  0.00  0.00    +0.000 HD
ENDBRANCH  89  90
ENDBRANCH  22  89
TORSDOF 20
ENDMDL
MODEL 2
REMARK VINA RESULT:      -8.9      1.495      1.926
REMARK  Name = CHEMBL2369842
REMARK  20 active torsions:
REMARK  status: ('A' for Active; 'I' for Inactive)
REMARK    1  A    between atoms: C_2  and  C_4
REMARK    2  A    between atoms: C_4  and  N_5
REMARK    3  A    between atoms: C_6  and  C_8
REMARK    4  A    between atoms: C_8  and  C_9
REMARK    5  A    between atoms: C_8  and  N_16
REMARK    6  A    between atoms: C_9  and  C_10
REMARK    7  A    between atoms: C_10  and  C_11
REMARK    8  A    between atoms: C_11  and  N_12
REMARK    9  A    between atoms: C_17  and  C_19
REMARK   10  A    between atoms: C_24  and  C_26
REMARK   11  A    between atoms: C_35  and  C_36
REMARK   12  A    between atoms: C_36  and  C_37
REMARK   13  A    between atoms: C_40  and  O_41
REMARK   14  A    between atoms: C_47  and  C_48
REMARK   15  A    between atoms: C_48  and  C_49
REMARK   16  A    between atoms: C_58  and  C_59
REMARK   17  A    between atoms: C_59  and  C_60
REMARK   18  A    between atoms: C_63  and  O_64
REMARK   19  A    between atoms: C_70  and  C_71
REMARK   20  A    between atoms: C_71  and  C_72
REMARK                            x       y       z     vdW  Elec       q    Type
REMARK                         _______ _______ _______ _____ _____    ______ ____
ROOT
ATOM      1  C   UNL     1      -7.401   1.757 130.923  0.00  0.00    +0.000 C 
ATOM      2  C   UNL     1      -8.377  -0.198 132.254  0.00  0.00    +0.000 C 
ATOM      3  S   UNL     1      -8.678  -2.195 133.965  0.00  0.00    +0.000 S 
ATOM      4  S   UNL     1      -8.678  -4.563 135.460  0.00  0.00    +0.000 S 
ATOM      5  C   UNL     1      -6.968  -5.148 136.544  0.00  0.00    +0.000 C 
ATOM      6  C   UNL     1      -5.904  -6.236 136.810  0.00  0.00    +0.000 C 
ATOM      7  C   UNL     1      -4.413  -5.798 136.889  0.00  0.00    +0.000 C 
ATOM      8  O   UNL     1      -3.548  -6.588 137.278  0.00  0.00    +0.000 OA
ATOM      9  N   UNL     1      -4.065  -4.537 136.487  0.00  0.00    +0.000 N 
ATOM     10  C   UNL     1      -4.965  -3.540 135.987  0.00  0.00    +0.000 C 
ATOM     11  C   UNL     1      -5.588  -4.167 134.542  0.00  0.00    +0.000 C 
ATOM     12  O   UNL     1      -6.059  -5.297 134.298  0.00  0.00    +0.000 OA
ATOM     13  N   UNL     1      -5.984  -3.344 133.626  0.00  0.00    +0.000 N 
ATOM     14  C   UNL     1      -5.419  -2.125 133.597  0.00  0.00    +0.000 C 
ATOM     15  C   UNL     1      -5.989  -1.002 134.470  0.00  0.00    +0.000 C 
ATOM     16  O   UNL     1      -6.236  -1.083 135.670  0.00  0.00    +0.000 OA
ATOM     17  N   UNL     1      -6.136   0.194 134.054  0.00  0.00    +0.000 N 
ATOM     18  C   UNL     1      -6.041   0.596 132.825  0.00  0.00    +0.000 C 
ATOM     19  C   UNL     1      -4.375   0.838 132.369  0.00  0.00    +0.000 C 
ATOM     20  O   UNL     1      -3.399   0.246 131.864  0.00  0.00    +0.000 OA
ATOM     21  N   UNL     1      -4.036   1.964 131.926  0.00  0.00    +0.000 N 
ATOM     22  C   UNL     1      -4.847   2.933 131.588  0.00  0.00    +0.000 C 
ATOM     23  C   UNL     1      -5.853   1.801 130.777  0.00  0.00    +0.000 C 
ATOM     24  O   UNL     1      -6.278   0.604 130.873  0.00  0.00    +0.000 OA
ATOM     25  N   UNL     1      -6.954   2.891 129.963  0.00  0.00    +0.000 N 
ATOM     26  H   UNL     1      -3.100  -4.234 136.552  0.00  0.00    +0.000 HD
ATOM     27  H   UNL     1      -6.135  -3.746 132.710  0.00  0.00    +0.000 HD
ATOM     28  H   UNL     1      -6.568   0.827 134.647  0.00  0.00    +0.000 HD
ATOM     29  H   UNL     1      -3.258   1.786 131.264  0.00  0.00    +0.000 HD
ATOM     30  H   UNL     1      -6.838   3.217 128.755  0.00  0.00    +0.000 HD
ENDROOT
BRANCH   1  36
ATOM     31  C   UNL     1      -4.493   3.731 127.019  0.00  0.00    +0.000 C 
ATOM     32  C   UNL     1      -3.131   2.902 126.596  0.00  0.00    +0.000 C 
ATOM     33  C   UNL     1      -2.135   3.940 126.311  0.00  0.00    +0.000 C 
ATOM     34  C   UNL     1      -2.957   5.029 127.686  0.00  0.00    +0.000 C 
ATOM     35  N   UNL     1      -4.744   4.396 128.571  0.00  0.00    +0.000 N 
ATOM     36  C   UNL     1      -5.930   3.362 130.020  0.00  0.00    +0.000 C 
ATOM     37  O   UNL     1      -5.366   4.745 130.175  0.00  0.00    +0.000 OA
BRANCH  31  39
ATOM     38  N   UNL     1      -5.804   1.737 127.239  0.00  0.00    +0.000 N 
ATOM     39  C   UNL     1      -5.619   3.063 127.452  0.00  0.00    +0.000 C 
ATOM     40  O   UNL     1      -6.438   3.842 127.842  0.00  0.00    +0.000 OA
ATOM     41  H   UNL     1      -5.101   1.290 126.672  0.00  0.00    +0.000 HD
BRANCH  38  42
ATOM     42  C   UNL     1      -6.957   0.958 127.519  0.00  0.00    +0.000 C 
BRANCH  42  44
ATOM     43  N   UNL     1      -7.452  -1.175 128.448  0.00  0.00    +0.000 N 
ATOM     44  C   UNL     1      -6.689  -0.419 127.694  0.00  0.00    +0.000 C 
ATOM     45  O   UNL     1      -5.615  -0.716 127.278  0.00  0.00    +0.000 OA
ATOM     46  H   UNL     1      -8.456  -1.225 128.330  0.00  0.00    +0.000 HD
BRANCH  43  47
ATOM     47  C   UNL     1      -7.386  -2.435 128.602  0.00  0.00    +0.000 C 
BRANCH  47  49
ATOM     48  N   UNL     1      -8.597  -3.737 125.924  0.00  0.00    +0.000 N 
ATOM     49  C   UNL     1      -8.542  -3.965 127.769  0.00  0.00    +0.000 C 
ATOM     50  O   UNL     1      -9.641  -4.402 128.247  0.00  0.00    +0.000 OA
ATOM     51  H   UNL     1      -9.073  -4.475 125.571  0.00  0.00    +0.000 HD
ATOM     52  H   UNL     1      -7.775  -3.335 125.365  0.00  0.00    +0.000 HD
ENDBRANCH  47  49
ENDBRANCH  43  47
ENDBRANCH  42  44
BRANCH  42  53
ATOM     53  C   UNL     1      -8.353   1.478 127.188  0.00  0.00    +0.000 C 
BRANCH  53  54
ATOM     54  C   UNL     1      -9.421   0.796 126.066  0.00  0.00    +0.000 C 
BRANCH  54  55
ATOM     55  C   UNL     1      -8.909   0.987 124.738  0.00  0.00    +0.000 C 
BRANCH  55  56
ATOM     56  N   UNL     1      -8.409  -0.293 124.284  0.00  0.00    +0.000 NA
ATOM     57  C   UNL     1      -8.949  -0.759 123.209  0.00  0.00    +0.000 C 
ATOM     58  N   UNL     1      -9.935  -0.088 122.529  0.00  0.00    +0.000 N 
ATOM     59  N   UNL     1      -8.518  -1.968 122.709  0.00  0.00    +0.000 N 
ATOM     60  H   UNL     1     -10.294   0.815 122.858  0.00  0.00    +0.000 HD
ATOM     61  H   UNL     1     -10.381  -0.413 121.687  0.00  0.00    +0.000 HD
ATOM     62  H   UNL     1      -7.783  -2.515 123.179  0.00  0.00    +0.000 HD
ATOM     63  H   UNL     1      -8.878  -2.412 121.876  0.00  0.00    +0.000 HD
ENDBRANCH  55  56
ENDBRANCH  54  55
ENDBRANCH  53  54
ENDBRANCH  42  53
ENDBRANCH  38  42
ENDBRANCH  31  39
ENDBRANCH   1  36
BRANCH  10  64
ATOM     64  C   UNL     1      -4.175  -2.326 135.848  0.00  0.00    +0.000 C 
BRANCH  64  65
ATOM     65  C   UNL     1      -2.837  -2.234 136.321  0.00  0.00    +0.000 A 
ATOM     66  C   UNL     1      -2.800  -1.716 137.579  0.00  0.00    +0.000 A 
ATOM     67  C   UNL     1      -1.598  -1.443 138.158  0.00  0.00    +0.000 A 
ATOM     68  C   UNL     1      -0.438  -1.746 137.479  0.00  0.00    +0.000 A 
ATOM     69  C   UNL     1      -0.490  -2.284 136.208  0.00  0.00    +0.000 A 
ATOM     70  C   UNL     1      -1.699  -2.547 135.620  0.00  0.00    +0.000 A 
BRANCH  68  71
ATOM     71  O   UNL     1       0.805  -1.546 137.985  0.00  0.00    +0.000 OA
ATOM     72  H   UNL     1       1.522  -1.692 137.349  0.00  0.00    +0.000 HD
ENDBRANCH  68  71
ENDBRANCH  64  65
ENDBRANCH  10  64
BRANCH  14  73
ATOM     73  C   UNL     1      -5.656  -1.875 132.089  0.00  0.00    +0.000 C 
BRANCH  73  74
ATOM     74  C   UNL     1      -4.497  -2.878 130.749  0.00  0.00    +0.000 A 
ATOM     75  C   UNL     1      -4.932  -4.102 130.521  0.00  0.00    +0.000 A 
ATOM     76  C   UNL     1      -4.066  -4.602 129.728  0.00  0.00    +0.000 A 
ATOM     77  C   UNL     1      -2.971  -3.979 129.192  0.00  0.00    +0.000 A 
ATOM     78  C   UNL     1      -2.569  -2.703 129.338  0.00  0.00    +0.000 A 
ATOM     79  C   UNL     1      -3.463  -1.923 129.761  0.00  0.00    +0.000 A 
ENDBRANCH  73  74
ENDBRANCH  14  73
BRANCH  18  80
ATOM     80  C   UNL     1      -6.844   1.840 132.915  0.00  0.00    +0.000 C 
BRANCH  80  81
ATOM     81  C   UNL     1      -6.800   2.832 134.037  0.00  0.00    +0.000 A 
ATOM     82  C   UNL     1      -5.774   3.306 134.996  0.00  0.00    +0.000 A 
ATOM     83  C   UNL     1      -6.016   4.363 135.763  0.00  0.00    +0.000 A 
ATOM     84  C   UNL     1      -7.244   4.918 135.611  0.00  0.00    +0.000 A 
ATOM     85  C   UNL     1      -8.181   4.440 134.709  0.00  0.00    +0.000 A 
ATOM     86  C   UNL     1      -7.958   3.411 133.907  0.00  0.00    +0.000 A 
BRANCH  84  87
ATOM     87  O   UNL     1      -7.652   5.971 136.344  0.00  0.00    +0.000 OA
ATOM     88  H   UNL     1      -7.358   6.826 135.996  0.00  0.00    +0.000 HD
ENDBRANCH  84  87
ENDBRANCH  80  81
ENDBRANCH  18  80
BRANCH  22  89
ATOM     89  C   UNL     1      -4.189   4.156 131.158  0.00  0.00    +0.000 C 
BRANCH  89  90
ATOM     90  C   UNL     1      -3.150   4.687 131.921  0.00  0.00    +0.000 C 
ATOM     91  N   UNL     1      -3.327   6.008 132.009  0.00  0.00    +0.000 N 
ATOM     92  O   UNL     1      -2.259   4.064 132.446  0.00  0.00    +0.000 OA
ATOM     93  H   UNL     1      -4.155   6.484 131.646  0.00  0.00    +0.000 HD
ATOM     94  H   UNL     1      -2.659   6.547 132.483  0.00  0.00    +0.000 HD
ENDBRANCH  89  90
ENDBRANCH  22  89
TORSDOF 20
ENDMDL
MODEL 3
REMARK VINA RESULT:      -8.8      3.387     10.423
REMARK  Name = CHEMBL2369842
REMARK  20 active torsions:
REMARK  status: ('A' for Active; 'I' for Inactive)
REMARK    1  A    between atoms: C_2  and  C_4
REMARK    2  A    between atoms: C_4  and  N_5
REMARK    3  A    between atoms: C_6  and  C_8
REMARK    4  A    between atoms: C_8  and  C_9
REMARK    5  A    between atoms: C_8  and  N_16
REMARK    6  A    between atoms: C_9  and  C_10
REMARK    7  A    between atoms: C_10  and  C_11
REMARK    8  A    between atoms: C_11  and  N_12
REMARK    9  A    between atoms: C_17  and  C_19
REMARK   10  A    between atoms: C_24  and  C_26
REMARK   11  A    between atoms: C_35  and  C_36
REMARK   12  A    between atoms: C_36  and  C_37
REMARK   13  A    between atoms: C_40  and  O_41
REMARK   14  A    between atoms: C_47  and  C_48
REMARK   15  A    between atoms: C_48  and  C_49
REMARK   16  A    between atoms: C_58  and  C_59
REMARK   17  A    between atoms: C_59  and  C_60
REMARK   18  A    between atoms: C_63  and  O_64
REMARK   19  A    between atoms: C_70  and  C_71
REMARK   20  A    between atoms: C_71  and  C_72
REMARK                            x       y       z     vdW  Elec       q    Type
REMARK                         _______ _______ _______ _____ _____    ______ ____
ROOT
ATOM      1  C   UNL     1      -4.889  -3.112 135.019  0.00  0.00    +0.000 C 
ATOM      2  C   UNL     1      -6.790  -1.866 133.843  0.00  0.00    +0.000 C 
ATOM      3  S   UNL     1      -8.165  -0.104 132.426  0.00  0.00    +0.000 S 
ATOM      4  S   UNL     1      -9.542   2.074 131.329  0.00  0.00    +0.000 S 
ATOM      5  C   UNL     1      -8.498   3.783 130.672  0.00  0.00    +0.000 C 
ATOM      6  C   UNL     1      -8.314   5.313 130.769  0.00  0.00    +0.000 C 
ATOM      7  C   UNL     1      -6.867   5.870 130.895  0.00  0.00    +0.000 C 
ATOM      8  O   UNL     1      -6.650   7.081 130.792  0.00  0.00    +0.000 OA
ATOM      9  N   UNL     1      -5.839   5.006 131.159  0.00  0.00    +0.000 N 
ATOM     10  C   UNL     1      -5.962   3.588 131.332  0.00  0.00    +0.000 C 
ATOM     11  C   UNL     1      -6.912   3.376 132.719  0.00  0.00    +0.000 C 
ATOM     12  O   UNL     1      -7.988   3.919 133.041  0.00  0.00    +0.000 OA
ATOM     13  N   UNL     1      -6.765   2.296 133.415  0.00  0.00    +0.000 N 
ATOM     14  C   UNL     1      -5.574   1.677 133.361  0.00  0.00    +0.000 C 
ATOM     15  C   UNL     1      -5.288   0.671 132.241  0.00  0.00    +0.000 C 
ATOM     16  O   UNL     1      -5.471   0.863 131.042  0.00  0.00    +0.000 OA
ATOM     17  N   UNL     1      -4.691  -0.438 132.438  0.00  0.00    +0.000 N 
ATOM     18  C   UNL     1      -4.433  -0.975 133.590  0.00  0.00    +0.000 C 
ATOM     19  C   UNL     1      -2.995  -0.286 134.298  0.00  0.00    +0.000 C 
ATOM     20  O   UNL     1      -2.616   0.632 135.053  0.00  0.00    +0.000 OA
ATOM     21  N   UNL     1      -2.059  -1.061 134.619  0.00  0.00    +0.000 N 
ATOM     22  C   UNL     1      -2.121  -2.367 134.655  0.00  0.00    +0.000 C 
ATOM     23  C   UNL     1      -3.650  -2.268 135.433  0.00  0.00    +0.000 C 
ATOM     24  O   UNL     1      -4.714  -1.568 135.443  0.00  0.00    +0.000 OA
ATOM     25  N   UNL     1      -3.890  -3.948 135.862  0.00  0.00    +0.000 N 
ATOM     26  H   UNL     1      -4.890   5.354 131.224  0.00  0.00    +0.000 HD
ATOM     27  H   UNL     1      -7.177   2.308 134.338  0.00  0.00    +0.000 HD
ATOM     28  H   UNL     1      -4.613  -1.048 131.689  0.00  0.00    +0.000 HD
ATOM     29  H   UNL     1      -1.590  -0.616 135.430  0.00  0.00    +0.000 HD
ATOM     30  H   UNL     1      -3.660  -4.409 137.008  0.00  0.00    +0.000 HD
ENDROOT
BRANCH   1  36
ATOM     31  C   UNL     1      -1.231  -2.945 138.785  0.00  0.00    +0.000 C 
ATOM     32  C   UNL     1      -0.420  -1.524 138.991  0.00  0.00    +0.000 C 
ATOM     33  C   UNL     1       0.963  -1.919 139.274  0.00  0.00    +0.000 C 
ATOM     34  C   UNL     1       0.711  -3.437 138.097  0.00  0.00    +0.000 C 
ATOM     35  N   UNL     1      -1.195  -3.846 137.337  0.00  0.00    +0.000 N 
ATOM     36  C   UNL     1      -2.791  -3.696 135.920  0.00  0.00    +0.000 C 
ATOM     37  O   UNL     1      -1.638  -4.655 135.842  0.00  0.00    +0.000 OA
BRANCH  31  39
ATOM     38  N   UNL     1      -3.421  -3.918 138.805  0.00  0.00    +0.000 N 
ATOM     39  C   UNL     1      -2.557  -2.953 138.405  0.00  0.00    +0.000 C 
ATOM     40  O   UNL     1      -2.749  -2.132 137.558  0.00  0.00    +0.000 OA
ATOM     41  H   UNL     1      -3.011  -4.673 139.331  0.00  0.00    +0.000 HD
BRANCH  38  42
ATOM     42  C   UNL     1      -4.765  -4.114 138.392  0.00  0.00    +0.000 C 
BRANCH  42  44
ATOM     43  N   UNL     1      -6.151  -2.221 137.994  0.00  0.00    +0.000 N 
ATOM     44  C   UNL     1      -5.651  -3.101 138.829  0.00  0.00    +0.000 C 
ATOM     45  O   UNL     1      -5.685  -3.029 140.016  0.00  0.00    +0.000 OA
ATOM     46  H   UNL     1      -6.627  -2.488 137.142  0.00  0.00    +0.000 HD
BRANCH  43  47
ATOM     47  C   UNL     1      -7.032  -1.337 138.235  0.00  0.00    +0.000 C 
BRANCH  47  49
ATOM     48  N   UNL     1      -8.889  -3.005 140.259  0.00  0.00    +0.000 N 
ATOM     49  C   UNL     1      -8.895  -1.499 139.168  0.00  0.00    +0.000 C 
ATOM     50  O   UNL     1     -10.022  -1.300 138.603  0.00  0.00    +0.000 OA
ATOM     51  H   UNL     1      -9.720  -3.017 140.713  0.00  0.00    +0.000 HD
ATOM     52  H   UNL     1      -8.013  -3.344 140.774  0.00  0.00    +0.000 HD
ENDBRANCH  47  49
ENDBRANCH  43  47
ENDBRANCH  42  44
BRANCH  42  53
ATOM     53  C   UNL     1      -5.258  -5.489 137.951  0.00  0.00    +0.000 C 
BRANCH  53  54
ATOM     54  C   UNL     1      -6.861  -6.028 138.008  0.00  0.00    +0.000 C 
BRANCH  54  55
ATOM     55  C   UNL     1      -7.600  -5.457 136.918  0.00  0.00    +0.000 C 
BRANCH  55  56
ATOM     56  N   UNL     1      -8.636  -4.626 137.492  0.00  0.00    +0.000 NA
ATOM     57  C   UNL     1      -9.822  -4.795 137.014  0.00  0.00    +0.000 C 
ATOM     58  N   UNL     1     -10.095  -5.706 136.024  0.00  0.00    +0.000 N 
ATOM     59  N   UNL     1     -10.863  -4.046 137.518  0.00  0.00    +0.000 N 
ATOM     60  H   UNL     1      -9.357  -6.288 135.613  0.00  0.00    +0.000 HD
ATOM     61  H   UNL     1     -11.005  -5.871 135.625  0.00  0.00    +0.000 HD
ATOM     62  H   UNL     1     -10.716  -3.347 138.260  0.00  0.00    +0.000 HD
ATOM     63  H   UNL     1     -11.823  -4.107 137.209  0.00  0.00    +0.000 HD
ENDBRANCH  55  56
ENDBRANCH  54  55
ENDBRANCH  53  54
ENDBRANCH  42  53
ENDBRANCH  38  42
ENDBRANCH  31  39
ENDBRANCH   1  36
BRANCH  10  64
ATOM     64  C   UNL     1      -4.601   3.081 131.428  0.00  0.00    +0.000 C 
BRANCH  64  65
ATOM     65  C   UNL     1      -3.472   3.945 131.468  0.00  0.00    +0.000 A 
ATOM     66  C   UNL     1      -2.859   3.887 132.681  0.00  0.00    +0.000 A 
ATOM     67  C   UNL     1      -1.826   4.731 132.952  0.00  0.00    +0.000 A 
ATOM     68  C   UNL     1      -1.385   5.595 131.973  0.00  0.00    +0.000 A 
ATOM     69  C   UNL     1      -2.008   5.634 130.741  0.00  0.00    +0.000 A 
ATOM     70  C   UNL     1      -3.056   4.793 130.472  0.00  0.00    +0.000 A 
BRANCH  68  71
ATOM     71  O   UNL     1      -0.341   6.447 132.134  0.00  0.00    +0.000 OA
ATOM     72  H   UNL     1       0.494   6.014 132.369  0.00  0.00    +0.000 HD
ENDBRANCH  68  71
ENDBRANCH  64  65
ENDBRANCH  10  64
BRANCH  14  73
ATOM     73  C   UNL     1      -5.684   0.998 134.747  0.00  0.00    +0.000 C 
BRANCH  73  74
ATOM     74  C   UNL     1      -5.213   2.091 136.399  0.00  0.00    +0.000 A 
ATOM     75  C   UNL     1      -4.746   1.345 137.381  0.00  0.00    +0.000 A 
ATOM     76  C   UNL     1      -4.572   2.164 138.344  0.00  0.00    +0.000 A 
ATOM     77  C   UNL     1      -4.769   3.519 138.329  0.00  0.00    +0.000 A 
ATOM     78  C   UNL     1      -5.151   4.306 137.307  0.00  0.00    +0.000 A 
ATOM     79  C   UNL     1      -5.012   3.782 136.170  0.00  0.00    +0.000 A 
ENDBRANCH  73  74
ENDBRANCH  14  73
BRANCH  18  80
ATOM     80  C   UNL     1      -4.297  -2.392 133.170  0.00  0.00    +0.000 C 
BRANCH  80  81
ATOM     81  C   UNL     1      -4.463  -2.912 131.775  0.00  0.00    +0.000 A 
ATOM     82  C   UNL     1      -5.548  -3.571 131.009  0.00  0.00    +0.000 A 
ATOM     83  C   UNL     1      -5.431  -3.737 129.697  0.00  0.00    +0.000 A 
ATOM     84  C   UNL     1      -4.267  -3.294 129.160  0.00  0.00    +0.000 A 
ATOM     85  C   UNL     1      -3.271  -2.691 129.911  0.00  0.00    +0.000 A 
ATOM     86  C   UNL     1      -3.372  -2.480 131.214  0.00  0.00    +0.000 A 
BRANCH  84  87
ATOM     87  O   UNL     1      -3.984  -3.425 127.850  0.00  0.00    +0.000 OA
ATOM     88  H   UNL     1      -3.234  -4.011 127.670  0.00  0.00    +0.000 HD
ENDBRANCH  84  87
ENDBRANCH  80  81
ENDBRANCH  18  80
BRANCH  22  89
ATOM     89  C   UNL     1      -0.874  -3.026 135.009  0.00  0.00    +0.000 C 
BRANCH  89  90
ATOM     90  C   UNL     1       0.300  -2.686 134.339  0.00  0.00    +0.000 C 
ATOM     91  N   UNL     1       1.156  -3.706 134.448  0.00  0.00    +0.000 N 
ATOM     92  O   UNL     1       0.507  -1.664 133.731  0.00  0.00    +0.000 OA
ATOM     93  H   UNL     1       0.904  -4.600 134.875  0.00  0.00    +0.000 HD
ATOM     94  H   UNL     1       2.054  -3.619 134.063  0.00  0.00    +0.000 HD
ENDBRANCH  89  90
ENDBRANCH  22  89
TORSDOF 20
ENDMDL
MODEL 4
REMARK VINA RESULT:      -8.8      1.322      2.519
REMARK  Name = CHEMBL2369842
REMARK  20 active torsions:
REMARK  status: ('A' for Active; 'I' for Inactive)
REMARK    1  A    between atoms: C_2  and  C_4
REMARK    2  A    between atoms: C_4  and  N_5
REMARK    3  A    between atoms: C_6  and  C_8
REMARK    4  A    between atoms: C_8  and  C_9
REMARK    5  A    between atoms: C_8  and  N_16
REMARK    6  A    between atoms: C_9  and  C_10
REMARK    7  A    between atoms: C_10  and  C_11
REMARK    8  A    between atoms: C_11  and  N_12
REMARK    9  A    between atoms: C_17  and  C_19
REMARK   10  A    between atoms: C_24  and  C_26
REMARK   11  A    between atoms: C_35  and  C_36
REMARK   12  A    between atoms: C_36  and  C_37
REMARK   13  A    between atoms: C_40  and  O_41
REMARK   14  A    between atoms: C_47  and  C_48
REMARK   15  A    between atoms: C_48  and  C_49
REMARK   16  A    between atoms: C_58  and  C_59
REMARK   17  A    between atoms: C_59  and  C_60
REMARK   18  A    between atoms: C_63  and  O_64
REMARK   19  A    between atoms: C_70  and  C_71
REMARK   20  A    between atoms: C_71  and  C_72
REMARK                            x       y       z     vdW  Elec       q    Type
REMARK                         _______ _______ _______ _____ _____    ______ ____
ROOT
ATOM      1  C   UNL     1      -7.620   1.729 130.706  0.00  0.00    +0.000 C 
ATOM      2  C   UNL     1      -8.439  -0.297 132.038  0.00  0.00    +0.000 C 
ATOM      3  S   UNL     1      -8.590  -2.300 133.761  0.00  0.00    +0.000 S 
ATOM      4  S   UNL     1      -8.403  -4.647 135.277  0.00  0.00    +0.000 S 
ATOM      5  C   UNL     1      -6.667  -5.066 136.397  0.00  0.00    +0.000 C 
ATOM      6  C   UNL     1      -5.515  -6.050 136.692  0.00  0.00    +0.000 C 
ATOM      7  C   UNL     1      -4.071  -5.478 136.794  0.00  0.00    +0.000 C 
ATOM      8  O   UNL     1      -3.145  -6.183 137.205  0.00  0.00    +0.000 OA
ATOM      9  N   UNL     1      -3.831  -4.194 136.387  0.00  0.00    +0.000 N 
ATOM     10  C   UNL     1      -4.809  -3.287 135.862  0.00  0.00    +0.000 C 
ATOM     11  C   UNL     1      -5.345  -3.978 134.411  0.00  0.00    +0.000 C 
ATOM     12  O   UNL     1      -5.707  -5.148 134.169  0.00  0.00    +0.000 OA
ATOM     13  N   UNL     1      -5.796  -3.201 133.481  0.00  0.00    +0.000 N 
ATOM     14  C   UNL     1      -5.345  -1.937 133.451  0.00  0.00    +0.000 C 
ATOM     15  C   UNL     1      -6.030  -0.863 134.303  0.00  0.00    +0.000 C 
ATOM     16  O   UNL     1      -6.291  -0.957 135.500  0.00  0.00    +0.000 OA
ATOM     17  N   UNL     1      -6.277   0.311 133.874  0.00  0.00    +0.000 N 
ATOM     18  C   UNL     1      -6.196   0.710 132.643  0.00  0.00    +0.000 C 
ATOM     19  C   UNL     1      -4.551   1.100 132.215  0.00  0.00    +0.000 C 
ATOM     20  O   UNL     1      -3.516   0.595 131.733  0.00  0.00    +0.000 OA
ATOM     21  N   UNL     1      -4.307   2.249 131.768  0.00  0.00    +0.000 N 
ATOM     22  C   UNL     1      -5.197   3.138 131.407  0.00  0.00    +0.000 C 
ATOM     23  C   UNL     1      -6.080   1.913 130.588  0.00  0.00    +0.000 C 
ATOM     24  O   UNL     1      -6.396   0.683 130.687  0.00  0.00    +0.000 OA
ATOM     25  N   UNL     1      -7.260   2.892 129.744  0.00  0.00    +0.000 N 
ATOM     26  H   UNL     1      -2.900  -3.804 136.466  0.00  0.00    +0.000 HD
ATOM     27  H   UNL     1      -5.893  -3.622 132.566  0.00  0.00    +0.000 HD
ATOM     28  H   UNL     1      -6.776   0.907 134.453  0.00  0.00    +0.000 HD
ATOM     29  H   UNL     1      -3.504   2.137 131.121  0.00  0.00    +0.000 HD
ATOM     30  H   UNL     1      -7.151   3.218 128.536  0.00  0.00    +0.000 HD
ENDROOT
BRANCH   1  36
ATOM     31  C   UNL     1      -4.376   3.701 127.077  0.00  0.00    +0.000 C 
ATOM     32  C   UNL     1      -2.841   3.098 127.025  0.00  0.00    +0.000 C 
ATOM     33  C   UNL     1      -1.991   4.260 126.747  0.00  0.00    +0.000 C 
ATOM     34  C   UNL     1      -3.229   5.341 127.773  0.00  0.00    +0.000 C 
ATOM     35  N   UNL     1      -5.026   4.499 128.437  0.00  0.00    +0.000 N 
ATOM     36  C   UNL     1      -6.284   3.455 129.816  0.00  0.00    +0.000 C 
ATOM     37  O   UNL     1      -5.993   4.927 129.838  0.00  0.00    +0.000 OA
BRANCH  31  39
ATOM     38  N   UNL     1      -5.440   1.557 127.187  0.00  0.00    +0.000 N 
ATOM     39  C   UNL     1      -5.440   2.894 127.417  0.00  0.00    +0.000 C 
ATOM     40  O   UNL     1      -6.378   3.560 127.743  0.00  0.00    +0.000 OA
ATOM     41  H   UNL     1      -4.645   1.208 126.677  0.00  0.00    +0.000 HD
BRANCH  38  42
ATOM     42  C   UNL     1      -6.506   0.638 127.372  0.00  0.00    +0.000 C 
BRANCH  42  44
ATOM     43  N   UNL     1      -7.768   1.770 125.703  0.00  0.00    +0.000 N 
ATOM     44  C   UNL     1      -7.731   1.062 126.808  0.00  0.00    +0.000 C 
ATOM     45  O   UNL     1      -8.641   0.895 127.555  0.00  0.00    +0.000 OA
ATOM     46  H   UNL     1      -7.297   1.481 124.855  0.00  0.00    +0.000 HD
BRANCH  43  47
ATOM     47  C   UNL     1      -8.795   2.118 125.040  0.00  0.00    +0.000 C 
BRANCH  47  49
ATOM     48  N   UNL     1     -11.740   1.444 123.944  0.00  0.00    +0.000 N 
ATOM     49  C   UNL     1      -9.945   1.049 123.661  0.00  0.00    +0.000 C 
ATOM     50  O   UNL     1      -9.752  -0.167 123.325  0.00  0.00    +0.000 OA
ATOM     51  H   UNL     1     -12.229   0.995 123.268  0.00  0.00    +0.000 HD
ATOM     52  H   UNL     1     -12.076   2.406 124.274  0.00  0.00    +0.000 HD
ENDBRANCH  47  49
ENDBRANCH  43  47
ENDBRANCH  42  44
BRANCH  42  53
ATOM     53  C   UNL     1      -6.438  -0.432 128.458  0.00  0.00    +0.000 C 
BRANCH  53  54
ATOM     54  C   UNL     1      -7.004  -2.021 128.314  0.00  0.00    +0.000 C 
BRANCH  54  55
ATOM     55  C   UNL     1      -6.695  -2.525 127.006  0.00  0.00    +0.000 C 
BRANCH  55  56
ATOM     56  N   UNL     1      -7.933  -2.997 126.425  0.00  0.00    +0.000 NA
ATOM     57  C   UNL     1      -8.195  -2.571 125.237  0.00  0.00    +0.000 C 
ATOM     58  N   UNL     1      -7.356  -1.724 124.555  0.00  0.00    +0.000 N 
ATOM     59  N   UNL     1      -9.352  -2.985 124.613  0.00  0.00    +0.000 N 
ATOM     60  H   UNL     1      -6.483  -1.384 124.973  0.00  0.00    +0.000 HD
ATOM     61  H   UNL     1      -7.521  -1.370 123.627  0.00  0.00    +0.000 HD
ATOM     62  H   UNL     1     -10.019  -3.618 125.077  0.00  0.00    +0.000 HD
ATOM     63  H   UNL     1      -9.642  -2.707 123.686  0.00  0.00    +0.000 HD
ENDBRANCH  55  56
ENDBRANCH  54  55
ENDBRANCH  53  54
ENDBRANCH  42  53
ENDBRANCH  38  42
ENDBRANCH  31  39
ENDBRANCH   1  36
BRANCH  10  64
ATOM     64  C   UNL     1      -4.130  -2.006 135.726  0.00  0.00    +0.000 C 
BRANCH  64  65
ATOM     65  C   UNL     1      -2.899  -1.729 136.382  0.00  0.00    +0.000 A 
ATOM     66  C   UNL     1      -1.846  -1.916 135.540  0.00  0.00    +0.000 A 
ATOM     67  C   UNL     1      -0.576  -1.812 136.021  0.00  0.00    +0.000 A 
ATOM     68  C   UNL     1      -0.380  -1.467 137.340  0.00  0.00    +0.000 A 
ATOM     69  C   UNL     1      -1.457  -1.267 138.180  0.00  0.00    +0.000 A 
ATOM     70  C   UNL     1      -2.736  -1.384 137.701  0.00  0.00    +0.000 A 
BRANCH  68  71
ATOM     71  O   UNL     1       0.845  -1.303 137.902  0.00  0.00    +0.000 OA
ATOM     72  H   UNL     1       0.825  -0.938 138.800  0.00  0.00    +0.000 HD
ENDBRANCH  68  71
ENDBRANCH  64  65
ENDBRANCH  10  64
BRANCH  14  73
ATOM     73  C   UNL     1      -5.575  -1.721 131.937  0.00  0.00    +0.000 C 
BRANCH  73  74
ATOM     74  C   UNL     1      -4.273  -2.580 130.629  0.00  0.00    +0.000 A 
ATOM     75  C   UNL     1      -3.131  -1.925 130.549  0.00  0.00    +0.000 A 
ATOM     76  C   UNL     1      -2.473  -2.546 129.650  0.00  0.00    +0.000 A 
ATOM     77  C   UNL     1      -2.850  -3.676 128.973  0.00  0.00    +0.000 A 
ATOM     78  C   UNL     1      -3.968  -4.410 129.114  0.00  0.00    +0.000 A 
ATOM     79  C   UNL     1      -4.585  -4.214 130.194  0.00  0.00    +0.000 A 
ENDBRANCH  73  74
ENDBRANCH  14  73
BRANCH  18  80
ATOM     80  C   UNL     1      -7.110   1.878 132.707  0.00  0.00    +0.000 C 
BRANCH  80  81
ATOM     81  C   UNL     1      -7.159   2.893 133.808  0.00  0.00    +0.000 A 
ATOM     82  C   UNL     1      -6.172   3.517 134.721  0.00  0.00    +0.000 A 
ATOM     83  C   UNL     1      -6.524   4.552 135.475  0.00  0.00    +0.000 A 
ATOM     84  C   UNL     1      -7.817   4.941 135.355  0.00  0.00    +0.000 A 
ATOM     85  C   UNL     1      -8.713   4.326 134.497  0.00  0.00    +0.000 A 
ATOM     86  C   UNL     1      -8.385   3.315 133.707  0.00  0.00    +0.000 A 
BRANCH  84  87
ATOM     87  O   UNL     1      -8.334   5.950 136.081  0.00  0.00    +0.000 OA
ATOM     88  H   UNL     1      -8.150   5.883 137.030  0.00  0.00    +0.000 HD
ENDBRANCH  84  87
ENDBRANCH  80  81
ENDBRANCH  18  80
BRANCH  22  89
ATOM     89  C   UNL     1      -4.644   4.412 130.977  0.00  0.00    +0.000 C 
BRANCH  89  90
ATOM     90  C   UNL     1      -3.796   5.119 131.828  0.00  0.00    +0.000 C 
ATOM     91  N   UNL     1      -3.698   6.373 131.377  0.00  0.00    +0.000 N 
ATOM     92  O   UNL     1      -3.264   4.692 132.824  0.00  0.00    +0.000 OA
ATOM     93  H   UNL     1      -4.253   6.726 130.594  0.00  0.00    +0.000 HD
ATOM     94  H   UNL     1      -3.105   7.001 131.840  0.00  0.00    +0.000 HD
ENDBRANCH  89  90
ENDBRANCH  22  89
TORSDOF 20
ENDMDL
MODEL 5
REMARK VINA RESULT:      -8.8      4.082     10.525
REMARK  Name = CHEMBL2369842
REMARK  20 active torsions:
REMARK  status: ('A' for Active; 'I' for Inactive)
REMARK    1  A    between atoms: C_2  and  C_4
REMARK    2  A    between atoms: C_4  and  N_5
REMARK    3  A    between atoms: C_6  and  C_8
REMARK    4  A    between atoms: C_8  and  C_9
REMARK    5  A    between atoms: C_8  and  N_16
REMARK    6  A    between atoms: C_9  and  C_10
REMARK    7  A    between atoms: C_10  and  C_11
REMARK    8  A    between atoms: C_11  and  N_12
REMARK    9  A    between atoms: C_17  and  C_19
REMARK   10  A    between atoms: C_24  and  C_26
REMARK   11  A    between atoms: C_35  and  C_36
REMARK   12  A    between atoms: C_36  and  C_37
REMARK   13  A    between atoms: C_40  and  O_41
REMARK   14  A    between atoms: C_47  and  C_48
REMARK   15  A    between atoms: C_48  and  C_49
REMARK   16  A    between atoms: C_58  and  C_59
REMARK   17  A    between atoms: C_59  and  C_60
REMARK   18  A    between atoms: C_63  and  O_64
REMARK   19  A    between atoms: C_70  and  C_71
REMARK   20  A    between atoms: C_71  and  C_72
REMARK                            x       y       z     vdW  Elec       q    Type
REMARK                         _______ _______ _______ _____ _____    ______ ____
ROOT
ATOM      1  C   UNL     1      -3.840   4.231 136.301  0.00  0.00    +0.000 C 
ATOM      2  C   UNL     1      -3.081   3.962 133.872  0.00  0.00    +0.000 C 
ATOM      3  S   UNL     1      -3.011   3.977 131.226  0.00  0.00    +0.000 S 
ATOM      4  S   UNL     1      -3.266   3.598 128.463  0.00  0.00    +0.000 S 
ATOM      5  C   UNL     1      -5.055   4.105 127.471  0.00  0.00    +0.000 C 
ATOM      6  C   UNL     1      -6.217   3.642 126.565  0.00  0.00    +0.000 C 
ATOM      7  C   UNL     1      -7.667   4.029 126.978  0.00  0.00    +0.000 C 
ATOM      8  O   UNL     1      -8.610   3.846 126.203  0.00  0.00    +0.000 OA
ATOM      9  N   UNL     1      -7.891   4.544 128.226  0.00  0.00    +0.000 N 
ATOM     10  C   UNL     1      -6.891   4.775 129.228  0.00  0.00    +0.000 C 
ATOM     11  C   UNL     1      -6.278   3.246 129.625  0.00  0.00    +0.000 C 
ATOM     12  O   UNL     1      -5.899   2.319 128.881  0.00  0.00    +0.000 OA
ATOM     13  N   UNL     1      -5.783   3.062 130.806  0.00  0.00    +0.000 N 
ATOM     14  C   UNL     1      -6.238   3.841 131.801  0.00  0.00    +0.000 C 
ATOM     15  C   UNL     1      -5.602   5.214 132.045  0.00  0.00    +0.000 C 
ATOM     16  O   UNL     1      -5.402   6.073 131.190  0.00  0.00    +0.000 OA
ATOM     17  N   UNL     1      -5.338   5.660 133.209  0.00  0.00    +0.000 N 
ATOM     18  C   UNL     1      -5.357   4.981 134.313  0.00  0.00    +0.000 C 
ATOM     19  C   UNL     1      -6.980   4.839 134.937  0.00  0.00    +0.000 C 
ATOM     20  O   UNL     1      -7.986   4.103 134.896  0.00  0.00    +0.000 OA
ATOM     21  N   UNL     1      -7.206   5.236 136.108  0.00  0.00    +0.000 N 
ATOM     22  C   UNL     1      -6.302   5.575 136.992  0.00  0.00    +0.000 C 
ATOM     23  C   UNL     1      -5.372   4.195 136.564  0.00  0.00    +0.000 C 
ATOM     24  O   UNL     1      -5.057   3.486 135.554  0.00  0.00    +0.000 OA
ATOM     25  N   UNL     1      -4.154   4.239 137.820  0.00  0.00    +0.000 N 
ATOM     26  H   UNL     1      -8.827   4.818 128.500  0.00  0.00    +0.000 HD
ATOM     27  H   UNL     1      -5.637   2.098 131.075  0.00  0.00    +0.000 HD
ATOM     28  H   UNL     1      -4.872   6.508 133.272  0.00  0.00    +0.000 HD
ATOM     29  H   UNL     1      -7.973   4.638 136.467  0.00  0.00    +0.000 HD
ATOM     30  H   UNL     1      -4.202   3.528 138.855  0.00  0.00    +0.000 HD
ENDROOT
BRANCH   1  36
ATOM     31  C   UNL     1      -6.019   2.698 140.828  0.00  0.00    +0.000 C 
ATOM     32  C   UNL     1      -7.280   1.639 140.741  0.00  0.00    +0.000 C 
ATOM     33  C   UNL     1      -8.215   2.083 141.779  0.00  0.00    +0.000 C 
ATOM     34  C   UNL     1      -7.655   3.903 141.426  0.00  0.00    +0.000 C 
ATOM     35  N   UNL     1      -6.050   4.255 140.130  0.00  0.00    +0.000 N 
ATOM     36  C   UNL     1      -5.135   4.618 138.231  0.00  0.00    +0.000 C 
ATOM     37  O   UNL     1      -5.725   5.663 139.133  0.00  0.00    +0.000 OA
BRANCH  31  39
ATOM     38  N   UNL     1      -4.827   1.599 139.063  0.00  0.00    +0.000 N 
ATOM     39  C   UNL     1      -4.984   2.640 139.919  0.00  0.00    +0.000 C 
ATOM     40  O   UNL     1      -4.191   3.507 140.138  0.00  0.00    +0.000 OA
ATOM     41  H   UNL     1      -5.469   0.834 139.193  0.00  0.00    +0.000 HD
BRANCH  38  42
ATOM     42  C   UNL     1      -3.750   1.355 138.172  0.00  0.00    +0.000 C 
BRANCH  42  44
ATOM     43  N   UNL     1      -3.249   0.278 136.110  0.00  0.00    +0.000 N 
ATOM     44  C   UNL     1      -4.071   0.472 137.114  0.00  0.00    +0.000 C 
ATOM     45  O   UNL     1      -5.213   0.139 137.150  0.00  0.00    +0.000 OA
ATOM     46  H   UNL     1      -2.280   0.018 136.242  0.00  0.00    +0.000 HD
BRANCH  43  47
ATOM     47  C   UNL     1      -3.367  -0.560 135.162  0.00  0.00    +0.000 C 
BRANCH  47  49
ATOM     48  N   UNL     1      -2.916  -1.899 132.276  0.00  0.00    +0.000 N 
ATOM     49  C   UNL     1      -1.989  -1.175 133.716  0.00  0.00    +0.000 C 
ATOM     50  O   UNL     1      -0.891  -1.779 133.954  0.00  0.00    +0.000 OA
ATOM     51  H   UNL     1      -2.272  -2.110 131.614  0.00  0.00    +0.000 HD
ATOM     52  H   UNL     1      -3.878  -1.542 131.967  0.00  0.00    +0.000 HD
ENDBRANCH  47  49
ENDBRANCH  43  47
ENDBRANCH  42  44
BRANCH  42  53
ATOM     53  C   UNL     1      -2.308   1.632 138.589  0.00  0.00    +0.000 C 
BRANCH  53  54
ATOM     54  C   UNL     1      -1.398   0.703 139.670  0.00  0.00    +0.000 C 
BRANCH  54  55
ATOM     55  C   UNL     1      -0.448  -0.091 138.942  0.00  0.00    +0.000 C 
BRANCH  55  56
ATOM     56  N   UNL     1      -1.140  -1.278 138.489  0.00  0.00    +0.000 NA
ATOM     57  C   UNL     1      -0.717  -1.789 137.383  0.00  0.00    +0.000 C 
ATOM     58  N   UNL     1       0.327  -1.249 136.673  0.00  0.00    +0.000 N 
ATOM     59  N   UNL     1      -1.320  -2.926 136.892  0.00  0.00    +0.000 N 
ATOM     60  H   UNL     1       0.811  -0.402 136.992  0.00  0.00    +0.000 HD
ATOM     61  H   UNL     1       0.690  -1.616 135.809  0.00  0.00    +0.000 HD
ATOM     62  H   UNL     1      -2.109  -3.374 137.382  0.00  0.00    +0.000 HD
ATOM     63  H   UNL     1      -1.059  -3.399 136.038  0.00  0.00    +0.000 HD
ENDBRANCH  55  56
ENDBRANCH  54  55
ENDBRANCH  53  54
ENDBRANCH  42  53
ENDBRANCH  38  42
ENDBRANCH  31  39
ENDBRANCH   1  36
BRANCH  10  64
ATOM     64  C   UNL     1      -7.568   5.473 130.310  0.00  0.00    +0.000 C 
BRANCH  64  65
ATOM     65  C   UNL     1      -8.974   5.688 130.311  0.00  0.00    +0.000 A 
ATOM     66  C   UNL     1      -9.266   6.999 130.091  0.00  0.00    +0.000 A 
ATOM     67  C   UNL     1     -10.558   7.421 130.171  0.00  0.00    +0.000 A 
ATOM     68  C   UNL     1     -11.554   6.503 130.423  0.00  0.00    +0.000 A 
ATOM     69  C   UNL     1     -11.245   5.173 130.632  0.00  0.00    +0.000 A 
ATOM     70  C   UNL     1      -9.943   4.749 130.563  0.00  0.00    +0.000 A 
BRANCH  68  71
ATOM     71  O   UNL     1     -12.872   6.820 130.486  0.00  0.00    +0.000 OA
ATOM     72  H   UNL     1     -13.077   7.553 131.087  0.00  0.00    +0.000 HD
ENDBRANCH  68  71
ENDBRANCH  64  65
ENDBRANCH  10  64
BRANCH  14  73
ATOM     73  C   UNL     1      -5.931   2.841 132.940  0.00  0.00    +0.000 C 
BRANCH  73  74
ATOM     74  C   UNL     1      -6.806   1.004 132.875  0.00  0.00    +0.000 A 
ATOM     75  C   UNL     1      -6.180   0.120 133.628  0.00  0.00    +0.000 A 
ATOM     76  C   UNL     1      -6.807  -0.972 133.419  0.00  0.00    +0.000 A 
ATOM     77  C   UNL     1      -7.916  -1.159 132.638  0.00  0.00    +0.000 A 
ATOM     78  C   UNL     1      -8.622  -0.249 131.943  0.00  0.00    +0.000 A 
ATOM     79  C   UNL     1      -8.425   0.943 132.299  0.00  0.00    +0.000 A 
ENDBRANCH  73  74
ENDBRANCH  14  73
BRANCH  18  80
ATOM     80  C   UNL     1      -4.452   5.826 135.132  0.00  0.00    +0.000 C 
BRANCH  80  81
ATOM     81  C   UNL     1      -3.619   6.963 134.626  0.00  0.00    +0.000 A 
ATOM     82  C   UNL     1      -3.053   7.364 133.316  0.00  0.00    +0.000 A 
ATOM     83  C   UNL     1      -2.505   8.565 133.167  0.00  0.00    +0.000 A 
ATOM     84  C   UNL     1      -2.488   9.335 134.283  0.00  0.00    +0.000 A 
ATOM     85  C   UNL     1      -3.019   8.921 135.493  0.00  0.00    +0.000 A 
ATOM     86  C   UNL     1      -3.604   7.745 135.666  0.00  0.00    +0.000 A 
BRANCH  84  87
ATOM     87  O   UNL     1      -1.933  10.562 134.301  0.00  0.00    +0.000 OA
ATOM     88  H   UNL     1      -1.764  10.927 133.420  0.00  0.00    +0.000 HD
ENDBRANCH  84  87
ENDBRANCH  80  81
ENDBRANCH  18  80
BRANCH  22  89
ATOM     89  C   UNL     1      -6.837   6.052 138.257  0.00  0.00    +0.000 C 
BRANCH  89  90
ATOM     90  C   UNL     1      -7.830   7.030 138.261  0.00  0.00    +0.000 C 
ATOM     91  N   UNL     1      -7.558   7.901 139.237  0.00  0.00    +0.000 N 
ATOM     92  O   UNL     1      -8.762   7.107 137.497  0.00  0.00    +0.000 OA
ATOM     93  H   UNL     1      -6.699   7.865 139.790  0.00  0.00    +0.000 HD
ATOM     94  H   UNL     1      -8.182   8.638 139.406  0.00  0.00    +0.000 HD
ENDBRANCH  89  90
ENDBRANCH  22  89
TORSDOF 20
ENDMDL
MODEL 6
REMARK VINA RESULT:      -8.7      3.205      7.314
REMARK  Name = CHEMBL2369842
REMARK  20 active torsions:
REMARK  status: ('A' for Active; 'I' for Inactive)
REMARK    1  A    between atoms: C_2  and  C_4
REMARK    2  A    between atoms: C_4  and  N_5
REMARK    3  A    between atoms: C_6  and  C_8
REMARK    4  A    between atoms: C_8  and  C_9
REMARK    5  A    between atoms: C_8  and  N_16
REMARK    6  A    between atoms: C_9  and  C_10
REMARK    7  A    between atoms: C_10  and  C_11
REMARK    8  A    between atoms: C_11  and  N_12
REMARK    9  A    between atoms: C_17  and  C_19
REMARK   10  A    between atoms: C_24  and  C_26
REMARK   11  A    between atoms: C_35  and  C_36
REMARK   12  A    between atoms: C_36  and  C_37
REMARK   13  A    between atoms: C_40  and  O_41
REMARK   14  A    between atoms: C_47  and  C_48
REMARK   15  A    between atoms: C_48  and  C_49
REMARK   16  A    between atoms: C_58  and  C_59
REMARK   17  A    between atoms: C_59  and  C_60
REMARK   18  A    between atoms: C_63  and  O_64
REMARK   19  A    between atoms: C_70  and  C_71
REMARK   20  A    between atoms: C_71  and  C_72
REMARK                            x       y       z     vdW  Elec       q    Type
REMARK                         _______ _______ _______ _____ _____    ______ ____
ROOT
ATOM      1  C   UNL     1      -4.184   1.410 131.351  0.00  0.00    +0.000 C 
ATOM      2  C   UNL     1      -2.711   0.120 132.999  0.00  0.00    +0.000 C 
ATOM      3  S   UNL     1      -1.859  -1.237 135.106  0.00  0.00    +0.000 S 
ATOM      4  S   UNL     1      -0.995  -2.220 137.582  0.00  0.00    +0.000 S 
ATOM      5  C   UNL     1      -2.346  -2.423 139.186  0.00  0.00    +0.000 C 
ATOM      6  C   UNL     1      -2.692  -2.070 140.649  0.00  0.00    +0.000 C 
ATOM      7  C   UNL     1      -4.144  -1.611 140.968  0.00  0.00    +0.000 C 
ATOM      8  O   UNL     1      -4.523  -1.493 142.137  0.00  0.00    +0.000 OA
ATOM      9  N   UNL     1      -4.989  -1.304 139.936  0.00  0.00    +0.000 N 
ATOM     10  C   UNL     1      -4.664  -1.368 138.541  0.00  0.00    +0.000 C 
ATOM     11  C   UNL     1      -3.446  -0.215 138.301  0.00  0.00    +0.000 C 
ATOM     12  O   UNL     1      -2.401  -0.008 138.951  0.00  0.00    +0.000 OA
ATOM     13  N   UNL     1      -3.324   0.327 137.132  0.00  0.00    +0.000 N 
ATOM     14  C   UNL     1      -4.418   0.390 136.357  0.00  0.00    +0.000 C 
ATOM     15  C   UNL     1      -4.790  -0.800 135.466  0.00  0.00    +0.000 C 
ATOM     16  O   UNL     1      -4.867  -1.971 135.830  0.00  0.00    +0.000 OA
ATOM     17  N   UNL     1      -5.198  -0.669 134.266  0.00  0.00    +0.000 N 
ATOM     18  C   UNL     1      -5.162   0.417 133.558  0.00  0.00    +0.000 C 
ATOM     19  C   UNL     1      -6.510   1.459 133.935  0.00  0.00    +0.000 C 
ATOM     20  O   UNL     1      -6.845   2.397 134.687  0.00  0.00    +0.000 OA
ATOM     21  N   UNL     1      -7.265   1.820 132.998  0.00  0.00    +0.000 N 
ATOM     22  C   UNL     1      -7.039   1.650 131.720  0.00  0.00    +0.000 C 
ATOM     23  C   UNL     1      -5.412   2.155 131.946  0.00  0.00    +0.000 C 
ATOM     24  O   UNL     1      -4.459   2.083 132.788  0.00  0.00    +0.000 OA
ATOM     25  N   UNL     1      -4.892   2.280 130.280  0.00  0.00    +0.000 N 
ATOM     26  H   UNL     1      -5.943  -1.023 140.130  0.00  0.00    +0.000 HD
ATOM     27  H   UNL     1      -2.745   1.155 137.091  0.00  0.00    +0.000 HD
ATOM     28  H   UNL     1      -5.345  -1.476 133.749  0.00  0.00    +0.000 HD
ATOM     29  H   UNL     1      -7.619   2.757 133.264  0.00  0.00    +0.000 HD
ATOM     30  H   UNL     1      -4.838   3.367 129.652  0.00  0.00    +0.000 HD
ENDROOT
BRANCH   1  36
ATOM     31  C   UNL     1      -6.954   5.769 130.394  0.00  0.00    +0.000 C 
ATOM     32  C   UNL     1      -7.825   6.402 131.644  0.00  0.00    +0.000 C 
ATOM     33  C   UNL     1      -9.076   6.863 131.033  0.00  0.00    +0.000 C 
ATOM     34  C   UNL     1      -8.947   5.384 129.788  0.00  0.00    +0.000 C 
ATOM     35  N   UNL     1      -7.218   4.206 129.762  0.00  0.00    +0.000 N 
ATOM     36  C   UNL     1      -5.981   2.566 130.358  0.00  0.00    +0.000 C 
ATOM     37  O   UNL     1      -7.035   2.525 129.290  0.00  0.00    +0.000 OA
BRANCH  31  39
ATOM     38  N   UNL     1      -4.726   5.190 129.726  0.00  0.00    +0.000 N 
ATOM     39  C   UNL     1      -5.745   5.146 130.621  0.00  0.00    +0.000 C 
ATOM     40  O   UNL     1      -5.817   4.441 131.583  0.00  0.00    +0.000 OA
ATOM     41  H   UNL     1      -4.941   5.640 128.851  0.00  0.00    +0.000 HD
BRANCH  38  42
ATOM     42  C   UNL     1      -3.488   4.499 129.777  0.00  0.00    +0.000 C 
BRANCH  42  44
ATOM     43  N   UNL     1      -2.584   4.420 131.977  0.00  0.00    +0.000 N 
ATOM     44  C   UNL     1      -2.612   4.967 130.784  0.00  0.00    +0.000 C 
ATOM     45  O   UNL     1      -2.111   6.004 130.485  0.00  0.00    +0.000 OA
ATOM     46  H   UNL     1      -2.466   3.425 132.117  0.00  0.00    +0.000 HD
BRANCH  43  47
ATOM     47  C   UNL     1      -1.778   4.672 132.927  0.00  0.00    +0.000 C 
BRANCH  47  49
ATOM     48  N   UNL     1       0.027   7.309 132.587  0.00  0.00    +0.000 N 
ATOM     49  C   UNL     1      -1.178   6.497 133.748  0.00  0.00    +0.000 C 
ATOM     50  O   UNL     1      -0.893   6.695 134.976  0.00  0.00    +0.000 OA
ATOM     51  H   UNL     1       0.232   8.157 132.955  0.00  0.00    +0.000 HD
ATOM     52  H   UNL     1      -0.037   7.207 131.522  0.00  0.00    +0.000 HD
ENDBRANCH  47  49
ENDBRANCH  43  47
ENDBRANCH  42  44
BRANCH  42  53
ATOM     53  C   UNL     1      -2.993   3.689 128.582  0.00  0.00    +0.000 C 
BRANCH  53  54
ATOM     54  C   UNL     1      -2.760   4.282 127.015  0.00  0.00    +0.000 C 
BRANCH  54  55
ATOM     55  C   UNL     1      -3.678   3.640 126.117  0.00  0.00    +0.000 C 
BRANCH  55  56
ATOM     56  N   UNL     1      -4.203   2.478 126.799  0.00  0.00    +0.000 NA
ATOM     57  C   UNL     1      -5.282   1.974 126.304  0.00  0.00    +0.000 C 
ATOM     58  N   UNL     1      -5.900   2.499 125.197  0.00  0.00    +0.000 N 
ATOM     59  N   UNL     1      -5.836   0.859 126.893  0.00  0.00    +0.000 N 
ATOM     60  H   UNL     1      -5.531   3.329 124.720  0.00  0.00    +0.000 HD
ATOM     61  H   UNL     1      -6.741   2.137 124.777  0.00  0.00    +0.000 HD
ATOM     62  H   UNL     1      -5.416   0.423 127.727  0.00  0.00    +0.000 HD
ATOM     63  H   UNL     1      -6.676   0.394 126.579  0.00  0.00    +0.000 HD
ENDBRANCH  55  56
ENDBRANCH  54  55
ENDBRANCH  53  54
ENDBRANCH  42  53
ENDBRANCH  38  42
ENDBRANCH  31  39
ENDBRANCH   1  36
BRANCH  10  64
ATOM     64  C   UNL     1      -5.909  -1.113 137.831  0.00  0.00    +0.000 C 
BRANCH  64  65
ATOM     65  C   UNL     1      -7.176  -1.456 138.378  0.00  0.00    +0.000 A 
ATOM     66  C   UNL     1      -7.725  -2.508 137.713  0.00  0.00    +0.000 A 
ATOM     67  C   UNL     1      -8.990  -2.908 138.017  0.00  0.00    +0.000 A 
ATOM     68  C   UNL     1      -9.675  -2.272 139.030  0.00  0.00    +0.000 A 
ATOM     69  C   UNL     1      -9.101  -1.213 139.706  0.00  0.00    +0.000 A 
ATOM     70  C   UNL     1      -7.832  -0.802 139.392  0.00  0.00    +0.000 A 
BRANCH  68  71
ATOM     71  O   UNL     1     -10.924  -2.620 139.430  0.00  0.00    +0.000 OA
ATOM     72  H   UNL     1     -10.963  -3.012 140.316  0.00  0.00    +0.000 HD
ENDBRANCH  68  71
ENDBRANCH  64  65
ENDBRANCH  10  64
BRANCH  14  73
ATOM     73  C   UNL     1      -3.961   1.618 135.535  0.00  0.00    +0.000 C 
BRANCH  73  74
ATOM     74  C   UNL     1      -4.183   3.468 136.357  0.00  0.00    +0.000 A 
ATOM     75  C   UNL     1      -4.073   4.433 135.465  0.00  0.00    +0.000 A 
ATOM     76  C   UNL     1      -4.165   5.506 136.148  0.00  0.00    +0.000 A 
ATOM     77  C   UNL     1      -4.391   5.619 137.495  0.00  0.00    +0.000 A 
ATOM     78  C   UNL     1      -4.602   4.646 138.400  0.00  0.00    +0.000 A 
ATOM     79  C   UNL     1      -4.934   3.538 137.902  0.00  0.00    +0.000 A 
ENDBRANCH  73  74
ENDBRANCH  14  73
BRANCH  18  80
ATOM     80  C   UNL     1      -5.204  -0.179 132.200  0.00  0.00    +0.000 C 
BRANCH  80  81
ATOM     81  C   UNL     1      -5.713  -1.546 131.858  0.00  0.00    +0.000 A 
ATOM     82  C   UNL     1      -7.046  -2.166 131.669  0.00  0.00    +0.000 A 
ATOM     83  C   UNL     1      -7.145  -3.393 131.170  0.00  0.00    +0.000 A 
ATOM     84  C   UNL     1      -5.965  -4.000 130.891  0.00  0.00    +0.000 A 
ATOM     85  C   UNL     1      -4.737  -3.391 131.090  0.00  0.00    +0.000 A 
ATOM     86  C   UNL     1      -4.605  -2.157 131.554  0.00  0.00    +0.000 A 
BRANCH  84  87
ATOM     87  O   UNL     1      -5.899  -5.258 130.415  0.00  0.00    +0.000 OA
ATOM     88  H   UNL     1      -6.021  -5.320 129.457  0.00  0.00    +0.000 HD
ENDBRANCH  84  87
ENDBRANCH  80  81
ENDBRANCH  18  80
BRANCH  22  89
ATOM     89  C   UNL     1      -8.105   2.113 130.847  0.00  0.00    +0.000 C 
BRANCH  89  90
ATOM     90  C   UNL     1      -9.432   1.829 131.166  0.00  0.00    +0.000 C 
ATOM     91  N   UNL     1     -10.214   2.698 130.520  0.00  0.00    +0.000 N 
ATOM     92  O   UNL     1      -9.821   0.932 131.875  0.00  0.00    +0.000 OA
ATOM     93  H   UNL     1      -9.854   3.371 129.841  0.00  0.00    +0.000 HD
ATOM     94  H   UNL     1     -11.184   2.664 130.664  0.00  0.00    +0.000 HD
ENDBRANCH  89  90
ENDBRANCH  22  89
TORSDOF 20
ENDMDL
MODEL 7
REMARK VINA RESULT:      -8.7      3.242     10.294
REMARK  Name = CHEMBL2369842
REMARK  20 active torsions:
REMARK  status: ('A' for Active; 'I' for Inactive)
REMARK    1  A    between atoms: C_2  and  C_4
REMARK    2  A    between atoms: C_4  and  N_5
REMARK    3  A    between atoms: C_6  and  C_8
REMARK    4  A    between atoms: C_8  and  C_9
REMARK    5  A    between atoms: C_8  and  N_16
REMARK    6  A    between atoms: C_9  and  C_10
REMARK    7  A    between atoms: C_10  and  C_11
REMARK    8  A    between atoms: C_11  and  N_12
REMARK    9  A    between atoms: C_17  and  C_19
REMARK   10  A    between atoms: C_24  and  C_26
REMARK   11  A    between atoms: C_35  and  C_36
REMARK   12  A    between atoms: C_36  and  C_37
REMARK   13  A    between atoms: C_40  and  O_41
REMARK   14  A    between atoms: C_47  and  C_48
REMARK   15  A    between atoms: C_48  and  C_49
REMARK   16  A    between atoms: C_58  and  C_59
REMARK   17  A    between atoms: C_59  and  C_60
REMARK   18  A    between atoms: C_63  and  O_64
REMARK   19  A    between atoms: C_70  and  C_71
REMARK   20  A    between atoms: C_71  and  C_72
REMARK                            x       y       z     vdW  Elec       q    Type
REMARK                         _______ _______ _______ _____ _____    ______ ____
ROOT
ATOM      1  C   UNL     1      -7.862  -2.312 132.984  0.00  0.00    +0.000 C 
ATOM      2  C   UNL     1      -9.093  -0.107 132.571  0.00  0.00    +0.000 C 
ATOM      3  S   UNL     1      -9.684   2.356 131.805  0.00  0.00    +0.000 S 
ATOM      4  S   UNL     1      -9.991   5.106 131.374  0.00  0.00    +0.000 S 
ATOM      5  C   UNL     1      -8.419   6.247 130.556  0.00  0.00    +0.000 C 
ATOM      6  C   UNL     1      -7.473   7.458 130.708  0.00  0.00    +0.000 C 
ATOM      7  C   UNL     1      -5.960   7.247 130.413  0.00  0.00    +0.000 C 
ATOM      8  O   UNL     1      -5.194   8.213 130.342  0.00  0.00    +0.000 OA
ATOM      9  N   UNL     1      -5.478   5.974 130.269  0.00  0.00    +0.000 N 
ATOM     10  C   UNL     1      -6.253   4.771 130.361  0.00  0.00    +0.000 C 
ATOM     11  C   UNL     1      -6.821   4.712 131.957  0.00  0.00    +0.000 C 
ATOM     12  O   UNL     1      -7.366   5.599 132.644  0.00  0.00    +0.000 OA
ATOM     13  N   UNL     1      -7.078   3.559 132.483  0.00  0.00    +0.000 N 
ATOM     14  C   UNL     1      -6.413   2.494 132.008  0.00  0.00    +0.000 C 
ATOM     15  C   UNL     1      -6.947   1.749 130.779  0.00  0.00    +0.000 C 
ATOM     16  O   UNL     1      -7.286   2.267 129.718  0.00  0.00    +0.000 OA
ATOM     17  N   UNL     1      -6.962   0.478 130.690  0.00  0.00    +0.000 N 
ATOM     18  C   UNL     1      -6.746  -0.361 131.656  0.00  0.00    +0.000 C 
ATOM     19  C   UNL     1      -5.036  -0.585 131.923  0.00  0.00    +0.000 C 
ATOM     20  O   UNL     1      -4.080  -0.138 132.588  0.00  0.00    +0.000 OA
ATOM     21  N   UNL     1      -4.572  -1.752 131.870  0.00  0.00    +0.000 N 
ATOM     22  C   UNL     1      -5.273  -2.856 131.822  0.00  0.00    +0.000 C 
ATOM     23  C   UNL     1      -6.309  -2.246 133.049  0.00  0.00    +0.000 C 
ATOM     24  O   UNL     1      -6.839  -1.159 133.450  0.00  0.00    +0.000 OA
ATOM     25  N   UNL     1      -7.253  -3.678 133.399  0.00  0.00    +0.000 N 
ATOM     26  H   UNL     1      -4.499   5.824 130.058  0.00  0.00    +0.000 HD
ATOM     27  H   UNL     1      -7.196   3.552 133.487  0.00  0.00    +0.000 HD
ATOM     28  H   UNL     1      -7.381   0.085 129.910  0.00  0.00    +0.000 HD
ATOM     29  H   UNL     1      -3.767  -1.766 132.523  0.00  0.00    +0.000 HD
ATOM     30  H   UNL     1      -7.023  -4.436 134.374  0.00  0.00    +0.000 HD
ENDROOT
BRANCH   1  36
ATOM     31  C   UNL     1      -3.915  -4.750 135.447  0.00  0.00    +0.000 C 
ATOM     32  C   UNL     1      -2.481  -3.943 135.564  0.00  0.00    +0.000 C 
ATOM     33  C   UNL     1      -1.455  -4.970 135.362  0.00  0.00    +0.000 C 
ATOM     34  C   UNL     1      -2.669  -5.864 134.146  0.00  0.00    +0.000 C 
ATOM     35  N   UNL     1      -4.636  -5.174 133.960  0.00  0.00    +0.000 N 
ATOM     36  C   UNL     1      -6.200  -3.977 133.126  0.00  0.00    +0.000 C 
ATOM     37  O   UNL     1      -5.723  -5.294 132.586  0.00  0.00    +0.000 OA
BRANCH  31  39
ATOM     38  N   UNL     1      -6.243  -4.621 136.001  0.00  0.00    +0.000 N 
ATOM     39  C   UNL     1      -5.114  -4.070 135.491  0.00  0.00    +0.000 C 
ATOM     40  O   UNL     1      -5.037  -3.056 134.861  0.00  0.00    +0.000 OA
ATOM     41  H   UNL     1      -6.167  -5.588 136.270  0.00  0.00    +0.000 HD
BRANCH  38  42
ATOM     42  C   UNL     1      -7.557  -4.085 135.994  0.00  0.00    +0.000 C 
BRANCH  42  44
ATOM     43  N   UNL     1      -6.817  -2.603 137.703  0.00  0.00    +0.000 N 
ATOM     44  C   UNL     1      -7.707  -2.928 136.794  0.00  0.00    +0.000 C 
ATOM     45  O   UNL     1      -8.795  -2.458 136.690  0.00  0.00    +0.000 OA
ATOM     46  H   UNL     1      -5.830  -2.522 137.494  0.00  0.00    +0.000 HD
BRANCH  43  47
ATOM     47  C   UNL     1      -6.777  -1.544 138.405  0.00  0.00    +0.000 C 
BRANCH  47  49
ATOM     48  N   UNL     1      -7.558  -0.954 141.466  0.00  0.00    +0.000 N 
ATOM     49  C   UNL     1      -8.182  -0.740 139.727  0.00  0.00    +0.000 C 
ATOM     50  O   UNL     1      -9.447  -0.881 139.633  0.00  0.00    +0.000 OA
ATOM     51  H   UNL     1      -8.183  -0.527 142.035  0.00  0.00    +0.000 HD
ATOM     52  H   UNL     1      -6.517  -0.913 141.717  0.00  0.00    +0.000 HD
ENDBRANCH  47  49
ENDBRANCH  43  47
ENDBRANCH  42  44
BRANCH  42  53
ATOM     53  C   UNL     1      -8.749  -4.935 135.566  0.00  0.00    +0.000 C 
BRANCH  53  54
ATOM     54  C   UNL     1      -9.287  -6.342 136.338  0.00  0.00    +0.000 C 
BRANCH  54  55
ATOM     55  C   UNL     1      -9.825  -6.007 137.627  0.00  0.00    +0.000 C 
BRANCH  55  56
ATOM     56  N   UNL     1     -10.990  -5.180 137.403  0.00  0.00    +0.000 NA
ATOM     57  C   UNL     1     -11.109  -4.154 138.175  0.00  0.00    +0.000 C 
ATOM     58  N   UNL     1     -10.191  -3.856 139.151  0.00  0.00    +0.000 N 
ATOM     59  N   UNL     1     -12.189  -3.313 138.016  0.00  0.00    +0.000 N 
ATOM     60  H   UNL     1      -9.370  -4.449 139.314  0.00  0.00    +0.000 HD
ATOM     61  H   UNL     1     -10.244  -3.066 139.773  0.00  0.00    +0.000 HD
ATOM     62  H   UNL     1     -12.910  -3.488 137.301  0.00  0.00    +0.000 HD
ATOM     63  H   UNL     1     -12.367  -2.487 138.570  0.00  0.00    +0.000 HD
ENDBRANCH  55  56
ENDBRANCH  54  55
ENDBRANCH  53  54
ENDBRANCH  42  53
ENDBRANCH  38  42
ENDBRANCH  31  39
ENDBRANCH   1  36
BRANCH  10  64
ATOM     64  C   UNL     1      -5.355   3.691 129.981  0.00  0.00    +0.000 C 
BRANCH  64  65
ATOM     65  C   UNL     1      -4.360   3.851 128.978  0.00  0.00    +0.000 A 
ATOM     66  C   UNL     1      -4.625   3.065 127.899  0.00  0.00    +0.000 A 
ATOM     67  C   UNL     1      -3.722   2.994 126.883  0.00  0.00    +0.000 A 
ATOM     68  C   UNL     1      -2.578   3.759 126.941  0.00  0.00    +0.000 A 
ATOM     69  C   UNL     1      -2.327   4.562 128.036  0.00  0.00    +0.000 A 
ATOM     70  C   UNL     1      -3.230   4.625 129.066  0.00  0.00    +0.000 A 
BRANCH  68  71
ATOM     71  O   UNL     1      -1.637   3.784 125.963  0.00  0.00    +0.000 OA
ATOM     72  H   UNL     1      -1.088   2.986 125.918  0.00  0.00    +0.000 HD
ENDBRANCH  68  71
ENDBRANCH  64  65
ENDBRANCH  10  64
BRANCH  14  73
ATOM     73  C   UNL     1      -6.518   1.649 133.299  0.00  0.00    +0.000 C 
BRANCH  73  74
ATOM     74  C   UNL     1      -5.283   2.102 134.853  0.00  0.00    +0.000 A 
ATOM     75  C   UNL     1      -5.159   1.104 135.706  0.00  0.00    +0.000 A 
ATOM     76  C   UNL     1      -4.422   1.573 136.636  0.00  0.00    +0.000 A 
ATOM     77  C   UNL     1      -3.844   2.813 136.694  0.00  0.00    +0.000 A 
ATOM     78  C   UNL     1      -3.883   3.806 135.786  0.00  0.00    +0.000 A 
ATOM     79  C   UNL     1      -4.226   3.439 134.631  0.00  0.00    +0.000 A 
ENDBRANCH  73  74
ENDBRANCH  14  73
BRANCH  18  80
ATOM     80  C   UNL     1      -7.445  -1.549 131.105  0.00  0.00    +0.000 C 
BRANCH  80  81
ATOM     81  C   UNL     1      -7.747  -1.796 129.658  0.00  0.00    +0.000 A 
ATOM     82  C   UNL     1      -7.492  -1.083 128.384  0.00  0.00    +0.000 A 
ATOM     83  C   UNL     1      -7.732  -1.684 127.225  0.00  0.00    +0.000 A 
ATOM     84  C   UNL     1      -8.235  -2.940 127.319  0.00  0.00    +0.000 A 
ATOM     85  C   UNL     1      -8.468  -3.570 128.530  0.00  0.00    +0.000 A 
ATOM     86  C   UNL     1      -8.208  -3.011 129.701  0.00  0.00    +0.000 A 
BRANCH  84  87
ATOM     87  O   UNL     1      -8.564  -3.665 126.233  0.00  0.00    +0.000 OA
ATOM     88  H   UNL     1      -8.761  -3.129 125.451  0.00  0.00    +0.000 HD
ENDBRANCH  84  87
ENDBRANCH  80  81
ENDBRANCH  18  80
BRANCH  22  89
ATOM     89  C   UNL     1      -4.485  -4.073 131.710  0.00  0.00    +0.000 C 
BRANCH  89  90
ATOM     90  C   UNL     1      -3.802  -4.346 130.526  0.00  0.00    +0.000 C 
ATOM     91  N   UNL     1      -4.590  -5.096 129.750  0.00  0.00    +0.000 N 
ATOM     92  O   UNL     1      -2.701  -3.949 130.227  0.00  0.00    +0.000 OA
ATOM     93  H   UNL     1      -5.558  -5.317 129.991  0.00  0.00    +0.000 HD
ATOM     94  H   UNL     1      -4.247  -5.413 128.888  0.00  0.00    +0.000 HD
ENDBRANCH  89  90
ENDBRANCH  22  89
TORSDOF 20
ENDMDL
MODEL 8
REMARK VINA RESULT:      -8.7      2.181      3.015
REMARK  Name = CHEMBL2369842
REMARK  20 active torsions:
REMARK  status: ('A' for Active; 'I' for Inactive)
REMARK    1  A    between atoms: C_2  and  C_4
REMARK    2  A    between atoms: C_4  and  N_5
REMARK    3  A    between atoms: C_6  and  C_8
REMARK    4  A    between atoms: C_8  and  C_9
REMARK    5  A    between atoms: C_8  and  N_16
REMARK    6  A    between atoms: C_9  and  C_10
REMARK    7  A    between atoms: C_10  and  C_11
REMARK    8  A    between atoms: C_11  and  N_12
REMARK    9  A    between atoms: C_17  and  C_19
REMARK   10  A    between atoms: C_24  and  C_26
REMARK   11  A    between atoms: C_35  and  C_36
REMARK   12  A    between atoms: C_36  and  C_37
REMARK   13  A    between atoms: C_40  and  O_41
REMARK   14  A    between atoms: C_47  and  C_48
REMARK   15  A    between atoms: C_48  and  C_49
REMARK   16  A    between atoms: C_58  and  C_59
REMARK   17  A    between atoms: C_59  and  C_60
REMARK   18  A    between atoms: C_63  and  O_64
REMARK   19  A    between atoms: C_70  and  C_71
REMARK   20  A    between atoms: C_71  and  C_72
REMARK                            x       y       z     vdW  Elec       q    Type
REMARK                         _______ _______ _______ _____ _____    ______ ____
ROOT
ATOM      1  C   UNL     1      -7.104   2.938 132.256  0.00  0.00    +0.000 C 
ATOM      2  C   UNL     1      -7.763   0.591 133.036  0.00  0.00    +0.000 C 
ATOM      3  S   UNL     1      -7.683  -1.861 134.028  0.00  0.00    +0.000 S 
ATOM      4  S   UNL     1      -7.347  -4.573 134.643  0.00  0.00    +0.000 S 
ATOM      5  C   UNL     1      -5.445  -5.334 135.137  0.00  0.00    +0.000 C 
ATOM      6  C   UNL     1      -4.334  -6.363 134.830  0.00  0.00    +0.000 C 
ATOM      7  C   UNL     1      -2.864  -5.856 134.766  0.00  0.00    +0.000 C 
ATOM      8  O   UNL     1      -1.927  -6.658 134.707  0.00  0.00    +0.000 OA
ATOM      9  N   UNL     1      -2.622  -4.510 134.739  0.00  0.00    +0.000 N 
ATOM     10  C   UNL     1      -3.619  -3.480 134.769  0.00  0.00    +0.000 C 
ATOM     11  C   UNL     1      -4.513  -3.665 133.342  0.00  0.00    +0.000 C 
ATOM     12  O   UNL     1      -5.008  -4.693 132.836  0.00  0.00    +0.000 OA
ATOM     13  N   UNL     1      -5.098  -2.628 132.835  0.00  0.00    +0.000 N 
ATOM     14  C   UNL     1      -4.568  -1.422 133.099  0.00  0.00    +0.000 C 
ATOM     15  C   UNL     1      -4.964  -0.681 134.381  0.00  0.00    +0.000 C 
ATOM     16  O   UNL     1      -4.961  -1.156 135.513  0.00  0.00    +0.000 OA
ATOM     17  N   UNL     1      -5.209   0.569 134.412  0.00  0.00    +0.000 N 
ATOM     18  C   UNL     1      -5.371   1.345 133.386  0.00  0.00    +0.000 C 
ATOM     19  C   UNL     1      -3.835   1.850 132.730  0.00  0.00    +0.000 C 
ATOM     20  O   UNL     1      -2.974   1.526 131.886  0.00  0.00    +0.000 OA
ATOM     21  N   UNL     1      -3.608   3.081 132.623  0.00  0.00    +0.000 N 
ATOM     22  C   UNL     1      -4.485   4.040 132.777  0.00  0.00    +0.000 C 
ATOM     23  C   UNL     1      -5.619   3.147 131.845  0.00  0.00    +0.000 C 
ATOM     24  O   UNL     1      -5.998   1.951 131.624  0.00  0.00    +0.000 OA
ATOM     25  N   UNL     1      -6.877   4.348 131.652  0.00  0.00    +0.000 N 
ATOM     26  H   UNL     1      -1.669  -4.168 134.717  0.00  0.00    +0.000 HD
ATOM     27  H   UNL     1      -5.426  -2.731 131.884  0.00  0.00    +0.000 HD
ATOM     28  H   UNL     1      -5.520   0.947 135.249  0.00  0.00    +0.000 HD
ATOM     29  H   UNL     1      -2.979   3.183 131.805  0.00  0.00    +0.000 HD
ATOM     30  H   UNL     1      -7.013   5.047 130.617  0.00  0.00    +0.000 HD
ENDROOT
BRANCH   1  36
ATOM     31  C   UNL     1      -4.464   5.896 128.811  0.00  0.00    +0.000 C 
ATOM     32  C   UNL     1      -2.992   5.346 128.311  0.00  0.00    +0.000 C 
ATOM     33  C   UNL     1      -2.152   6.544 128.226  0.00  0.00    +0.000 C 
ATOM     34  C   UNL     1      -3.140   7.274 129.725  0.00  0.00    +0.000 C 
ATOM     35  N   UNL     1      -4.827   6.263 130.438  0.00  0.00    +0.000 N 
ATOM     36  C   UNL     1      -5.869   4.856 131.666  0.00  0.00    +0.000 C 
ATOM     37  O   UNL     1      -5.512   6.262 132.054  0.00  0.00    +0.000 OA
BRANCH  31  39
ATOM     38  N   UNL     1      -5.538   3.767 128.571  0.00  0.00    +0.000 N 
ATOM     39  C   UNL     1      -5.488   5.017 129.096  0.00  0.00    +0.000 C 
ATOM     40  O   UNL     1      -6.365   5.578 129.682  0.00  0.00    +0.000 OA
ATOM     41  H   UNL     1      -4.821   3.554 127.896  0.00  0.00    +0.000 HD
BRANCH  38  42
ATOM     42  C   UNL     1      -6.584   2.815 128.680  0.00  0.00    +0.000 C 
BRANCH  42  44
ATOM     43  N   UNL     1      -7.070   0.882 127.380  0.00  0.00    +0.000 N 
ATOM     44  C   UNL     1      -6.251   1.539 128.168  0.00  0.00    +0.000 C 
ATOM     45  O   UNL     1      -5.295   1.083 128.709  0.00  0.00    +0.000 OA
ATOM     46  H   UNL     1      -7.462   1.290 126.540  0.00  0.00    +0.000 HD
BRANCH  43  47
ATOM     47  C   UNL     1      -6.850  -0.211 126.771  0.00  0.00    +0.000 C 
BRANCH  47  49
ATOM     48  N   UNL     1      -7.311  -2.336 124.404  0.00  0.00    +0.000 N 
ATOM     49  C   UNL     1      -8.173  -1.539 125.846  0.00  0.00    +0.000 C 
ATOM     50  O   UNL     1      -9.408  -1.311 125.621  0.00  0.00    +0.000 OA
ATOM     51  H   UNL     1      -7.912  -2.974 124.045  0.00  0.00    +0.000 HD
ATOM     52  H   UNL     1      -6.262  -2.555 124.405  0.00  0.00    +0.000 HD
ENDBRANCH  47  49
ENDBRANCH  43  47
ENDBRANCH  42  44
BRANCH  42  53
ATOM     53  C   UNL     1      -8.030   3.258 128.881  0.00  0.00    +0.000 C 
BRANCH  53  54
ATOM     54  C   UNL     1      -9.226   2.385 129.701  0.00  0.00    +0.000 C 
BRANCH  54  55
ATOM     55  C   UNL     1     -10.138   3.296 130.333  0.00  0.00    +0.000 C 
BRANCH  55  56
ATOM     56  N   UNL     1      -9.904   4.603 129.758  0.00  0.00    +0.000 NA
ATOM     57  C   UNL     1     -10.540   5.581 130.309  0.00  0.00    +0.000 C 
ATOM     58  N   UNL     1     -11.385   5.404 131.376  0.00  0.00    +0.000 N 
ATOM     59  N   UNL     1     -10.361   6.858 129.823  0.00  0.00    +0.000 N 
ATOM     60  H   UNL     1     -11.556   4.475 131.776  0.00  0.00    +0.000 HD
ATOM     61  H   UNL     1     -11.898   6.138 131.836  0.00  0.00    +0.000 HD
ATOM     62  H   UNL     1      -9.740   7.050 129.024  0.00  0.00    +0.000 HD
ATOM     63  H   UNL     1     -10.812   7.686 130.187  0.00  0.00    +0.000 HD
ENDBRANCH  55  56
ENDBRANCH  54  55
ENDBRANCH  53  54
ENDBRANCH  42  53
ENDBRANCH  38  42
ENDBRANCH  31  39
ENDBRANCH   1  36
BRANCH  10  64
ATOM     64  C   UNL     1      -2.890  -2.225 134.887  0.00  0.00    +0.000 C 
BRANCH  64  65
ATOM     65  C   UNL     1      -1.753  -2.086 135.731  0.00  0.00    +0.000 A 
ATOM     66  C   UNL     1      -2.123  -2.026 137.039  0.00  0.00    +0.000 A 
ATOM     67  C   UNL     1      -1.183  -1.777 137.991  0.00  0.00    +0.000 A 
ATOM     68  C   UNL     1       0.137  -1.641 137.618  0.00  0.00    +0.000 A 
ATOM     69  C   UNL     1       0.500  -1.717 136.288  0.00  0.00    +0.000 A 
ATOM     70  C   UNL     1      -0.448  -1.956 135.327  0.00  0.00    +0.000 A 
BRANCH  68  71
ATOM     71  O   UNL     1       1.150  -1.427 138.495  0.00  0.00    +0.000 OA
ATOM     72  H   UNL     1       2.001  -1.802 138.219  0.00  0.00    +0.000 HD
ENDBRANCH  68  71
ENDBRANCH  64  65
ENDBRANCH  10  64
BRANCH  14  73
ATOM     73  C   UNL     1      -5.109  -0.728 131.827  0.00  0.00    +0.000 C 
BRANCH  73  74
ATOM     74  C   UNL     1      -6.318  -1.794 130.584  0.00  0.00    +0.000 A 
ATOM     75  C   UNL     1      -7.456  -1.177 130.335  0.00  0.00    +0.000 A 
ATOM     76  C   UNL     1      -8.110  -1.999 129.611  0.00  0.00    +0.000 A 
ATOM     77  C   UNL     1      -7.690  -3.219 129.151  0.00  0.00    +0.000 A 
ATOM     78  C   UNL     1      -6.497  -3.818 129.316  0.00  0.00    +0.000 A 
ATOM     79  C   UNL     1      -5.570  -3.040 129.666  0.00  0.00    +0.000 A 
ENDBRANCH  73  74
ENDBRANCH  14  73
BRANCH  18  80
ATOM     80  C   UNL     1      -6.156   2.430 134.025  0.00  0.00    +0.000 C 
BRANCH  80  81
ATOM     81  C   UNL     1      -5.831   3.096 135.328  0.00  0.00    +0.000 A 
ATOM     82  C   UNL     1      -4.830   2.896 136.402  0.00  0.00    +0.000 A 
ATOM     83  C   UNL     1      -4.689   3.806 137.359  0.00  0.00    +0.000 A 
ATOM     84  C   UNL     1      -5.531   4.866 137.277  0.00  0.00    +0.000 A 
ATOM     85  C   UNL     1      -6.461   5.013 136.261  0.00  0.00    +0.000 A 
ATOM     86  C   UNL     1      -6.603   4.142 135.274  0.00  0.00    +0.000 A 
BRANCH  84  87
ATOM     87  O   UNL     1      -5.536   5.852 138.194  0.00  0.00    +0.000 OA
ATOM     88  H   UNL     1      -6.242   6.502 138.063  0.00  0.00    +0.000 HD
ENDBRANCH  84  87
ENDBRANCH  80  81
ENDBRANCH  18  80
BRANCH  22  89
ATOM     89  C   UNL     1      -3.944   5.385 132.653  0.00  0.00    +0.000 C 
BRANCH  89  90
ATOM     90  C   UNL     1      -2.917   5.797 133.500  0.00  0.00    +0.000 C 
ATOM     91  N   UNL     1      -3.449   6.541 134.474  0.00  0.00    +0.000 N 
ATOM     92  O   UNL     1      -1.749   5.508 133.401  0.00  0.00    +0.000 OA
ATOM     93  H   UNL     1      -4.457   6.670 134.587  0.00  0.00    +0.000 HD
ATOM     94  H   UNL     1      -2.856   6.948 135.141  0.00  0.00    +0.000 HD
ENDBRANCH  89  90
ENDBRANCH  22  89
TORSDOF 20
ENDMDL
MODEL 9
REMARK VINA RESULT:      -8.6      3.095      7.649
REMARK  Name = CHEMBL2369842
REMARK  20 active torsions:
REMARK  status: ('A' for Active; 'I' for Inactive)
REMARK    1  A    between atoms: C_2  and  C_4
REMARK    2  A    between atoms: C_4  and  N_5
REMARK    3  A    between atoms: C_6  and  C_8
REMARK    4  A    between atoms: C_8  and  C_9
REMARK    5  A    between atoms: C_8  and  N_16
REMARK    6  A    between atoms: C_9  and  C_10
REMARK    7  A    between atoms: C_10  and  C_11
REMARK    8  A    between atoms: C_11  and  N_12
REMARK    9  A    between atoms: C_17  and  C_19
REMARK   10  A    between atoms: C_24  and  C_26
REMARK   11  A    between atoms: C_35  and  C_36
REMARK   12  A    between atoms: C_36  and  C_37
REMARK   13  A    between atoms: C_40  and  O_41
REMARK   14  A    between atoms: C_47  and  C_48
REMARK   15  A    between atoms: C_48  and  C_49
REMARK   16  A    between atoms: C_58  and  C_59
REMARK   17  A    between atoms: C_59  and  C_60
REMARK   18  A    between atoms: C_63  and  O_64
REMARK   19  A    between atoms: C_70  and  C_71
REMARK   20  A    between atoms: C_71  and  C_72
REMARK                            x       y       z     vdW  Elec       q    Type
REMARK                         _______ _______ _______ _____ _____    ______ ____
ROOT
ATOM      1  C   UNL     1      -3.594   2.110 131.800  0.00  0.00    +0.000 C 
ATOM      2  C   UNL     1      -2.217   0.574 133.315  0.00  0.00    +0.000 C 
ATOM      3  S   UNL     1      -1.509  -1.264 135.082  0.00  0.00    +0.000 S 
ATOM      4  S   UNL     1      -0.937  -2.875 137.301  0.00  0.00    +0.000 S 
ATOM      5  C   UNL     1      -2.492  -3.787 138.394  0.00  0.00    +0.000 C 
ATOM      6  C   UNL     1      -3.175  -3.989 139.764  0.00  0.00    +0.000 C 
ATOM      7  C   UNL     1      -4.726  -3.873 139.833  0.00  0.00    +0.000 C 
ATOM      8  O   UNL     1      -5.334  -4.203 140.855  0.00  0.00    +0.000 OA
ATOM      9  N   UNL     1      -5.406  -3.368 138.758  0.00  0.00    +0.000 N 
ATOM     10  C   UNL     1      -4.817  -2.921 137.530  0.00  0.00    +0.000 C 
ATOM     11  C   UNL     1      -3.851  -1.591 137.941  0.00  0.00    +0.000 C 
ATOM     12  O   UNL     1      -3.017  -1.463 138.860  0.00  0.00    +0.000 OA
ATOM     13  N   UNL     1      -3.629  -0.683 137.047  0.00  0.00    +0.000 N 
ATOM     14  C   UNL     1      -4.545  -0.525 136.078  0.00  0.00    +0.000 C 
ATOM     15  C   UNL     1      -4.479  -1.396 134.819  0.00  0.00    +0.000 C 
ATOM     16  O   UNL     1      -4.371  -2.620 134.798  0.00  0.00    +0.000 OA
ATOM     17  N   UNL     1      -4.672  -0.937 133.646  0.00  0.00    +0.000 N 
ATOM     18  C   UNL     1      -4.736   0.315 133.313  0.00  0.00    +0.000 C 
ATOM     19  C   UNL     1      -6.322   0.970 133.631  0.00  0.00    +0.000 C 
ATOM     20  O   UNL     1      -6.985   1.550 134.514  0.00  0.00    +0.000 OA
ATOM     21  N   UNL     1      -6.946   1.508 132.682  0.00  0.00    +0.000 N 
ATOM     22  C   UNL     1      -6.452   1.803 131.506  0.00  0.00    +0.000 C 
ATOM     23  C   UNL     1      -5.043   2.433 132.262  0.00  0.00    +0.000 C 
ATOM     24  O   UNL     1      -4.273   2.225 133.256  0.00  0.00    +0.000 OA
ATOM     25  N   UNL     1      -4.256   3.174 130.886  0.00  0.00    +0.000 N 
ATOM     26  H   UNL     1      -6.417  -3.306 138.783  0.00  0.00    +0.000 HD
ATOM     27  H   UNL     1      -3.244   0.186 137.391  0.00  0.00    +0.000 HD
ATOM     28  H   UNL     1      -4.543  -1.540 132.898  0.00  0.00    +0.000 HD
ATOM     29  H   UNL     1      -7.536   2.244 133.112  0.00  0.00    +0.000 HD
ATOM     30  H   UNL     1      -4.319   4.403 130.632  0.00  0.00    +0.000 HD
ENDROOT
BRANCH   1  36
ATOM     31  C   UNL     1      -7.139   5.980 131.602  0.00  0.00    +0.000 C 
ATOM     32  C   UNL     1      -8.392   5.916 132.674  0.00  0.00    +0.000 C 
ATOM     33  C   UNL     1      -9.559   6.372 131.914  0.00  0.00    +0.000 C 
ATOM     34  C   UNL     1      -8.785   5.552 130.339  0.00  0.00    +0.000 C 
ATOM     35  N   UNL     1      -6.843   4.777 130.429  0.00  0.00    +0.000 N 
ATOM     36  C   UNL     1      -5.376   3.258 130.772  0.00  0.00    +0.000 C 
ATOM     37  O   UNL     1      -6.129   3.476 129.491  0.00  0.00    +0.000 OA
BRANCH  31  39
ATOM     38  N   UNL     1      -4.750   6.052 131.436  0.00  0.00    +0.000 N 
ATOM     39  C   UNL     1      -5.887   5.523 131.952  0.00  0.00    +0.000 C 
ATOM     40  O   UNL     1      -5.977   4.516 132.591  0.00  0.00    +0.000 OA
ATOM     41  H   UNL     1      -4.885   6.746 130.718  0.00  0.00    +0.000 HD
BRANCH  38  42
ATOM     42  C   UNL     1      -3.416   5.600 131.613  0.00  0.00    +0.000 C 
BRANCH  42  44
ATOM     43  N   UNL     1      -3.559   6.372 133.859  0.00  0.00    +0.000 N 
ATOM     44  C   UNL     1      -2.982   5.610 132.959  0.00  0.00    +0.000 C 
ATOM     45  O   UNL     1      -1.945   5.045 133.092  0.00  0.00    +0.000 OA
ATOM     46  H   UNL     1      -4.559   6.368 134.017  0.00  0.00    +0.000 HD
BRANCH  43  47
ATOM     47  C   UNL     1      -3.340   6.395 135.110  0.00  0.00    +0.000 C 
BRANCH  47  49
ATOM     48  N   UNL     1      -0.152   6.800 135.132  0.00  0.00    +0.000 N 
ATOM     49  C   UNL     1      -1.667   7.044 136.182  0.00  0.00    +0.000 C 
ATOM     50  O   UNL     1      -1.453   6.821 137.421  0.00  0.00    +0.000 OA
ATOM     51  H   UNL     1       0.578   7.159 135.618  0.00  0.00    +0.000 HD
ATOM     52  H   UNL     1      -0.164   6.901 134.065  0.00  0.00    +0.000 HD
ENDBRANCH  47  49
ENDBRANCH  43  47
ENDBRANCH  42  44
BRANCH  42  53
ATOM     53  C   UNL     1      -2.435   5.573 130.444  0.00  0.00    +0.000 C 
BRANCH  53  54
ATOM     54  C   UNL     1      -2.722   6.205 128.900  0.00  0.00    +0.000 C 
BRANCH  54  55
ATOM     55  C   UNL     1      -2.360   5.232 127.908  0.00  0.00    +0.000 C 
BRANCH  55  56
ATOM     56  N   UNL     1      -3.431   4.261 127.849  0.00  0.00    +0.000 NA
ATOM     57  C   UNL     1      -3.103   3.086 127.429  0.00  0.00    +0.000 C 
ATOM     58  N   UNL     1      -1.819   2.766 127.062  0.00  0.00    +0.000 N 
ATOM     59  N   UNL     1      -4.067   2.105 127.355  0.00  0.00    +0.000 N 
ATOM     60  H   UNL     1      -1.063   3.459 127.096  0.00  0.00    +0.000 HD
ATOM     61  H   UNL     1      -1.520   1.863 126.731  0.00  0.00    +0.000 HD
ATOM     62  H   UNL     1      -5.046   2.289 127.616  0.00  0.00    +0.000 HD
ATOM     63  H   UNL     1      -3.907   1.158 127.041  0.00  0.00    +0.000 HD
ENDBRANCH  55  56
ENDBRANCH  54  55
ENDBRANCH  53  54
ENDBRANCH  42  53
ENDBRANCH  38  42
ENDBRANCH  31  39
ENDBRANCH   1  36
BRANCH  10  64
ATOM     64  C   UNL     1      -5.931  -2.628 136.639  0.00  0.00    +0.000 C 
BRANCH  64  65
ATOM     65  C   UNL     1      -7.104  -3.433 136.603  0.00  0.00    +0.000 A 
ATOM     66  C   UNL     1      -6.891  -4.570 135.887  0.00  0.00    +0.000 A 
ATOM     67  C   UNL     1      -7.932  -5.412 135.641  0.00  0.00    +0.000 A 
ATOM     68  C   UNL     1      -9.173  -5.124 136.168  0.00  0.00    +0.000 A 
ATOM     69  C   UNL     1      -9.371  -3.973 136.904  0.00  0.00    +0.000 A 
ATOM     70  C   UNL     1      -8.327  -3.118 137.141  0.00  0.00    +0.000 A 
BRANCH  68  71
ATOM     71  O   UNL     1     -10.262  -5.919 136.009  0.00  0.00    +0.000 OA
ATOM     72  H   UNL     1     -10.530  -6.047 135.086  0.00  0.00    +0.000 HD
ENDBRANCH  68  71
ENDBRANCH  64  65
ENDBRANCH  10  64
BRANCH  14  73
ATOM     73  C   UNL     1      -4.215   0.957 135.786  0.00  0.00    +0.000 C 
BRANCH  73  74
ATOM     74  C   UNL     1      -4.716   2.352 137.181  0.00  0.00    +0.000 A 
ATOM     75  C   UNL     1      -5.098   3.492 136.640  0.00  0.00    +0.000 A 
ATOM     76  C   UNL     1      -5.303   4.262 137.637  0.00  0.00    +0.000 A 
ATOM     77  C   UNL     1      -5.206   3.946 138.966  0.00  0.00    +0.000 A 
ATOM     78  C   UNL     1      -4.912   2.761 139.533  0.00  0.00    +0.000 A 
ATOM     79  C   UNL     1      -5.045   1.772 138.765  0.00  0.00    +0.000 A 
ENDBRANCH  73  74
ENDBRANCH  14  73
BRANCH  18  80
ATOM     80  C   UNL     1      -4.392   0.201 131.874  0.00  0.00    +0.000 C 
BRANCH  80  81
ATOM     81  C   UNL     1      -4.503  -1.040 131.042  0.00  0.00    +0.000 A 
ATOM     82  C   UNL     1      -5.609  -1.805 130.419  0.00  0.00    +0.000 A 
ATOM     83  C   UNL     1      -5.342  -2.784 129.563  0.00  0.00    +0.000 A 
ATOM     84  C   UNL     1      -4.024  -3.021 129.350  0.00  0.00    +0.000 A 
ATOM     85  C   UNL     1      -3.018  -2.290 129.959  0.00  0.00    +0.000 A 
ATOM     86  C   UNL     1      -3.251  -1.286 130.790  0.00  0.00    +0.000 A 
BRANCH  84  87
ATOM     87  O   UNL     1      -3.593  -4.006 128.538  0.00  0.00    +0.000 OA
ATOM     88  H   UNL     1      -2.630  -4.106 128.523  0.00  0.00    +0.000 HD
ENDBRANCH  84  87
ENDBRANCH  80  81
ENDBRANCH  18  80
BRANCH  22  89
ATOM     89  C   UNL     1      -7.407   2.370 130.569  0.00  0.00    +0.000 C 
BRANCH  89  90
ATOM     90  C   UNL     1      -8.582   1.679 130.278  0.00  0.00    +0.000 C 
ATOM     91  N   UNL     1      -8.954   1.989 129.033  0.00  0.00    +0.000 N 
ATOM     92  O   UNL     1      -9.155   0.904 131.006  0.00  0.00    +0.000 OA
ATOM     93  H   UNL     1      -8.383   2.562 128.409  0.00  0.00    +0.000 HD
ATOM     94  H   UNL     1      -9.789   1.617 128.678  0.00  0.00    +0.000 HD
ENDBRANCH  89  90
ENDBRANCH  22  89
TORSDOF 20
ENDMDL
