MODEL 1
REMARK VINA RESULT:      -8.4      0.000      0.000
REMARK  Name = CHEMBL271456
REMARK  12 active torsions:
REMARK  status: ('A' for Active; 'I' for Inactive)
REMARK    1  A    between atoms: CD1_1  and  CG_2
REMARK    2  A    between atoms: CG_2  and  CD2_3
REMARK    3  A    between atoms: CG_2  and  CB_4
REMARK    4  A    between atoms: CB_4  and  CA_5
REMARK    5  A    between atoms: C_9  and  C_10
REMARK    6  A    between atoms: N_21  and  C_22
REMARK    7  A    between atoms: C_22  and  C_23
REMARK    8  A    between atoms: C_22  and  C_30
REMARK    9  A    between atoms: N_25  and  C_26
REMARK   10  A    between atoms: C_26  and  C_27
REMARK   11  A    between atoms: C_26  and  C_28
REMARK   12  A    between atoms: C_26  and  C_29
REMARK                            x       y       z     vdW  Elec       q    Type
REMARK                         _______ _______ _______ _____ _____    ______ ____
ROOT
ATOM      1  CA  LEU A   2      -6.604   3.378 123.286  0.00  0.00    +0.000 C 
ATOM      2  C   LEU A   2      -5.337   4.179 123.722  0.00  0.00    +0.000 C 
ATOM      3  O   LEU A   2      -4.826   5.096 123.123  0.00  0.00    +0.000 OA
ATOM      4  N   UNK A   1      -4.839   3.740 124.915  0.00  0.00    +0.000 N 
ATOM      5  C   UNK A   1      -5.865   3.437 125.865  0.00  0.00    +0.000 C 
ATOM      6  C   UNK A   1      -6.671   2.227 125.388  0.00  0.00    +0.000 C 
ATOM      7  O   UNK A   1      -7.183   1.525 126.274  0.00  0.00    +0.000 OA
ATOM      8  N   LEU A   2      -6.820   2.069 124.013  0.00  0.00    +0.000 N 
ATOM      9  H   UNK A   1      -3.979   4.194 125.200  0.00  0.00    +0.000 HD
ENDROOT
BRANCH   5  10
ATOM     10  C   UNK A   1      -5.347   3.093 127.259  0.00  0.00    +0.000 C 
ATOM     11  C   UNK A   1      -5.828   4.051 128.352  0.00  0.00    +0.000 C 
ATOM     12  C   UNK A   1      -4.673   4.996 128.453  0.00  0.00    +0.000 A 
ATOM     13  C   UNK A   1      -4.650   6.241 129.052  0.00  0.00    +0.000 A 
ATOM     14  C   UNK A   1      -3.462   6.973 129.005  0.00  0.00    +0.000 A 
ATOM     15  C   UNK A   1      -2.322   6.456 128.370  0.00  0.00    +0.000 A 
ATOM     16  C   UNK A   1      -2.349   5.193 127.781  0.00  0.00    +0.000 A 
ATOM     17  C   UNK A   1      -3.530   4.475 127.839  0.00  0.00    +0.000 A 
ATOM     18  C   UNK A   1      -3.795   3.112 127.292  0.00  0.00    +0.000 C 
ENDBRANCH   5  10
BRANCH   1  19
ATOM     19  CB  LEU A   2      -6.424   3.213 121.831  0.00  0.00    +0.000 C 
BRANCH  19  21
ATOM     20  CD1 LEU A   2      -6.809   4.171 119.820  0.00  0.00    +0.000 C 
ATOM     21  CG  LEU A   2      -7.499   4.000 121.111  0.00  0.00    +0.000 C 
ATOM     22  CD2 LEU A   2      -8.915   3.604 120.657  0.00  0.00    +0.000 C 
ENDBRANCH  19  21
ENDBRANCH   1  19
BRANCH   8  23
ATOM     23  C   UNK A   0      -7.422   0.766 123.363  0.00  0.00    +0.000 C 
BRANCH  23  24
ATOM     24  C   UNK A   0      -8.961   0.886 123.231  0.00  0.00    +0.000 A 
ATOM     25  C   UNK A   0      -9.869   1.629 124.067  0.00  0.00    +0.000 A 
ATOM     26  C   UNK A   0     -11.137   1.175 123.777  0.00  0.00    +0.000 A 
ATOM     27  O   UNK A   0     -11.111   0.342 122.715  0.00  0.00    +0.000 OA
ATOM     28  C   UNK A   0      -9.810   0.184 122.385  0.00  0.00    +0.000 A 
ENDBRANCH  23  24
BRANCH  23  29
ATOM     29  C   UNK A   0      -7.104  -0.700 124.094  0.00  0.00    +0.000 C 
ATOM     30  O   UNK A   0      -6.171  -1.430 123.735  0.00  0.00    +0.000 OA
ATOM     31  N   UNK A   0      -7.963  -1.182 125.091  0.00  0.00    +0.000 N 
ATOM     32  H   UNK A   0      -8.473  -0.446 125.556  0.00  0.00    +0.000 HD
BRANCH  31  33
ATOM     33  C   UNK A   0      -8.067  -2.699 125.603  0.00  0.00    +0.000 C 
ATOM     34  C   UNK A   0      -8.045  -3.652 124.369  0.00  0.00    +0.000 C 
ATOM     35  C   UNK A   0      -6.859  -2.746 126.494  0.00  0.00    +0.000 C 
ATOM     36  C   UNK A   0      -9.251  -3.312 126.721  0.00  0.00    +0.000 C 
ENDBRANCH  31  33
ENDBRANCH  23  29
ENDBRANCH   8  23
TORSDOF 7
ENDMDL
MODEL 2
REMARK VINA RESULT:      -8.2      5.733      9.303
REMARK  Name = CHEMBL271456
REMARK  12 active torsions:
REMARK  status: ('A' for Active; 'I' for Inactive)
REMARK    1  A    between atoms: CD1_1  and  CG_2
REMARK    2  A    between atoms: CG_2  and  CD2_3
REMARK    3  A    between atoms: CG_2  and  CB_4
REMARK    4  A    between atoms: CB_4  and  CA_5
REMARK    5  A    between atoms: C_9  and  C_10
REMARK    6  A    between atoms: N_21  and  C_22
REMARK    7  A    between atoms: C_22  and  C_23
REMARK    8  A    between atoms: C_22  and  C_30
REMARK    9  A    between atoms: N_25  and  C_26
REMARK   10  A    between atoms: C_26  and  C_27
REMARK   11  A    between atoms: C_26  and  C_28
REMARK   12  A    between atoms: C_26  and  C_29
REMARK                            x       y       z     vdW  Elec       q    Type
REMARK                         _______ _______ _______ _____ _____    ______ ____
ROOT
ATOM      1  CA  LEU A   2      -7.712   2.043 130.301  0.00  0.00    +0.000 C 
ATOM      2  C   LEU A   2      -8.536   3.009 129.391  0.00  0.00    +0.000 C 
ATOM      3  O   LEU A   2      -9.149   2.708 128.394  0.00  0.00    +0.000 OA
ATOM      4  N   UNK A   1      -8.516   4.292 129.858  0.00  0.00    +0.000 N 
ATOM      5  C   UNK A   1      -8.632   4.367 131.281  0.00  0.00    +0.000 C 
ATOM      6  C   UNK A   1      -7.383   3.768 131.934  0.00  0.00    +0.000 C 
ATOM      7  O   UNK A   1      -7.072   4.225 133.044  0.00  0.00    +0.000 OA
ATOM      8  N   LEU A   2      -6.761   2.720 131.262  0.00  0.00    +0.000 N 
ATOM      9  H   UNK A   1      -8.987   4.960 129.258  0.00  0.00    +0.000 HD
ENDROOT
BRANCH   5  10
ATOM     10  C   UNK A   1      -8.770   5.785 131.826  0.00  0.00    +0.000 C 
ATOM     11  C   UNK A   1     -10.105   6.052 132.525  0.00  0.00    +0.000 C 
ATOM     12  C   UNK A   1     -10.897   6.689 131.427  0.00  0.00    +0.000 A 
ATOM     13  C   UNK A   1     -12.265   6.873 131.369  0.00  0.00    +0.000 A 
ATOM     14  C   UNK A   1     -12.801   7.469 130.226  0.00  0.00    +0.000 A 
ATOM     15  C   UNK A   1     -11.974   7.875 129.168  0.00  0.00    +0.000 A 
ATOM     16  C   UNK A   1     -10.593   7.698 129.241  0.00  0.00    +0.000 A 
ATOM     17  C   UNK A   1     -10.072   7.112 130.380  0.00  0.00    +0.000 A 
ATOM     18  C   UNK A   1      -8.638   6.830 130.686  0.00  0.00    +0.000 C 
ENDBRANCH   5  10
BRANCH   1  19
ATOM     19  CB  LEU A   2      -7.035   1.155 129.337  0.00  0.00    +0.000 C 
BRANCH  19  21
ATOM     20  CD1 LEU A   2      -6.188  -0.936 129.454  0.00  0.00    +0.000 C 
ATOM     21  CG  LEU A   2      -7.496  -0.267 129.571  0.00  0.00    +0.000 C 
ATOM     22  CD2 LEU A   2      -8.084  -0.951 130.817  0.00  0.00    +0.000 C 
ENDBRANCH  19  21
ENDBRANCH   1  19
BRANCH   8  23
ATOM     23  C   UNK A   0      -5.352   2.153 131.683  0.00  0.00    +0.000 C 
BRANCH  23  24
ATOM     24  C   UNK A   0      -5.512   1.028 132.737  0.00  0.00    +0.000 A 
ATOM     25  C   UNK A   0      -4.772  -0.204 132.842  0.00  0.00    +0.000 A 
ATOM     26  C   UNK A   0      -5.476  -1.017 133.703  0.00  0.00    +0.000 A 
ATOM     27  O   UNK A   0      -6.492  -0.337 134.275  0.00  0.00    +0.000 OA
ATOM     28  C   UNK A   0      -6.501   0.888 133.704  0.00  0.00    +0.000 A 
ENDBRANCH  23  24
BRANCH  23  29
ATOM     29  C   UNK A   0      -4.215   3.222 132.274  0.00  0.00    +0.000 C 
ATOM     30  O   UNK A   0      -4.031   3.387 133.488  0.00  0.00    +0.000 OA
ATOM     31  N   UNK A   0      -3.496   4.035 131.389  0.00  0.00    +0.000 N 
ATOM     32  H   UNK A   0      -3.438   3.645 130.460  0.00  0.00    +0.000 HD
BRANCH  31  33
ATOM     33  C   UNK A   0      -2.693   5.372 131.766  0.00  0.00    +0.000 C 
ATOM     34  C   UNK A   0      -1.358   4.977 132.470  0.00  0.00    +0.000 C 
ATOM     35  C   UNK A   0      -2.561   5.980 130.399  0.00  0.00    +0.000 C 
ATOM     36  C   UNK A   0      -3.348   6.745 132.610  0.00  0.00    +0.000 C 
ENDBRANCH  31  33
ENDBRANCH  23  29
ENDBRANCH   8  23
TORSDOF 7
ENDMDL
MODEL 3
REMARK VINA RESULT:      -8.1      6.247     10.200
REMARK  Name = CHEMBL271456
REMARK  12 active torsions:
REMARK  status: ('A' for Active; 'I' for Inactive)
REMARK    1  A    between atoms: CD1_1  and  CG_2
REMARK    2  A    between atoms: CG_2  and  CD2_3
REMARK    3  A    between atoms: CG_2  and  CB_4
REMARK    4  A    between atoms: CB_4  and  CA_5
REMARK    5  A    between atoms: C_9  and  C_10
REMARK    6  A    between atoms: N_21  and  C_22
REMARK    7  A    between atoms: C_22  and  C_23
REMARK    8  A    between atoms: C_22  and  C_30
REMARK    9  A    between atoms: N_25  and  C_26
REMARK   10  A    between atoms: C_26  and  C_27
REMARK   11  A    between atoms: C_26  and  C_28
REMARK   12  A    between atoms: C_26  and  C_29
REMARK                            x       y       z     vdW  Elec       q    Type
REMARK                         _______ _______ _______ _____ _____    ______ ____
ROOT
ATOM      1  CA  LEU A   2      -8.116   3.215 131.040  0.00  0.00    +0.000 C 
ATOM      2  C   LEU A   2      -9.029   3.505 129.806  0.00  0.00    +0.000 C 
ATOM      3  O   LEU A   2      -9.418   2.697 128.996  0.00  0.00    +0.000 OA
ATOM      4  N   UNK A   1      -9.383   4.822 129.730  0.00  0.00    +0.000 N 
ATOM      5  C   UNK A   1      -9.693   5.387 131.007  0.00  0.00    +0.000 C 
ATOM      6  C   UNK A   1      -8.429   5.443 131.868  0.00  0.00    +0.000 C 
ATOM      7  O   UNK A   1      -8.383   6.348 132.715  0.00  0.00    +0.000 OA
ATOM      8  N   LEU A   2      -7.489   4.435 131.677  0.00  0.00    +0.000 N 
ATOM      9  H   UNK A   1      -9.923   5.060 128.906  0.00  0.00    +0.000 HD
ENDROOT
BRANCH   5  10
ATOM     10  C   UNK A   1     -10.243   6.809 130.946  0.00  0.00    +0.000 C 
ATOM     11  C   UNK A   1     -11.771   6.881 130.900  0.00  0.00    +0.000 C 
ATOM     12  C   UNK A   1     -12.022   7.013 129.431  0.00  0.00    +0.000 A 
ATOM     13  C   UNK A   1     -13.211   6.819 128.756  0.00  0.00    +0.000 A 
ATOM     14  C   UNK A   1     -13.213   6.969 127.368  0.00  0.00    +0.000 A 
ATOM     15  C   UNK A   1     -12.039   7.311 126.678  0.00  0.00    +0.000 A 
ATOM     16  C   UNK A   1     -10.846   7.519 127.369  0.00  0.00    +0.000 A 
ATOM     17  C   UNK A   1     -10.858   7.374 128.744  0.00  0.00    +0.000 A 
ATOM     18  C   UNK A   1      -9.716   7.552 129.689  0.00  0.00    +0.000 C 
ENDBRANCH   5  10
BRANCH   1  19
ATOM     19  CB  LEU A   2      -7.125   2.256 130.517  0.00  0.00    +0.000 C 
BRANCH  19  21
ATOM     20  CD1 LEU A   2      -6.368   0.779 132.052  0.00  0.00    +0.000 C 
ATOM     21  CG  LEU A   2      -7.447   0.877 131.053  0.00  0.00    +0.000 C 
ATOM     22  CD2 LEU A   2      -8.655   0.353 131.849  0.00  0.00    +0.000 C 
ENDBRANCH  19  21
ENDBRANCH   1  19
BRANCH   8  23
ATOM     23  C   UNK A   0      -6.049   4.478 132.316  0.00  0.00    +0.000 C 
BRANCH  23  24
ATOM     24  C   UNK A   0      -6.143   4.505 133.864  0.00  0.00    +0.000 A 
ATOM     25  C   UNK A   0      -6.022   5.642 134.740  0.00  0.00    +0.000 A 
ATOM     26  C   UNK A   0      -5.839   5.143 136.012  0.00  0.00    +0.000 A 
ATOM     27  O   UNK A   0      -6.009   3.804 136.026  0.00  0.00    +0.000 OA
ATOM     28  C   UNK A   0      -6.204   3.431 134.742  0.00  0.00    +0.000 A 
ENDBRANCH  23  24
BRANCH  23  29
ATOM     29  C   UNK A   0      -5.021   5.711 131.865  0.00  0.00    +0.000 C 
ATOM     30  O   UNK A   0      -5.382   6.635 131.123  0.00  0.00    +0.000 OA
ATOM     31  N   UNK A   0      -3.675   5.674 132.252  0.00  0.00    +0.000 N 
ATOM     32  H   UNK A   0      -3.523   5.122 133.083  0.00  0.00    +0.000 HD
BRANCH  31  33
ATOM     33  C   UNK A   0      -2.474   6.512 131.596  0.00  0.00    +0.000 C 
ATOM     34  C   UNK A   0      -2.571   7.993 132.075  0.00  0.00    +0.000 C 
ATOM     35  C   UNK A   0      -1.305   5.726 132.119  0.00  0.00    +0.000 C 
ATOM     36  C   UNK A   0      -2.053   6.529 129.908  0.00  0.00    +0.000 C 
ENDBRANCH  31  33
ENDBRANCH  23  29
ENDBRANCH   8  23
TORSDOF 7
ENDMDL
MODEL 4
REMARK VINA RESULT:      -8.0      3.186      5.552
REMARK  Name = CHEMBL271456
REMARK  12 active torsions:
REMARK  status: ('A' for Active; 'I' for Inactive)
REMARK    1  A    between atoms: CD1_1  and  CG_2
REMARK    2  A    between atoms: CG_2  and  CD2_3
REMARK    3  A    between atoms: CG_2  and  CB_4
REMARK    4  A    between atoms: CB_4  and  CA_5
REMARK    5  A    between atoms: C_9  and  C_10
REMARK    6  A    between atoms: N_21  and  C_22
REMARK    7  A    between atoms: C_22  and  C_23
REMARK    8  A    between atoms: C_22  and  C_30
REMARK    9  A    between atoms: N_25  and  C_26
REMARK   10  A    between atoms: C_26  and  C_27
REMARK   11  A    between atoms: C_26  and  C_28
REMARK   12  A    between atoms: C_26  and  C_29
REMARK                            x       y       z     vdW  Elec       q    Type
REMARK                         _______ _______ _______ _____ _____    ______ ____
ROOT
ATOM      1  CA  LEU A   2      -4.938   3.219 127.997  0.00  0.00    +0.000 C 
ATOM      2  C   LEU A   2      -5.215   3.116 129.531  0.00  0.00    +0.000 C 
ATOM      3  O   LEU A   2      -4.395   3.204 130.415  0.00  0.00    +0.000 OA
ATOM      4  N   UNK A   1      -6.540   2.928 129.800  0.00  0.00    +0.000 N 
ATOM      5  C   UNK A   1      -7.393   3.714 128.963  0.00  0.00    +0.000 C 
ATOM      6  C   UNK A   1      -7.287   3.228 127.515  0.00  0.00    +0.000 C 
ATOM      7  O   UNK A   1      -8.292   3.392 126.807  0.00  0.00    +0.000 OA
ATOM      8  N   LEU A   2      -6.056   2.722 127.107  0.00  0.00    +0.000 N 
ATOM      9  H   UNK A   1      -6.750   2.792 130.783  0.00  0.00    +0.000 HD
ENDROOT
BRANCH   5  10
ATOM     10  C   UNK A   1      -8.871   3.649 129.337  0.00  0.00    +0.000 C 
ATOM     11  C   UNK A   1      -9.418   4.952 129.924  0.00  0.00    +0.000 C 
ATOM     12  C   UNK A   1      -9.316   4.686 131.393  0.00  0.00    +0.000 A 
ATOM     13  C   UNK A   1      -9.379   5.603 132.424  0.00  0.00    +0.000 A 
ATOM     14  C   UNK A   1      -9.229   5.136 133.731  0.00  0.00    +0.000 A 
ATOM     15  C   UNK A   1      -9.025   3.772 133.990  0.00  0.00    +0.000 A 
ATOM     16  C   UNK A   1      -8.977   2.851 132.945  0.00  0.00    +0.000 A 
ATOM     17  C   UNK A   1      -9.133   3.324 131.655  0.00  0.00    +0.000 A 
ATOM     18  C   UNK A   1      -9.127   2.535 130.388  0.00  0.00    +0.000 C 
ENDBRANCH   5  10
BRANCH   1  19
ATOM     19  CB  LEU A   2      -3.679   2.470 127.823  0.00  0.00    +0.000 C 
BRANCH  19  21
ATOM     20  CD1 LEU A   2      -2.546   4.423 127.718  0.00  0.00    +0.000 C 
ATOM     21  CG  LEU A   2      -2.779   3.236 126.877  0.00  0.00    +0.000 C 
ATOM     22  CD2 LEU A   2      -1.361   2.939 126.360  0.00  0.00    +0.000 C 
ENDBRANCH  19  21
ENDBRANCH   1  19
BRANCH   8  23
ATOM     23  C   UNK A   0      -5.851   1.982 125.731  0.00  0.00    +0.000 C 
BRANCH  23  24
ATOM     24  C   UNK A   0      -6.014   2.973 124.551  0.00  0.00    +0.000 A 
ATOM     25  C   UNK A   0      -6.710   2.766 123.307  0.00  0.00    +0.000 A 
ATOM     26  C   UNK A   0      -6.307   3.772 122.455  0.00  0.00    +0.000 A 
ATOM     27  O   UNK A   0      -5.558   4.680 123.115  0.00  0.00    +0.000 OA
ATOM     28  C   UNK A   0      -5.398   4.205 124.370  0.00  0.00    +0.000 A 
ENDBRANCH  23  24
BRANCH  23  29
ATOM     29  C   UNK A   0      -6.809   0.658 125.397  0.00  0.00    +0.000 C 
ATOM     30  O   UNK A   0      -7.868   0.439 126.001  0.00  0.00    +0.000 OA
ATOM     31  N   UNK A   0      -6.377  -0.300 124.470  0.00  0.00    +0.000 N 
ATOM     32  H   UNK A   0      -5.721   0.074 123.801  0.00  0.00    +0.000 HD
BRANCH  31  33
ATOM     33  C   UNK A   0      -6.932  -1.798 124.322  0.00  0.00    +0.000 C 
ATOM     34  C   UNK A   0      -8.085  -1.808 123.273  0.00  0.00    +0.000 C 
ATOM     35  C   UNK A   0      -5.665  -2.495 123.915  0.00  0.00    +0.000 C 
ATOM     36  C   UNK A   0      -7.403  -2.839 125.634  0.00  0.00    +0.000 C 
ENDBRANCH  31  33
ENDBRANCH  23  29
ENDBRANCH   8  23
TORSDOF 7
ENDMDL
MODEL 5
REMARK VINA RESULT:      -8.0      4.241      8.424
REMARK  Name = CHEMBL271456
REMARK  12 active torsions:
REMARK  status: ('A' for Active; 'I' for Inactive)
REMARK    1  A    between atoms: CD1_1  and  CG_2
REMARK    2  A    between atoms: CG_2  and  CD2_3
REMARK    3  A    between atoms: CG_2  and  CB_4
REMARK    4  A    between atoms: CB_4  and  CA_5
REMARK    5  A    between atoms: C_9  and  C_10
REMARK    6  A    between atoms: N_21  and  C_22
REMARK    7  A    between atoms: C_22  and  C_23
REMARK    8  A    between atoms: C_22  and  C_30
REMARK    9  A    between atoms: N_25  and  C_26
REMARK   10  A    between atoms: C_26  and  C_27
REMARK   11  A    between atoms: C_26  and  C_28
REMARK   12  A    between atoms: C_26  and  C_29
REMARK                            x       y       z     vdW  Elec       q    Type
REMARK                         _______ _______ _______ _____ _____    ______ ____
ROOT
ATOM      1  CA  LEU A   2      -7.394   2.387 131.624  0.00  0.00    +0.000 C 
ATOM      2  C   LEU A   2      -6.503   1.130 131.879  0.00  0.00    +0.000 C 
ATOM      3  O   LEU A   2      -5.978   0.822 132.924  0.00  0.00    +0.000 OA
ATOM      4  N   UNK A   1      -6.379   0.355 130.761  0.00  0.00    +0.000 N 
ATOM      5  C   UNK A   1      -7.602   0.237 130.030  0.00  0.00    +0.000 C 
ATOM      6  C   UNK A   1      -7.984   1.596 129.439  0.00  0.00    +0.000 C 
ATOM      7  O   UNK A   1      -8.645   1.572 128.389  0.00  0.00    +0.000 OA
ATOM      8  N   LEU A   2      -7.625   2.726 130.168  0.00  0.00    +0.000 N 
ATOM      9  H   UNK A   1      -5.755  -0.437 130.872  0.00  0.00    +0.000 HD
ENDROOT
BRANCH   5  10
ATOM     10  C   UNK A   1      -7.543  -0.744 128.863  0.00  0.00    +0.000 C 
ATOM     11  C   UNK A   1      -7.997  -2.161 129.222  0.00  0.00    +0.000 C 
ATOM     12  C   UNK A   1      -6.691  -2.834 129.499  0.00  0.00    +0.000 A 
ATOM     13  C   UNK A   1      -6.479  -4.030 130.157  0.00  0.00    +0.000 A 
ATOM     14  C   UNK A   1      -5.163  -4.462 130.333  0.00  0.00    +0.000 A 
ATOM     15  C   UNK A   1      -4.085  -3.704 129.849  0.00  0.00    +0.000 A 
ATOM     16  C   UNK A   1      -4.308  -2.505 129.174  0.00  0.00    +0.000 A 
ATOM     17  C   UNK A   1      -5.616  -2.091 129.001  0.00  0.00    +0.000 A 
ATOM     18  C   UNK A   1      -6.097  -0.858 128.310  0.00  0.00    +0.000 C 
ENDBRANCH   5  10
BRANCH   1  19
ATOM     19  CB  LEU A   2      -6.702   3.456 132.369  0.00  0.00    +0.000 C 
BRANCH  19  21
ATOM     20  CD1 LEU A   2      -7.223   5.242 133.652  0.00  0.00    +0.000 C 
ATOM     21  CG  LEU A   2      -7.512   3.798 133.602  0.00  0.00    +0.000 C 
ATOM     22  CD2 LEU A   2      -9.029   3.776 133.858  0.00  0.00    +0.000 C 
ENDBRANCH  19  21
ENDBRANCH   1  19
BRANCH   8  23
ATOM     23  C   UNK A   0      -7.744   4.188 129.592  0.00  0.00    +0.000 C 
BRANCH  23  24
ATOM     24  C   UNK A   0      -9.026   4.879 130.124  0.00  0.00    +0.000 A 
ATOM     25  C   UNK A   0      -9.159   6.207 130.664  0.00  0.00    +0.000 A 
ATOM     26  C   UNK A   0     -10.380   6.254 131.302  0.00  0.00    +0.000 A 
ATOM     27  O   UNK A   0     -11.087   5.131 131.057  0.00  0.00    +0.000 OA
ATOM     28  C   UNK A   0     -10.278   4.319 130.342  0.00  0.00    +0.000 A 
ENDBRANCH  23  24
BRANCH  23  29
ATOM     29  C   UNK A   0      -7.729   4.387 127.936  0.00  0.00    +0.000 C 
ATOM     30  O   UNK A   0      -8.592   5.047 127.341  0.00  0.00    +0.000 OA
ATOM     31  N   UNK A   0      -6.769   3.722 127.162  0.00  0.00    +0.000 N 
ATOM     32  H   UNK A   0      -5.938   3.491 127.685  0.00  0.00    +0.000 HD
BRANCH  31  33
ATOM     33  C   UNK A   0      -6.840   3.457 125.581  0.00  0.00    +0.000 C 
ATOM     34  C   UNK A   0      -6.196   4.666 124.837  0.00  0.00    +0.000 C 
ATOM     35  C   UNK A   0      -6.084   2.161 125.509  0.00  0.00    +0.000 C 
ATOM     36  C   UNK A   0      -8.262   2.989 124.694  0.00  0.00    +0.000 C 
ENDBRANCH  31  33
ENDBRANCH  23  29
ENDBRANCH   8  23
TORSDOF 7
ENDMDL
MODEL 6
REMARK VINA RESULT:      -8.0      4.028      5.232
REMARK  Name = CHEMBL271456
REMARK  12 active torsions:
REMARK  status: ('A' for Active; 'I' for Inactive)
REMARK    1  A    between atoms: CD1_1  and  CG_2
REMARK    2  A    between atoms: CG_2  and  CD2_3
REMARK    3  A    between atoms: CG_2  and  CB_4
REMARK    4  A    between atoms: CB_4  and  CA_5
REMARK    5  A    between atoms: C_9  and  C_10
REMARK    6  A    between atoms: N_21  and  C_22
REMARK    7  A    between atoms: C_22  and  C_23
REMARK    8  A    between atoms: C_22  and  C_30
REMARK    9  A    between atoms: N_25  and  C_26
REMARK   10  A    between atoms: C_26  and  C_27
REMARK   11  A    between atoms: C_26  and  C_28
REMARK   12  A    between atoms: C_26  and  C_29
REMARK                            x       y       z     vdW  Elec       q    Type
REMARK                         _______ _______ _______ _____ _____    ______ ____
ROOT
ATOM      1  CA  LEU A   2      -7.279   2.544 127.526  0.00  0.00    +0.000 C 
ATOM      2  C   LEU A   2      -7.179   3.486 128.768  0.00  0.00    +0.000 C 
ATOM      3  O   LEU A   2      -7.088   4.691 128.749  0.00  0.00    +0.000 OA
ATOM      4  N   UNK A   1      -7.225   2.790 129.942  0.00  0.00    +0.000 N 
ATOM      5  C   UNK A   1      -8.180   1.725 129.918  0.00  0.00    +0.000 C 
ATOM      6  C   UNK A   1      -7.730   0.650 128.925  0.00  0.00    +0.000 C 
ATOM      7  O   UNK A   1      -8.096  -0.509 129.170  0.00  0.00    +0.000 OA
ATOM      8  N   LEU A   2      -7.023   1.080 127.806  0.00  0.00    +0.000 N 
ATOM      9  H   UNK A   1      -7.099   3.362 130.770  0.00  0.00    +0.000 HD
ENDROOT
BRANCH   5  10
ATOM     10  C   UNK A   1      -8.372   1.025 131.260  0.00  0.00    +0.000 C 
ATOM     11  C   UNK A   1      -9.517   1.598 132.099  0.00  0.00    +0.000 C 
ATOM     12  C   UNK A   1      -8.787   2.538 133.003  0.00  0.00    +0.000 A 
ATOM     13  C   UNK A   1      -9.318   3.557 133.770  0.00  0.00    +0.000 A 
ATOM     14  C   UNK A   1      -8.443   4.339 134.525  0.00  0.00    +0.000 A 
ATOM     15  C   UNK A   1      -7.061   4.095 134.509  0.00  0.00    +0.000 A 
ATOM     16  C   UNK A   1      -6.534   3.056 133.743  0.00  0.00    +0.000 A 
ATOM     17  C   UNK A   1      -7.412   2.283 133.004  0.00  0.00    +0.000 A 
ATOM     18  C   UNK A   1      -7.085   1.123 132.124  0.00  0.00    +0.000 C 
ENDBRANCH   5  10
BRANCH   1  19
ATOM     19  CB  LEU A   2      -6.321   3.132 126.570  0.00  0.00    +0.000 C 
BRANCH  19  21
ATOM     20  CD1 LEU A   2      -6.106   3.220 124.322  0.00  0.00    +0.000 C 
ATOM     21  CG  LEU A   2      -7.078   3.622 125.355  0.00  0.00    +0.000 C 
ATOM     22  CD2 LEU A   2      -8.405   3.158 124.729  0.00  0.00    +0.000 C 
ENDBRANCH  19  21
ENDBRANCH   1  19
BRANCH   8  23
ATOM     23  C   UNK A   0      -6.302   0.087 126.818  0.00  0.00    +0.000 C 
BRANCH  23  24
ATOM     24  C   UNK A   0      -7.253  -0.314 125.662  0.00  0.00    +0.000 A 
ATOM     25  C   UNK A   0      -6.965  -0.362 124.251  0.00  0.00    +0.000 A 
ATOM     26  C   UNK A   0      -8.179  -0.441 123.602  0.00  0.00    +0.000 A 
ATOM     27  O   UNK A   0      -9.180  -0.621 124.488  0.00  0.00    +0.000 OA
ATOM     28  C   UNK A   0      -8.619  -0.558 125.716  0.00  0.00    +0.000 A 
ENDBRANCH  23  24
BRANCH  23  29
ATOM     29  C   UNK A   0      -5.664  -1.323 127.442  0.00  0.00    +0.000 C 
ATOM     30  O   UNK A   0      -5.849  -2.426 126.908  0.00  0.00    +0.000 OA
ATOM     31  N   UNK A   0      -4.970  -1.296 128.658  0.00  0.00    +0.000 N 
ATOM     32  H   UNK A   0      -4.577  -0.390 128.863  0.00  0.00    +0.000 HD
BRANCH  31  33
ATOM     33  C   UNK A   0      -4.655  -2.556 129.601  0.00  0.00    +0.000 C 
ATOM     34  C   UNK A   0      -3.371  -3.270 129.078  0.00  0.00    +0.000 C 
ATOM     35  C   UNK A   0      -4.525  -1.854 130.922  0.00  0.00    +0.000 C 
ATOM     36  C   UNK A   0      -5.793  -3.788 130.060  0.00  0.00    +0.000 C 
ENDBRANCH  31  33
ENDBRANCH  23  29
ENDBRANCH   8  23
TORSDOF 7
ENDMDL
MODEL 7
REMARK VINA RESULT:      -7.8      3.470      8.719
REMARK  Name = CHEMBL271456
REMARK  12 active torsions:
REMARK  status: ('A' for Active; 'I' for Inactive)
REMARK    1  A    between atoms: CD1_1  and  CG_2
REMARK    2  A    between atoms: CG_2  and  CD2_3
REMARK    3  A    between atoms: CG_2  and  CB_4
REMARK    4  A    between atoms: CB_4  and  CA_5
REMARK    5  A    between atoms: C_9  and  C_10
REMARK    6  A    between atoms: N_21  and  C_22
REMARK    7  A    between atoms: C_22  and  C_23
REMARK    8  A    between atoms: C_22  and  C_30
REMARK    9  A    between atoms: N_25  and  C_26
REMARK   10  A    between atoms: C_26  and  C_27
REMARK   11  A    between atoms: C_26  and  C_28
REMARK   12  A    between atoms: C_26  and  C_29
REMARK                            x       y       z     vdW  Elec       q    Type
REMARK                         _______ _______ _______ _____ _____    ______ ____
ROOT
ATOM      1  CA  LEU A   2      -7.858   1.661 129.871  0.00  0.00    +0.000 C 
ATOM      2  C   LEU A   2      -7.579   0.239 129.289  0.00  0.00    +0.000 C 
ATOM      3  O   LEU A   2      -8.113  -0.792 129.626  0.00  0.00    +0.000 OA
ATOM      4  N   UNK A   1      -6.640   0.267 128.298  0.00  0.00    +0.000 N 
ATOM      5  C   UNK A   1      -6.791   1.388 127.424  0.00  0.00    +0.000 C 
ATOM      6  C   UNK A   1      -6.493   2.682 128.186  0.00  0.00    +0.000 C 
ATOM      7  O   UNK A   1      -6.049   3.625 127.513  0.00  0.00    +0.000 OA
ATOM      8  N   LEU A   2      -6.818   2.707 129.539  0.00  0.00    +0.000 N 
ATOM      9  H   UNK A   1      -6.386  -0.647 127.940  0.00  0.00    +0.000 HD
ENDROOT
BRANCH   5  10
ATOM     10  C   UNK A   1      -5.860   1.371 126.215  0.00  0.00    +0.000 C 
ATOM     11  C   UNK A   1      -6.581   1.545 124.876  0.00  0.00    +0.000 C 
ATOM     12  C   UNK A   1      -6.738   0.126 124.432  0.00  0.00    +0.000 A 
ATOM     13  C   UNK A   1      -7.575  -0.364 123.448  0.00  0.00    +0.000 A 
ATOM     14  C   UNK A   1      -7.584  -1.741 123.216  0.00  0.00    +0.000 A 
ATOM     15  C   UNK A   1      -6.762  -2.603 123.958  0.00  0.00    +0.000 A 
ATOM     16  C   UNK A   1      -5.909  -2.099 124.939  0.00  0.00    +0.000 A 
ATOM     17  C   UNK A   1      -5.905  -0.733 125.156  0.00  0.00    +0.000 A 
ATOM     18  C   UNK A   1      -5.080   0.031 126.138  0.00  0.00    +0.000 C 
ENDBRANCH   5  10
BRANCH   1  19
ATOM     19  CB  LEU A   2      -7.999   1.418 131.320  0.00  0.00    +0.000 C 
BRANCH  19  21
ATOM     20  CD1 LEU A   2      -8.956   2.596 132.995  0.00  0.00    +0.000 C 
ATOM     21  CG  LEU A   2      -9.366   1.893 131.766  0.00  0.00    +0.000 C 
ATOM     22  CD2 LEU A   2     -10.343   2.905 131.142  0.00  0.00    +0.000 C 
ENDBRANCH  19  21
ENDBRANCH   1  19
BRANCH   8  23
ATOM     23  C   UNK A   0      -6.371   3.871 130.503  0.00  0.00    +0.000 C 
BRANCH  23  24
ATOM     24  C   UNK A   0      -7.346   5.071 130.395  0.00  0.00    +0.000 A 
ATOM     25  C   UNK A   0      -7.588   6.109 131.364  0.00  0.00    +0.000 A 
ATOM     26  C   UNK A   0      -8.751   6.743 130.984  0.00  0.00    +0.000 A 
ATOM     27  O   UNK A   0      -9.157   6.304 129.774  0.00  0.00    +0.000 OA
ATOM     28  C   UNK A   0      -8.307   5.314 129.421  0.00  0.00    +0.000 A 
ENDBRANCH  23  24
BRANCH  23  29
ATOM     29  C   UNK A   0      -4.825   4.478 130.343  0.00  0.00    +0.000 C 
ATOM     30  O   UNK A   0      -3.847   3.949 130.887  0.00  0.00    +0.000 OA
ATOM     31  N   UNK A   0      -4.616   5.677 129.648  0.00  0.00    +0.000 N 
ATOM     32  H   UNK A   0      -5.345   5.872 128.978  0.00  0.00    +0.000 HD
BRANCH  31  33
ATOM     33  C   UNK A   0      -3.315   6.611 129.736  0.00  0.00    +0.000 C 
ATOM     34  C   UNK A   0      -2.307   6.180 128.627  0.00  0.00    +0.000 C 
ATOM     35  C   UNK A   0      -3.959   7.956 129.554  0.00  0.00    +0.000 C 
ATOM     36  C   UNK A   0      -2.400   6.944 131.178  0.00  0.00    +0.000 C 
ENDBRANCH  31  33
ENDBRANCH  23  29
ENDBRANCH   8  23
TORSDOF 7
ENDMDL
MODEL 8
REMARK VINA RESULT:      -7.8      3.396      6.787
REMARK  Name = CHEMBL271456
REMARK  12 active torsions:
REMARK  status: ('A' for Active; 'I' for Inactive)
REMARK    1  A    between atoms: CD1_1  and  CG_2
REMARK    2  A    between atoms: CG_2  and  CD2_3
REMARK    3  A    between atoms: CG_2  and  CB_4
REMARK    4  A    between atoms: CB_4  and  CA_5
REMARK    5  A    between atoms: C_9  and  C_10
REMARK    6  A    between atoms: N_21  and  C_22
REMARK    7  A    between atoms: C_22  and  C_23
REMARK    8  A    between atoms: C_22  and  C_30
REMARK    9  A    between atoms: N_25  and  C_26
REMARK   10  A    between atoms: C_26  and  C_27
REMARK   11  A    between atoms: C_26  and  C_28
REMARK   12  A    between atoms: C_26  and  C_29
REMARK                            x       y       z     vdW  Elec       q    Type
REMARK                         _______ _______ _______ _____ _____    ______ ____
ROOT
ATOM      1  CA  LEU A   2      -5.014   1.633 128.810  0.00  0.00    +0.000 C 
ATOM      2  C   LEU A   2      -4.703   0.654 129.986  0.00  0.00    +0.000 C 
ATOM      3  O   LEU A   2      -3.895   0.826 130.868  0.00  0.00    +0.000 OA
ATOM      4  N   UNK A   1      -5.481  -0.467 129.937  0.00  0.00    +0.000 N 
ATOM      5  C   UNK A   1      -6.834  -0.188 129.570  0.00  0.00    +0.000 C 
ATOM      6  C   UNK A   1      -6.885   0.302 128.120  0.00  0.00    +0.000 C 
ATOM      7  O   UNK A   1      -7.932   0.064 127.498  0.00  0.00    +0.000 OA
ATOM      8  N   LEU A   2      -5.793   1.031 127.661  0.00  0.00    +0.000 N 
ATOM      9  H   UNK A   1      -5.262  -1.156 130.649  0.00  0.00    +0.000 HD
ENDROOT
BRANCH   5  10
ATOM     10  C   UNK A   1      -7.769  -1.391 129.656  0.00  0.00    +0.000 C 
ATOM     11  C   UNK A   1      -8.182  -1.752 131.085  0.00  0.00    +0.000 C 
ATOM     12  C   UNK A   1      -7.204  -2.833 131.416  0.00  0.00    +0.000 A 
ATOM     13  C   UNK A   1      -6.890  -3.335 132.664  0.00  0.00    +0.000 A 
ATOM     14  C   UNK A   1      -5.916  -4.333 132.748  0.00  0.00    +0.000 A 
ATOM     15  C   UNK A   1      -5.278  -4.816 131.595  0.00  0.00    +0.000 A 
ATOM     16  C   UNK A   1      -5.610  -4.313 130.338  0.00  0.00    +0.000 A 
ATOM     17  C   UNK A   1      -6.581  -3.330 130.267  0.00  0.00    +0.000 A 
ATOM     18  C   UNK A   1      -7.103  -2.653 129.044  0.00  0.00    +0.000 C 
ENDBRANCH   5  10
BRANCH   1  19
ATOM     19  CB  LEU A   2      -3.683   2.131 128.414  0.00  0.00    +0.000 C 
BRANCH  19  21
ATOM     20  CD1 LEU A   2      -2.706   4.023 127.656  0.00  0.00    +0.000 C 
ATOM     21  CG  LEU A   2      -3.587   3.602 128.760  0.00  0.00    +0.000 C 
ATOM     22  CD2 LEU A   2      -4.647   4.718 128.753  0.00  0.00    +0.000 C 
ENDBRANCH  19  21
ENDBRANCH   1  19
BRANCH   8  23
ATOM     23  C   UNK A   0      -5.594   1.407 126.143  0.00  0.00    +0.000 C 
BRANCH  23  24
ATOM     24  C   UNK A   0      -6.156   2.823 125.856  0.00  0.00    +0.000 A 
ATOM     25  C   UNK A   0      -5.592   3.849 125.018  0.00  0.00    +0.000 A 
ATOM     26  C   UNK A   0      -6.246   5.021 125.332  0.00  0.00    +0.000 A 
ATOM     27  O   UNK A   0      -7.280   4.779 126.165  0.00  0.00    +0.000 OA
ATOM     28  C   UNK A   0      -7.230   3.462 126.464  0.00  0.00    +0.000 A 
ENDBRANCH  23  24
BRANCH  23  29
ATOM     29  C   UNK A   0      -6.226   0.384 124.987  0.00  0.00    +0.000 C 
ATOM     30  O   UNK A   0      -7.240   0.668 124.335  0.00  0.00    +0.000 OA
ATOM     31  N   UNK A   0      -5.660  -0.883 124.793  0.00  0.00    +0.000 N 
ATOM     32  H   UNK A   0      -4.694  -0.928 125.083  0.00  0.00    +0.000 HD
BRANCH  31  33
ATOM     33  C   UNK A   0      -6.350  -2.129 124.055  0.00  0.00    +0.000 C 
ATOM     34  C   UNK A   0      -6.405  -1.843 122.523  0.00  0.00    +0.000 C 
ATOM     35  C   UNK A   0      -5.417  -3.225 124.487  0.00  0.00    +0.000 C 
ATOM     36  C   UNK A   0      -7.859  -2.867 124.508  0.00  0.00    +0.000 C 
ENDBRANCH  31  33
ENDBRANCH  23  29
ENDBRANCH   8  23
TORSDOF 7
ENDMDL
MODEL 9
REMARK VINA RESULT:      -7.8      3.242      7.984
REMARK  Name = CHEMBL271456
REMARK  12 active torsions:
REMARK  status: ('A' for Active; 'I' for Inactive)
REMARK    1  A    between atoms: CD1_1  and  CG_2
REMARK    2  A    between atoms: CG_2  and  CD2_3
REMARK    3  A    between atoms: CG_2  and  CB_4
REMARK    4  A    between atoms: CB_4  and  CA_5
REMARK    5  A    between atoms: C_9  and  C_10
REMARK    6  A    between atoms: N_21  and  C_22
REMARK    7  A    between atoms: C_22  and  C_23
REMARK    8  A    between atoms: C_22  and  C_30
REMARK    9  A    between atoms: N_25  and  C_26
REMARK   10  A    between atoms: C_26  and  C_27
REMARK   11  A    between atoms: C_26  and  C_28
REMARK   12  A    between atoms: C_26  and  C_29
REMARK                            x       y       z     vdW  Elec       q    Type
REMARK                         _______ _______ _______ _____ _____    ______ ____
ROOT
ATOM      1  CA  LEU A   2      -5.272   3.096 126.703  0.00  0.00    +0.000 C 
ATOM      2  C   LEU A   2      -5.986   2.834 125.338  0.00  0.00    +0.000 C 
ATOM      3  O   LEU A   2      -5.546   3.080 124.240  0.00  0.00    +0.000 OA
ATOM      4  N   UNK A   1      -7.210   2.252 125.505  0.00  0.00    +0.000 N 
ATOM      5  C   UNK A   1      -7.213   1.251 126.526  0.00  0.00    +0.000 C 
ATOM      6  C   UNK A   1      -6.979   1.903 127.891  0.00  0.00    +0.000 C 
ATOM      7  O   UNK A   1      -7.478   1.325 128.868  0.00  0.00    +0.000 OA
ATOM      8  N   LEU A   2      -6.168   3.034 127.920  0.00  0.00    +0.000 N 
ATOM      9  H   UNK A   1      -7.730   2.125 124.644  0.00  0.00    +0.000 HD
ENDROOT
BRANCH   5  10
ATOM     10  C   UNK A   1      -8.520   0.470 126.635  0.00  0.00    +0.000 C 
ATOM     11  C   UNK A   1      -8.330  -1.011 126.969  0.00  0.00    +0.000 C 
ATOM     12  C   UNK A   1      -8.388  -1.636 125.612  0.00  0.00    +0.000 A 
ATOM     13  C   UNK A   1      -7.981  -2.904 125.247  0.00  0.00    +0.000 A 
ATOM     14  C   UNK A   1      -8.099  -3.275 123.906  0.00  0.00    +0.000 A 
ATOM     15  C   UNK A   1      -8.622  -2.384 122.955  0.00  0.00    +0.000 A 
ATOM     16  C   UNK A   1      -9.043  -1.110 123.334  0.00  0.00    +0.000 A 
ATOM     17  C   UNK A   1      -8.927  -0.757 124.667  0.00  0.00    +0.000 A 
ATOM     18  C   UNK A   1      -9.315   0.536 125.303  0.00  0.00    +0.000 C 
ENDBRANCH   5  10
BRANCH   1  19
ATOM     19  CB  LEU A   2      -4.638   4.414 126.512  0.00  0.00    +0.000 C 
BRANCH  19  21
ATOM     20  CD1 LEU A   2      -2.957   5.174 127.817  0.00  0.00    +0.000 C 
ATOM     21  CG  LEU A   2      -3.140   4.266 126.671  0.00  0.00    +0.000 C 
ATOM     22  CD2 LEU A   2      -2.277   3.062 127.088  0.00  0.00    +0.000 C 
ENDBRANCH  19  21
ENDBRANCH   1  19
BRANCH   8  23
ATOM     23  C   UNK A   0      -6.015   3.943 129.198  0.00  0.00    +0.000 C 
BRANCH  23  24
ATOM     24  C   UNK A   0      -5.196   3.210 130.291  0.00  0.00    +0.000 A 
ATOM     25  C   UNK A   0      -4.295   2.098 130.129  0.00  0.00    +0.000 A 
ATOM     26  C   UNK A   0      -4.071   1.584 131.387  0.00  0.00    +0.000 A 
ATOM     27  O   UNK A   0      -4.615   2.382 132.330  0.00  0.00    +0.000 OA
ATOM     28  C   UNK A   0      -5.274   3.359 131.670  0.00  0.00    +0.000 A 
ENDBRANCH  23  24
BRANCH  23  29
ATOM     29  C   UNK A   0      -7.401   4.520 129.926  0.00  0.00    +0.000 C 
ATOM     30  O   UNK A   0      -7.561   5.720 130.188  0.00  0.00    +0.000 OA
ATOM     31  N   UNK A   0      -8.393   3.623 130.346  0.00  0.00    +0.000 N 
ATOM     32  H   UNK A   0      -8.373   2.753 129.836  0.00  0.00    +0.000 HD
BRANCH  31  33
ATOM     33  C   UNK A   0      -9.563   3.926 131.401  0.00  0.00    +0.000 C 
ATOM     34  C   UNK A   0     -10.749   4.612 130.657  0.00  0.00    +0.000 C 
ATOM     35  C   UNK A   0      -9.816   2.533 131.902  0.00  0.00    +0.000 C 
ATOM     36  C   UNK A   0      -9.365   4.731 132.931  0.00  0.00    +0.000 C 
ENDBRANCH  31  33
ENDBRANCH  23  29
ENDBRANCH   8  23
TORSDOF 7
ENDMDL
