MODEL 1
REMARK VINA RESULT:      -9.3      0.000      0.000
REMARK  Name = CHEMBL371008
REMARK  13 active torsions:
REMARK  status: ('A' for Active; 'I' for Inactive)
REMARK    1  A    between atoms: C_1  and  C_2
REMARK    2  A    between atoms: N_4  and  C_5
REMARK    3  A    between atoms: C_8  and  C_9
REMARK    4  A    between atoms: C_9  and  C_10
REMARK    5  A    between atoms: C_9  and  N_16
REMARK    6  A    between atoms: N_12  and  C_13
REMARK    7  A    between atoms: C_13  and  C_14
REMARK    8  A    between atoms: C_13  and  C_15
REMARK    9  A    between atoms: C_19  and  C_20
REMARK   10  A    between atoms: CA_32  and  CB_33
REMARK   11  A    between atoms: CB_33  and  CG_34
REMARK   12  A    between atoms: CG_34  and  CD1_35
REMARK   13  A    between atoms: CG_34  and  CD2_36
REMARK                            x       y       z     vdW  Elec       q    Type
REMARK                         _______ _______ _______ _____ _____    ______ ____
ROOT
ATOM      1  N   LEU A   1      -6.843   3.047 128.135  0.00  0.00    +0.000 N 
ATOM      2  C   UNK A   2      -7.709   4.126 128.388  0.00  0.00    +0.000 C 
ATOM      3  O   UNK A   2      -7.853   4.958 127.513  0.00  0.00    +0.000 OA
ATOM      4  C   UNK A   2      -8.400   4.194 129.867  0.00  0.00    +0.000 C 
ATOM      5  N   UNK A   2      -8.840   2.830 130.112  0.00  0.00    +0.000 N 
ATOM      6  C   LEU A   1      -7.952   1.787 129.973  0.00  0.00    +0.000 C 
ATOM      7  O   LEU A   1      -8.226   0.691 130.396  0.00  0.00    +0.000 OA
ATOM      8  CA  LEU A   1      -6.601   2.214 129.335  0.00  0.00    +0.000 C 
ATOM      9  H   UNK A   2      -9.697   2.581 130.590  0.00  0.00    +0.000 HD
ENDROOT
BRANCH   4  10
ATOM     10  C   UNK A   2      -9.580   5.174 129.851  0.00  0.00    +0.000 C 
ATOM     11  C   UNK A   2      -9.387   6.196 130.916  0.00  0.00    +0.000 C 
ATOM     12  C   UNK A   2     -10.588   7.016 130.581  0.00  0.00    +0.000 A 
ATOM     13  C   UNK A   2     -11.074   7.483 129.325  0.00  0.00    +0.000 A 
ATOM     14  C   UNK A   2     -12.281   8.162 129.270  0.00  0.00    +0.000 A 
ATOM     15  C   UNK A   2     -12.894   8.290 130.474  0.00  0.00    +0.000 A 
ATOM     16  C   UNK A   2     -12.525   7.313 131.434  0.00  0.00    +0.000 A 
ATOM     17  C   UNK A   2     -11.564   6.319 131.177  0.00  0.00    +0.000 A 
ATOM     18  C   UNK A   2     -11.187   4.929 130.245  0.00  0.00    +0.000 C 
ENDBRANCH   4  10
BRANCH   1  19
ATOM     19  C   UNK A   0      -6.052   3.138 126.775  0.00  0.00    +0.000 C 
BRANCH  19  23
ATOM     20  C   UNK A   0      -6.841  -0.296 123.950  0.00  0.00    +0.000 A 
ATOM     21  C   UNK A   0      -7.088   1.063 123.552  0.00  0.00    +0.000 A 
ATOM     22  C   UNK A   0      -6.643   2.194 124.358  0.00  0.00    +0.000 A 
ATOM     23  C   UNK A   0      -6.091   2.004 125.654  0.00  0.00    +0.000 A 
ATOM     24  C   UNK A   0      -5.733   0.661 125.957  0.00  0.00    +0.000 A 
ATOM     25  C   UNK A   0      -6.094  -0.452 125.132  0.00  0.00    +0.000 A 
BRANCH  20  29
ATOM     26  C   UNK A   0      -9.355  -3.170 123.376  0.00  0.00    +0.000 C 
ATOM     27  C   UNK A   0      -8.867  -1.872 123.984  0.00  0.00    +0.000 C 
ATOM     28  O   UNK A   0      -9.527  -1.384 124.893  0.00  0.00    +0.000 OA
ATOM     29  N   UNK A   0      -7.659  -1.385 123.431  0.00  0.00    +0.000 N 
ATOM     30  H   UNK A   0      -7.476  -1.675 122.478  0.00  0.00    +0.000 HD
ENDBRANCH  20  29
ENDBRANCH  19  23
BRANCH  19  31
ATOM     31  C   UNK A   0      -4.562   3.555 127.135  0.00  0.00    +0.000 C 
ATOM     32  O   UNK A   0      -3.588   2.917 126.727  0.00  0.00    +0.000 OA
ATOM     33  N   UNK A   0      -4.423   4.713 127.901  0.00  0.00    +0.000 N 
ATOM     34  H   UNK A   0      -5.249   5.123 128.317  0.00  0.00    +0.000 HD
BRANCH  33  35
ATOM     35  C   UNK A   0      -3.112   5.254 128.276  0.00  0.00    +0.000 C 
ATOM     36  C   UNK A   0      -3.063   6.761 128.019  0.00  0.00    +0.000 C 
ATOM     37  C   UNK A   0      -2.801   4.998 129.755  0.00  0.00    +0.000 C 
ENDBRANCH  33  35
ENDBRANCH  19  31
ENDBRANCH   1  19
BRANCH   8  38
ATOM     38  CB  LEU A   1      -5.916   0.939 129.037  0.00  0.00    +0.000 C 
BRANCH  38  39
ATOM     39  CG  LEU A   1      -4.547   0.986 129.672  0.00  0.00    +0.000 C 
ATOM     40  CD1 LEU A   1      -4.358   1.852 130.862  0.00  0.00    +0.000 C 
ATOM     41  CD2 LEU A   1      -4.310  -0.353 130.232  0.00  0.00    +0.000 C 
ENDBRANCH  38  39
ENDBRANCH   8  38
TORSDOF 8
ENDMDL
MODEL 2
REMARK VINA RESULT:      -9.3      3.211      4.460
REMARK  Name = CHEMBL371008
REMARK  13 active torsions:
REMARK  status: ('A' for Active; 'I' for Inactive)
REMARK    1  A    between atoms: C_1  and  C_2
REMARK    2  A    between atoms: N_4  and  C_5
REMARK    3  A    between atoms: C_8  and  C_9
REMARK    4  A    between atoms: C_9  and  C_10
REMARK    5  A    between atoms: C_9  and  N_16
REMARK    6  A    between atoms: N_12  and  C_13
REMARK    7  A    between atoms: C_13  and  C_14
REMARK    8  A    between atoms: C_13  and  C_15
REMARK    9  A    between atoms: C_19  and  C_20
REMARK   10  A    between atoms: CA_32  and  CB_33
REMARK   11  A    between atoms: CB_33  and  CG_34
REMARK   12  A    between atoms: CG_34  and  CD1_35
REMARK   13  A    between atoms: CG_34  and  CD2_36
REMARK                            x       y       z     vdW  Elec       q    Type
REMARK                         _______ _______ _______ _____ _____    ______ ____
ROOT
ATOM      1  N   LEU A   1      -8.154   3.527 130.857  0.00  0.00    +0.000 N 
ATOM      2  C   UNK A   2      -8.980   4.443 130.181  0.00  0.00    +0.000 C 
ATOM      3  O   UNK A   2      -9.160   4.276 128.989  0.00  0.00    +0.000 OA
ATOM      4  C   UNK A   2      -9.579   5.688 131.053  0.00  0.00    +0.000 C 
ATOM      5  N   UNK A   2     -10.031   5.068 132.286  0.00  0.00    +0.000 N 
ATOM      6  C   LEU A   1      -9.175   4.263 133.005  0.00  0.00    +0.000 C 
ATOM      7  O   LEU A   1      -9.446   3.937 134.134  0.00  0.00    +0.000 OA
ATOM      8  CA  LEU A   1      -7.857   3.943 132.247  0.00  0.00    +0.000 C 
ATOM      9  H   UNK A   2     -10.862   5.342 132.795  0.00  0.00    +0.000 HD
ENDROOT
BRANCH   4  10
ATOM     10  C   UNK A   2     -10.737   6.350 130.295  0.00  0.00    +0.000 C 
ATOM     11  C   UNK A   2     -10.235   7.557 129.582  0.00  0.00    +0.000 C 
ATOM     12  C   UNK A   2     -11.516   7.891 128.894  0.00  0.00    +0.000 A 
ATOM     13  C   UNK A   2     -12.433   7.062 128.184  0.00  0.00    +0.000 A 
ATOM     14  C   UNK A   2     -13.615   7.605 127.706  0.00  0.00    +0.000 A 
ATOM     15  C   UNK A   2     -13.774   8.920 128.003  0.00  0.00    +0.000 A 
ATOM     16  C   UNK A   2     -13.045   9.364 129.136  0.00  0.00    +0.000 A 
ATOM     17  C   UNK A   2     -12.186   8.523 129.866  0.00  0.00    +0.000 A 
ATOM     18  C   UNK A   2     -12.090   7.141 130.877  0.00  0.00    +0.000 C 
ENDBRANCH   4  10
BRANCH   1  19
ATOM     19  C   UNK A   0      -7.445   2.467 129.931  0.00  0.00    +0.000 C 
BRANCH  19  23
ATOM     20  C   UNK A   0      -7.741  -2.036 130.091  0.00  0.00    +0.000 A 
ATOM     21  C   UNK A   0      -8.254  -1.221 131.159  0.00  0.00    +0.000 A 
ATOM     22  C   UNK A   0      -8.364   0.228 131.036  0.00  0.00    +0.000 A 
ATOM     23  C   UNK A   0      -7.819   0.917 129.918  0.00  0.00    +0.000 A 
ATOM     24  C   UNK A   0      -7.450   0.083 128.827  0.00  0.00    +0.000 A 
ATOM     25  C   UNK A   0      -7.415  -1.346 128.909  0.00  0.00    +0.000 A 
BRANCH  20  29
ATOM     26  C   UNK A   0      -5.536  -5.130 130.778  0.00  0.00    +0.000 C 
ATOM     27  C   UNK A   0      -5.900  -3.662 130.837  0.00  0.00    +0.000 C 
ATOM     28  O   UNK A   0      -5.056  -2.881 131.257  0.00  0.00    +0.000 OA
ATOM     29  N   UNK A   0      -7.199  -3.362 130.360  0.00  0.00    +0.000 N 
ATOM     30  H   UNK A   0      -7.866  -4.120 130.427  0.00  0.00    +0.000 HD
ENDBRANCH  20  29
ENDBRANCH  19  23
BRANCH  19  31
ATOM     31  C   UNK A   0      -5.879   2.691 130.090  0.00  0.00    +0.000 C 
ATOM     32  O   UNK A   0      -5.136   1.815 130.540  0.00  0.00    +0.000 OA
ATOM     33  N   UNK A   0      -5.392   3.919 129.643  0.00  0.00    +0.000 N 
ATOM     34  H   UNK A   0      -6.054   4.647 129.404  0.00  0.00    +0.000 HD
BRANCH  33  35
ATOM     35  C   UNK A   0      -3.966   4.259 129.677  0.00  0.00    +0.000 C 
ATOM     36  C   UNK A   0      -3.310   3.947 128.332  0.00  0.00    +0.000 C 
ATOM     37  C   UNK A   0      -3.749   5.742 129.998  0.00  0.00    +0.000 C 
ENDBRANCH  33  35
ENDBRANCH  19  31
ENDBRANCH   1  19
BRANCH   8  38
ATOM     38  CB  LEU A   1      -7.217   2.883 133.054  0.00  0.00    +0.000 C 
BRANCH  38  39
ATOM     39  CG  LEU A   1      -5.900   3.416 133.564  0.00  0.00    +0.000 C 
ATOM     40  CD1 LEU A   1      -5.525   4.807 133.210  0.00  0.00    +0.000 C 
ATOM     41  CD2 LEU A   1      -6.032   3.501 135.026  0.00  0.00    +0.000 C 
ENDBRANCH  38  39
ENDBRANCH   8  38
TORSDOF 8
ENDMDL
MODEL 3
REMARK VINA RESULT:      -9.1      1.545      1.997
REMARK  Name = CHEMBL371008
REMARK  13 active torsions:
REMARK  status: ('A' for Active; 'I' for Inactive)
REMARK    1  A    between atoms: C_1  and  C_2
REMARK    2  A    between atoms: N_4  and  C_5
REMARK    3  A    between atoms: C_8  and  C_9
REMARK    4  A    between atoms: C_9  and  C_10
REMARK    5  A    between atoms: C_9  and  N_16
REMARK    6  A    between atoms: N_12  and  C_13
REMARK    7  A    between atoms: C_13  and  C_14
REMARK    8  A    between atoms: C_13  and  C_15
REMARK    9  A    between atoms: C_19  and  C_20
REMARK   10  A    between atoms: CA_32  and  CB_33
REMARK   11  A    between atoms: CB_33  and  CG_34
REMARK   12  A    between atoms: CG_34  and  CD1_35
REMARK   13  A    between atoms: CG_34  and  CD2_36
REMARK                            x       y       z     vdW  Elec       q    Type
REMARK                         _______ _______ _______ _____ _____    ______ ____
ROOT
ATOM      1  N   LEU A   1      -7.711   2.986 129.420  0.00  0.00    +0.000 N 
ATOM      2  C   UNK A   2      -8.459   4.147 129.153  0.00  0.00    +0.000 C 
ATOM      3  O   UNK A   2      -8.365   4.644 128.047  0.00  0.00    +0.000 OA
ATOM      4  C   UNK A   2      -9.346   4.759 130.381  0.00  0.00    +0.000 C 
ATOM      5  N   UNK A   2      -9.989   3.593 130.965  0.00  0.00    +0.000 N 
ATOM      6  C   LEU A   1      -9.232   2.503 131.331  0.00  0.00    +0.000 C 
ATOM      7  O   LEU A   1      -9.703   1.637 132.025  0.00  0.00    +0.000 OA
ATOM      8  CA  LEU A   1      -7.757   2.592 130.846  0.00  0.00    +0.000 C 
ATOM      9  H   UNK A   2     -10.931   3.583 131.334  0.00  0.00    +0.000 HD
ENDROOT
BRANCH   4  10
ATOM     10  C   UNK A   2     -10.375   5.758 129.837  0.00  0.00    +0.000 C 
ATOM     11  C   UNK A   2      -9.903   7.146 130.102  0.00  0.00    +0.000 C 
ATOM     12  C   UNK A   2     -11.017   7.840 129.394  0.00  0.00    +0.000 A 
ATOM     13  C   UNK A   2     -11.605   7.595 128.118  0.00  0.00    +0.000 A 
ATOM     14  C   UNK A   2     -12.706   8.336 127.718  0.00  0.00    +0.000 A 
ATOM     15  C   UNK A   2     -13.125   9.237 128.644  0.00  0.00    +0.000 A 
ATOM     16  C   UNK A   2     -12.762   8.926 129.979  0.00  0.00    +0.000 A 
ATOM     17  C   UNK A   2     -11.987   7.803 130.317  0.00  0.00    +0.000 A 
ATOM     18  C   UNK A   2     -11.931   6.089 130.355  0.00  0.00    +0.000 C 
ENDBRANCH   4  10
BRANCH   1  19
ATOM     19  C   UNK A   0      -6.723   2.557 128.270  0.00  0.00    +0.000 C 
BRANCH  19  23
ATOM     20  C   UNK A   0      -7.123  -1.382 126.098  0.00  0.00    +0.000 A 
ATOM     21  C   UNK A   0      -6.048  -0.476 125.798  0.00  0.00    +0.000 A 
ATOM     22  C   UNK A   0      -5.773   0.692 126.625  0.00  0.00    +0.000 A 
ATOM     23  C   UNK A   0      -6.656   1.080 127.671  0.00  0.00    +0.000 A 
ATOM     24  C   UNK A   0      -7.619   0.099 128.031  0.00  0.00    +0.000 A 
ATOM     25  C   UNK A   0      -7.845  -1.095 127.271  0.00  0.00    +0.000 A 
BRANCH  20  29
ATOM     26  C   UNK A   0      -9.322  -3.151 123.462  0.00  0.00    +0.000 C 
ATOM     27  C   UNK A   0      -8.829  -1.970 124.272  0.00  0.00    +0.000 C 
ATOM     28  O   UNK A   0      -9.458  -0.923 124.195  0.00  0.00    +0.000 OA
ATOM     29  N   UNK A   0      -7.686  -2.240 125.063  0.00  0.00    +0.000 N 
ATOM     30  H   UNK A   0      -7.094  -2.986 124.720  0.00  0.00    +0.000 HD
ENDBRANCH  20  29
ENDBRANCH  19  23
BRANCH  19  31
ATOM     31  C   UNK A   0      -5.282   3.090 128.677  0.00  0.00    +0.000 C 
ATOM     32  O   UNK A   0      -4.511   2.424 129.373  0.00  0.00    +0.000 OA
ATOM     33  N   UNK A   0      -4.926   4.335 128.159  0.00  0.00    +0.000 N 
ATOM     34  H   UNK A   0      -5.637   4.894 127.705  0.00  0.00    +0.000 HD
BRANCH  33  35
ATOM     35  C   UNK A   0      -3.613   4.942 128.404  0.00  0.00    +0.000 C 
ATOM     36  C   UNK A   0      -2.578   4.391 127.423  0.00  0.00    +0.000 C 
ATOM     37  C   UNK A   0      -3.664   6.467 128.259  0.00  0.00    +0.000 C 
ENDBRANCH  33  35
ENDBRANCH  19  31
ENDBRANCH   1  19
BRANCH   8  38
ATOM     38  CB  LEU A   1      -7.205   1.245 131.102  0.00  0.00    +0.000 C 
BRANCH  38  39
ATOM     39  CG  LEU A   1      -6.120   1.376 132.144  0.00  0.00    +0.000 C 
ATOM     40  CD1 LEU A   1      -6.519   1.371 133.573  0.00  0.00    +0.000 C 
ATOM     41  CD2 LEU A   1      -5.313   0.152 132.051  0.00  0.00    +0.000 C 
ENDBRANCH  38  39
ENDBRANCH   8  38
TORSDOF 8
ENDMDL
MODEL 4
REMARK VINA RESULT:      -9.0      2.232      6.378
REMARK  Name = CHEMBL371008
REMARK  13 active torsions:
REMARK  status: ('A' for Active; 'I' for Inactive)
REMARK    1  A    between atoms: C_1  and  C_2
REMARK    2  A    between atoms: N_4  and  C_5
REMARK    3  A    between atoms: C_8  and  C_9
REMARK    4  A    between atoms: C_9  and  C_10
REMARK    5  A    between atoms: C_9  and  N_16
REMARK    6  A    between atoms: N_12  and  C_13
REMARK    7  A    between atoms: C_13  and  C_14
REMARK    8  A    between atoms: C_13  and  C_15
REMARK    9  A    between atoms: C_19  and  C_20
REMARK   10  A    between atoms: CA_32  and  CB_33
REMARK   11  A    between atoms: CB_33  and  CG_34
REMARK   12  A    between atoms: CG_34  and  CD1_35
REMARK   13  A    between atoms: CG_34  and  CD2_36
REMARK                            x       y       z     vdW  Elec       q    Type
REMARK                         _______ _______ _______ _____ _____    ______ ____
ROOT
ATOM      1  N   LEU A   1      -5.534   4.044 128.152  0.00  0.00    +0.000 N 
ATOM      2  C   UNK A   2      -4.937   4.798 129.179  0.00  0.00    +0.000 C 
ATOM      3  O   UNK A   2      -5.440   4.752 130.286  0.00  0.00    +0.000 OA
ATOM      4  C   UNK A   2      -3.650   5.719 128.773  0.00  0.00    +0.000 C 
ATOM      5  N   UNK A   2      -2.840   4.843 127.944  0.00  0.00    +0.000 N 
ATOM      6  C   LEU A   1      -3.407   4.197 126.868  0.00  0.00    +0.000 C 
ATOM      7  O   LEU A   1      -2.711   3.664 126.039  0.00  0.00    +0.000 OA
ATOM      8  CA  LEU A   1      -4.955   4.332 126.821  0.00  0.00    +0.000 C 
ATOM      9  H   UNK A   2      -1.827   4.824 127.949  0.00  0.00    +0.000 HD
ENDROOT
BRANCH   4  10
ATOM     10  C   UNK A   2      -2.898   6.156 130.037  0.00  0.00    +0.000 C 
ATOM     11  C   UNK A   2      -2.583   4.957 130.862  0.00  0.00    +0.000 C 
ATOM     12  C   UNK A   2      -1.800   5.675 131.909  0.00  0.00    +0.000 A 
ATOM     13  C   UNK A   2      -0.776   6.661 131.793  0.00  0.00    +0.000 A 
ATOM     14  C   UNK A   2      -0.260   7.248 132.936  0.00  0.00    +0.000 A 
ATOM     15  C   UNK A   2      -0.833   6.807 134.086  0.00  0.00    +0.000 A 
ATOM     16  C   UNK A   2      -2.140   6.279 133.931  0.00  0.00    +0.000 A 
ATOM     17  C   UNK A   2      -2.775   6.172 132.681  0.00  0.00    +0.000 A 
ATOM     18  C   UNK A   2      -3.430   7.039 131.354  0.00  0.00    +0.000 C 
ENDBRANCH   4  10
BRANCH   1  19
ATOM     19  C   UNK A   0      -6.885   3.336 128.551  0.00  0.00    +0.000 C 
BRANCH  19  23
ATOM     20  C   UNK A   0      -8.072  -0.324 126.188  0.00  0.00    +0.000 A 
ATOM     21  C   UNK A   0      -6.787  -0.240 126.827  0.00  0.00    +0.000 A 
ATOM     22  C   UNK A   0      -6.464   0.828 127.766  0.00  0.00    +0.000 A 
ATOM     23  C   UNK A   0      -7.346   1.925 127.968  0.00  0.00    +0.000 A 
ATOM     24  C   UNK A   0      -8.653   1.743 127.437  0.00  0.00    +0.000 A 
ATOM     25  C   UNK A   0      -9.006   0.653 126.577  0.00  0.00    +0.000 A 
BRANCH  20  29
ATOM     26  C   UNK A   0      -8.815  -2.917 123.424  0.00  0.00    +0.000 C 
ATOM     27  C   UNK A   0      -9.039  -2.217 124.749  0.00  0.00    +0.000 C 
ATOM     28  O   UNK A   0      -9.850  -2.708 125.523  0.00  0.00    +0.000 OA
ATOM     29  N   UNK A   0      -8.238  -1.067 124.945  0.00  0.00    +0.000 N 
ATOM     30  H   UNK A   0      -7.939  -0.603 124.096  0.00  0.00    +0.000 HD
ENDBRANCH  20  29
ENDBRANCH  19  23
BRANCH  19  31
ATOM     31  C   UNK A   0      -8.033   4.427 128.420  0.00  0.00    +0.000 C 
ATOM     32  O   UNK A   0      -8.359   4.907 127.331  0.00  0.00    +0.000 OA
ATOM     33  N   UNK A   0      -8.680   4.772 129.607  0.00  0.00    +0.000 N 
ATOM     34  H   UNK A   0      -8.292   4.451 130.484  0.00  0.00    +0.000 HD
BRANCH  33  35
ATOM     35  C   UNK A   0      -9.792   5.728 129.646  0.00  0.00    +0.000 C 
ATOM     36  C   UNK A   0     -10.980   5.135 130.403  0.00  0.00    +0.000 C 
ATOM     37  C   UNK A   0      -9.382   7.040 130.325  0.00  0.00    +0.000 C 
ENDBRANCH  33  35
ENDBRANCH  19  31
ENDBRANCH   1  19
BRANCH   8  38
ATOM     38  CB  LEU A   1      -5.374   3.373 125.777  0.00  0.00    +0.000 C 
BRANCH  38  39
ATOM     39  CG  LEU A   1      -6.128   4.140 124.716  0.00  0.00    +0.000 C 
ATOM     40  CD1 LEU A   1      -5.478   4.327 123.395  0.00  0.00    +0.000 C 
ATOM     41  CD2 LEU A   1      -7.294   3.316 124.366  0.00  0.00    +0.000 C 
ENDBRANCH  38  39
ENDBRANCH   8  38
TORSDOF 8
ENDMDL
MODEL 5
REMARK VINA RESULT:      -8.5      2.764      4.283
REMARK  Name = CHEMBL371008
REMARK  13 active torsions:
REMARK  status: ('A' for Active; 'I' for Inactive)
REMARK    1  A    between atoms: C_1  and  C_2
REMARK    2  A    between atoms: N_4  and  C_5
REMARK    3  A    between atoms: C_8  and  C_9
REMARK    4  A    between atoms: C_9  and  C_10
REMARK    5  A    between atoms: C_9  and  N_16
REMARK    6  A    between atoms: N_12  and  C_13
REMARK    7  A    between atoms: C_13  and  C_14
REMARK    8  A    between atoms: C_13  and  C_15
REMARK    9  A    between atoms: C_19  and  C_20
REMARK   10  A    between atoms: CA_32  and  CB_33
REMARK   11  A    between atoms: CB_33  and  CG_34
REMARK   12  A    between atoms: CG_34  and  CD1_35
REMARK   13  A    between atoms: CG_34  and  CD2_36
REMARK                            x       y       z     vdW  Elec       q    Type
REMARK                         _______ _______ _______ _____ _____    ______ ____
ROOT
ATOM      1  N   LEU A   1      -7.585   1.601 129.890  0.00  0.00    +0.000 N 
ATOM      2  C   UNK A   2      -8.300   2.775 129.588  0.00  0.00    +0.000 C 
ATOM      3  O   UNK A   2      -8.841   2.848 128.501  0.00  0.00    +0.000 OA
ATOM      4  C   UNK A   2      -8.287   3.962 130.710  0.00  0.00    +0.000 C 
ATOM      5  N   UNK A   2      -8.523   3.263 131.963  0.00  0.00    +0.000 N 
ATOM      6  C   LEU A   1      -7.740   2.183 132.305  0.00  0.00    +0.000 C 
ATOM      7  O   LEU A   1      -7.761   1.745 133.429  0.00  0.00    +0.000 OA
ATOM      8  CA  LEU A   1      -6.815   1.708 131.150  0.00  0.00    +0.000 C 
ATOM      9  H   UNK A   2      -9.079   3.628 132.727  0.00  0.00    +0.000 HD
ENDROOT
BRANCH   4  10
ATOM     10  C   UNK A   2      -9.397   4.977 130.412  0.00  0.00    +0.000 C 
ATOM     11  C   UNK A   2      -9.416   6.016 131.479  0.00  0.00    +0.000 C 
ATOM     12  C   UNK A   2     -10.479   6.865 130.869  0.00  0.00    +0.000 A 
ATOM     13  C   UNK A   2     -10.651   7.320 129.528  0.00  0.00    +0.000 A 
ATOM     14  C   UNK A   2     -11.789   8.035 129.190  0.00  0.00    +0.000 A 
ATOM     15  C   UNK A   2     -12.655   8.208 130.221  0.00  0.00    +0.000 A 
ATOM     16  C   UNK A   2     -12.548   7.240 131.253  0.00  0.00    +0.000 A 
ATOM     17  C   UNK A   2     -11.589   6.211 131.236  0.00  0.00    +0.000 A 
ATOM     18  C   UNK A   2     -11.059   4.792 130.434  0.00  0.00    +0.000 C 
ENDBRANCH   4  10
BRANCH   1  19
ATOM     19  C   UNK A   0      -7.462   0.577 128.699  0.00  0.00    +0.000 C 
BRANCH  19  23
ATOM     20  C   UNK A   0      -6.277  -3.595 129.960  0.00  0.00    +0.000 A 
ATOM     21  C   UNK A   0      -7.643  -3.154 130.047  0.00  0.00    +0.000 A 
ATOM     22  C   UNK A   0      -8.085  -1.899 129.451  0.00  0.00    +0.000 A 
ATOM     23  C   UNK A   0      -7.156  -0.976 128.899  0.00  0.00    +0.000 A 
ATOM     24  C   UNK A   0      -5.847  -1.496 128.701  0.00  0.00    +0.000 A 
ATOM     25  C   UNK A   0      -5.422  -2.765 129.212  0.00  0.00    +0.000 A 
BRANCH  20  29
ATOM     26  C   UNK A   0      -4.625  -5.426 132.931  0.00  0.00    +0.000 C 
ATOM     27  C   UNK A   0      -5.389  -4.303 132.262  0.00  0.00    +0.000 C 
ATOM     28  O   UNK A   0      -5.607  -3.292 132.917  0.00  0.00    +0.000 OA
ATOM     29  N   UNK A   0      -5.742  -4.557 130.915  0.00  0.00    +0.000 N 
ATOM     30  H   UNK A   0      -5.835  -5.536 130.673  0.00  0.00    +0.000 HD
ENDBRANCH  20  29
ENDBRANCH  19  23
BRANCH  19  31
ATOM     31  C   UNK A   0      -6.490   1.232 127.625  0.00  0.00    +0.000 C 
ATOM     32  O   UNK A   0      -6.599   1.002 126.418  0.00  0.00    +0.000 OA
ATOM     33  N   UNK A   0      -5.539   2.119 128.129  0.00  0.00    +0.000 N 
ATOM     34  H   UNK A   0      -5.407   2.174 129.131  0.00  0.00    +0.000 HD
BRANCH  33  35
ATOM     35  C   UNK A   0      -4.601   2.841 127.262  0.00  0.00    +0.000 C 
ATOM     36  C   UNK A   0      -5.124   4.246 126.961  0.00  0.00    +0.000 C 
ATOM     37  C   UNK A   0      -3.217   2.961 127.909  0.00  0.00    +0.000 C 
ENDBRANCH  33  35
ENDBRANCH  19  31
ENDBRANCH   1  19
BRANCH   8  38
ATOM     38  CB  LEU A   1      -6.274   0.416 131.621  0.00  0.00    +0.000 C 
BRANCH  38  39
ATOM     39  CG  LEU A   1      -4.767   0.494 131.568  0.00  0.00    +0.000 C 
ATOM     40  CD1 LEU A   1      -4.143   1.827 131.383  0.00  0.00    +0.000 C 
ATOM     41  CD2 LEU A   1      -4.291   0.121 132.908  0.00  0.00    +0.000 C 
ENDBRANCH  38  39
ENDBRANCH   8  38
TORSDOF 8
ENDMDL
MODEL 6
REMARK VINA RESULT:      -8.5      1.983      7.849
REMARK  Name = CHEMBL371008
REMARK  13 active torsions:
REMARK  status: ('A' for Active; 'I' for Inactive)
REMARK    1  A    between atoms: C_1  and  C_2
REMARK    2  A    between atoms: N_4  and  C_5
REMARK    3  A    between atoms: C_8  and  C_9
REMARK    4  A    between atoms: C_9  and  C_10
REMARK    5  A    between atoms: C_9  and  N_16
REMARK    6  A    between atoms: N_12  and  C_13
REMARK    7  A    between atoms: C_13  and  C_14
REMARK    8  A    between atoms: C_13  and  C_15
REMARK    9  A    between atoms: C_19  and  C_20
REMARK   10  A    between atoms: CA_32  and  CB_33
REMARK   11  A    between atoms: CB_33  and  CG_34
REMARK   12  A    between atoms: CG_34  and  CD1_35
REMARK   13  A    between atoms: CG_34  and  CD2_36
REMARK                            x       y       z     vdW  Elec       q    Type
REMARK                         _______ _______ _______ _____ _____    ______ ____
ROOT
ATOM      1  N   LEU A   1      -6.026   2.661 128.397  0.00  0.00    +0.000 N 
ATOM      2  C   UNK A   2      -6.523   1.483 127.811  0.00  0.00    +0.000 C 
ATOM      3  O   UNK A   2      -7.111   0.695 128.527  0.00  0.00    +0.000 OA
ATOM      4  C   UNK A   2      -6.210   1.252 126.224  0.00  0.00    +0.000 C 
ATOM      5  N   UNK A   2      -6.491   2.544 125.620  0.00  0.00    +0.000 N 
ATOM      6  C   LEU A   1      -5.907   3.682 126.130  0.00  0.00    +0.000 C 
ATOM      7  O   LEU A   1      -5.936   4.715 125.508  0.00  0.00    +0.000 OA
ATOM      8  CA  LEU A   1      -5.168   3.440 127.476  0.00  0.00    +0.000 C 
ATOM      9  H   UNK A   2      -6.916   2.672 124.710  0.00  0.00    +0.000 HD
ENDROOT
BRANCH   4  10
ATOM     10  C   UNK A   2      -7.125   0.156 125.663  0.00  0.00    +0.000 C 
ATOM     11  C   UNK A   2      -6.351  -0.697 124.719  0.00  0.00    +0.000 C 
ATOM     12  C   UNK A   2      -7.441  -1.678 124.446  0.00  0.00    +0.000 A 
ATOM     13  C   UNK A   2      -8.332  -2.349 125.334  0.00  0.00    +0.000 A 
ATOM     14  C   UNK A   2      -9.332  -3.157 124.817  0.00  0.00    +0.000 A 
ATOM     15  C   UNK A   2      -9.357  -3.198 123.460  0.00  0.00    +0.000 A 
ATOM     16  C   UNK A   2      -8.774  -2.073 122.823  0.00  0.00    +0.000 A 
ATOM     17  C   UNK A   2      -8.172  -1.021 123.536  0.00  0.00    +0.000 A 
ATOM     18  C   UNK A   2      -8.436   0.272 124.631  0.00  0.00    +0.000 C 
ENDBRANCH   4  10
BRANCH   1  19
ATOM     19  C   UNK A   0      -6.179   2.736 129.964  0.00  0.00    +0.000 C 
BRANCH  19  23
ATOM     20  C   UNK A   0      -9.173   5.714 131.567  0.00  0.00    +0.000 A 
ATOM     21  C   UNK A   0      -8.912   4.481 132.258  0.00  0.00    +0.000 A 
ATOM     22  C   UNK A   0      -7.805   3.608 131.882  0.00  0.00    +0.000 A 
ATOM     23  C   UNK A   0      -7.034   3.855 130.713  0.00  0.00    +0.000 A 
ATOM     24  C   UNK A   0      -7.222   5.142 130.138  0.00  0.00    +0.000 A 
ATOM     25  C   UNK A   0      -8.255   6.043 130.552  0.00  0.00    +0.000 A 
BRANCH  20  29
ATOM     26  C   UNK A   0     -12.712   7.080 130.849  0.00  0.00    +0.000 C 
ATOM     27  C   UNK A   0     -11.554   6.117 130.696  0.00  0.00    +0.000 C 
ATOM     28  O   UNK A   0     -11.620   5.281 129.804  0.00  0.00    +0.000 OA
ATOM     29  N   UNK A   0     -10.494   6.327 131.610  0.00  0.00    +0.000 N 
ATOM     30  H   UNK A   0     -10.761   6.768 132.482  0.00  0.00    +0.000 HD
ENDBRANCH  20  29
ENDBRANCH  19  23
BRANCH  19  31
ATOM     31  C   UNK A   0      -4.719   2.607 130.577  0.00  0.00    +0.000 C 
ATOM     32  O   UNK A   0      -4.018   1.609 130.389  0.00  0.00    +0.000 OA
ATOM     33  N   UNK A   0      -4.263   3.710 131.299  0.00  0.00    +0.000 N 
ATOM     34  H   UNK A   0      -4.919   4.444 131.532  0.00  0.00    +0.000 HD
BRANCH  33  35
ATOM     35  C   UNK A   0      -2.920   3.764 131.886  0.00  0.00    +0.000 C 
ATOM     36  C   UNK A   0      -2.385   5.196 131.866  0.00  0.00    +0.000 C 
ATOM     37  C   UNK A   0      -2.919   3.259 133.334  0.00  0.00    +0.000 C 
ENDBRANCH  33  35
ENDBRANCH  19  31
ENDBRANCH   1  19
BRANCH   8  38
ATOM     38  CB  LEU A   1      -4.853   4.796 127.971  0.00  0.00    +0.000 C 
BRANCH  38  39
ATOM     39  CG  LEU A   1      -3.431   5.118 127.576  0.00  0.00    +0.000 C 
ATOM     40  CD1 LEU A   1      -2.715   6.170 128.339  0.00  0.00    +0.000 C 
ATOM     41  CD2 LEU A   1      -2.638   3.922 127.893  0.00  0.00    +0.000 C 
ENDBRANCH  38  39
ENDBRANCH   8  38
TORSDOF 8
ENDMDL
MODEL 7
REMARK VINA RESULT:      -8.4      3.505      8.327
REMARK  Name = CHEMBL371008
REMARK  13 active torsions:
REMARK  status: ('A' for Active; 'I' for Inactive)
REMARK    1  A    between atoms: C_1  and  C_2
REMARK    2  A    between atoms: N_4  and  C_5
REMARK    3  A    between atoms: C_8  and  C_9
REMARK    4  A    between atoms: C_9  and  C_10
REMARK    5  A    between atoms: C_9  and  N_16
REMARK    6  A    between atoms: N_12  and  C_13
REMARK    7  A    between atoms: C_13  and  C_14
REMARK    8  A    between atoms: C_13  and  C_15
REMARK    9  A    between atoms: C_19  and  C_20
REMARK   10  A    between atoms: CA_32  and  CB_33
REMARK   11  A    between atoms: CB_33  and  CG_34
REMARK   12  A    between atoms: CG_34  and  CD1_35
REMARK   13  A    between atoms: CG_34  and  CD2_36
REMARK                            x       y       z     vdW  Elec       q    Type
REMARK                         _______ _______ _______ _____ _____    ______ ____
ROOT
ATOM      1  N   LEU A   1      -6.772  -1.625 131.087  0.00  0.00    +0.000 N 
ATOM      2  C   UNK A   2      -7.288  -1.405 129.797  0.00  0.00    +0.000 C 
ATOM      3  O   UNK A   2      -7.338  -0.260 129.391  0.00  0.00    +0.000 OA
ATOM      4  C   UNK A   2      -7.832  -2.713 128.983  0.00  0.00    +0.000 C 
ATOM      5  N   UNK A   2      -6.800  -3.714 129.197  0.00  0.00    +0.000 N 
ATOM      6  C   LEU A   1      -6.381  -4.006 130.476  0.00  0.00    +0.000 C 
ATOM      7  O   LEU A   1      -5.711  -4.985 130.691  0.00  0.00    +0.000 OA
ATOM      8  CA  LEU A   1      -6.942  -3.023 131.542  0.00  0.00    +0.000 C 
ATOM      9  H   UNK A   2      -6.500  -4.386 128.502  0.00  0.00    +0.000 HD
ENDROOT
BRANCH   4  10
ATOM     10  C   UNK A   2      -7.990  -2.375 127.495  0.00  0.00    +0.000 C 
ATOM     11  C   UNK A   2      -9.009  -3.277 126.890  0.00  0.00    +0.000 C 
ATOM     12  C   UNK A   2      -9.005  -2.651 125.535  0.00  0.00    +0.000 A 
ATOM     13  C   UNK A   2      -9.048  -1.281 125.144  0.00  0.00    +0.000 A 
ATOM     14  C   UNK A   2      -8.940  -0.950 123.803  0.00  0.00    +0.000 A 
ATOM     15  C   UNK A   2      -8.778  -2.021 122.985  0.00  0.00    +0.000 A 
ATOM     16  C   UNK A   2      -8.227  -3.168 123.613  0.00  0.00    +0.000 A 
ATOM     17  C   UNK A   2      -7.920  -3.211 124.984  0.00  0.00    +0.000 A 
ATOM     18  C   UNK A   2      -6.920  -2.577 126.226  0.00  0.00    +0.000 C 
ENDBRANCH   4  10
BRANCH   1  19
ATOM     19  C   UNK A   0      -6.451  -0.314 131.903  0.00  0.00    +0.000 C 
BRANCH  19  23
ATOM     20  C   UNK A   0      -9.367   2.992 132.880  0.00  0.00    +0.000 A 
ATOM     21  C   UNK A   0      -9.790   1.819 132.164  0.00  0.00    +0.000 A 
ATOM     22  C   UNK A   0      -8.928   0.651 132.026  0.00  0.00    +0.000 A 
ATOM     23  C   UNK A   0      -7.572   0.680 132.450  0.00  0.00    +0.000 A 
ATOM     24  C   UNK A   0      -7.229   1.789 133.272  0.00  0.00    +0.000 A 
ATOM     25  C   UNK A   0      -8.099   2.907 133.483  0.00  0.00    +0.000 A 
BRANCH  20  29
ATOM     26  C   UNK A   0     -10.452   6.453 131.557  0.00  0.00    +0.000 C 
ATOM     27  C   UNK A   0      -9.916   5.042 131.437  0.00  0.00    +0.000 C 
ATOM     28  O   UNK A   0      -9.453   4.698 130.357  0.00  0.00    +0.000 OA
ATOM     29  N   UNK A   0      -9.994   4.284 132.629  0.00  0.00    +0.000 N 
ATOM     30  H   UNK A   0     -10.725   4.566 133.270  0.00  0.00    +0.000 HD
ENDBRANCH  20  29
ENDBRANCH  19  23
BRANCH  19  31
ATOM     31  C   UNK A   0      -5.320   0.462 131.101  0.00  0.00    +0.000 C 
ATOM     32  O   UNK A   0      -4.198  -0.019 130.923  0.00  0.00    +0.000 OA
ATOM     33  N   UNK A   0      -5.690   1.698 130.572  0.00  0.00    +0.000 N 
ATOM     34  H   UNK A   0      -6.573   2.104 130.854  0.00  0.00    +0.000 HD
BRANCH  33  35
ATOM     35  C   UNK A   0      -4.775   2.515 129.767  0.00  0.00    +0.000 C 
ATOM     36  C   UNK A   0      -5.549   3.298 128.706  0.00  0.00    +0.000 C 
ATOM     37  C   UNK A   0      -3.994   3.506 130.637  0.00  0.00    +0.000 C 
ENDBRANCH  33  35
ENDBRANCH  19  31
ENDBRANCH   1  19
BRANCH   8  38
ATOM     38  CB  LEU A   1      -6.181  -3.340 132.769  0.00  0.00    +0.000 C 
BRANCH  38  39
ATOM     39  CG  LEU A   1      -7.137  -3.950 133.765  0.00  0.00    +0.000 C 
ATOM     40  CD1 LEU A   1      -6.637  -5.045 134.634  0.00  0.00    +0.000 C 
ATOM     41  CD2 LEU A   1      -7.433  -2.897 134.747  0.00  0.00    +0.000 C 
ENDBRANCH  38  39
ENDBRANCH   8  38
TORSDOF 8
ENDMDL
MODEL 8
REMARK VINA RESULT:      -8.3      3.372      8.469
REMARK  Name = CHEMBL371008
REMARK  13 active torsions:
REMARK  status: ('A' for Active; 'I' for Inactive)
REMARK    1  A    between atoms: C_1  and  C_2
REMARK    2  A    between atoms: N_4  and  C_5
REMARK    3  A    between atoms: C_8  and  C_9
REMARK    4  A    between atoms: C_9  and  C_10
REMARK    5  A    between atoms: C_9  and  N_16
REMARK    6  A    between atoms: N_12  and  C_13
REMARK    7  A    between atoms: C_13  and  C_14
REMARK    8  A    between atoms: C_13  and  C_15
REMARK    9  A    between atoms: C_19  and  C_20
REMARK   10  A    between atoms: CA_32  and  CB_33
REMARK   11  A    between atoms: CB_33  and  CG_34
REMARK   12  A    between atoms: CG_34  and  CD1_35
REMARK   13  A    between atoms: CG_34  and  CD2_36
REMARK                            x       y       z     vdW  Elec       q    Type
REMARK                         _______ _______ _______ _____ _____    ______ ____
ROOT
ATOM      1  N   LEU A   1      -5.060   2.788 130.503  0.00  0.00    +0.000 N 
ATOM      2  C   UNK A   2      -5.024   1.523 131.117  0.00  0.00    +0.000 C 
ATOM      3  O   UNK A   2      -5.573   1.397 132.195  0.00  0.00    +0.000 OA
ATOM      4  C   UNK A   2      -4.189   0.348 130.348  0.00  0.00    +0.000 C 
ATOM      5  N   UNK A   2      -4.602   0.476 128.960  0.00  0.00    +0.000 N 
ATOM      6  C   LEU A   1      -4.525   1.698 128.330  0.00  0.00    +0.000 C 
ATOM      7  O   LEU A   1      -4.633   1.776 127.131  0.00  0.00    +0.000 OA
ATOM      8  CA  LEU A   1      -4.199   2.867 129.302  0.00  0.00    +0.000 C 
ATOM      9  H   UNK A   2      -4.743  -0.304 128.330  0.00  0.00    +0.000 HD
ENDROOT
BRANCH   4  10
ATOM     10  C   UNK A   2      -4.563  -1.024 130.924  0.00  0.00    +0.000 C 
ATOM     11  C   UNK A   2      -3.709  -2.071 130.299  0.00  0.00    +0.000 C 
ATOM     12  C   UNK A   2      -4.223  -3.213 131.109  0.00  0.00    +0.000 A 
ATOM     13  C   UNK A   2      -4.456  -3.328 132.511  0.00  0.00    +0.000 A 
ATOM     14  C   UNK A   2      -5.032  -4.483 133.016  0.00  0.00    +0.000 A 
ATOM     15  C   UNK A   2      -5.338  -5.404 132.066  0.00  0.00    +0.000 A 
ATOM     16  C   UNK A   2      -5.527  -4.871 130.764  0.00  0.00    +0.000 A 
ATOM     17  C   UNK A   2      -5.362  -3.506 130.469  0.00  0.00    +0.000 A 
ATOM     18  C   UNK A   2      -5.962  -1.922 130.741  0.00  0.00    +0.000 C 
ENDBRANCH   4  10
BRANCH   1  19
ATOM     19  C   UNK A   0      -5.702   3.930 131.380  0.00  0.00    +0.000 C 
BRANCH  19  23
ATOM     20  C   UNK A   0      -9.291   6.433 130.263  0.00  0.00    +0.000 A 
ATOM     21  C   UNK A   0      -8.323   6.909 131.213  0.00  0.00    +0.000 A 
ATOM     22  C   UNK A   0      -7.055   6.222 131.427  0.00  0.00    +0.000 A 
ATOM     23  C   UNK A   0      -6.788   4.960 130.828  0.00  0.00    +0.000 A 
ATOM     24  C   UNK A   0      -7.693   4.588 129.797  0.00  0.00    +0.000 A 
ATOM     25  C   UNK A   0      -8.904   5.302 129.521  0.00  0.00    +0.000 A 
BRANCH  20  29
ATOM     26  C   UNK A   0     -12.747   8.153 130.150  0.00  0.00    +0.000 C 
ATOM     27  C   UNK A   0     -11.363   7.814 129.637  0.00  0.00    +0.000 C 
ATOM     28  O   UNK A   0     -10.944   8.437 128.670  0.00  0.00    +0.000 OA
ATOM     29  N   UNK A   0     -10.695   6.810 130.378  0.00  0.00    +0.000 N 
ATOM     30  H   UNK A   0     -11.301   6.160 130.863  0.00  0.00    +0.000 HD
ENDBRANCH  20  29
ENDBRANCH  19  23
BRANCH  19  31
ATOM     31  C   UNK A   0      -4.506   4.677 132.112  0.00  0.00    +0.000 C 
ATOM     32  O   UNK A   0      -4.012   4.250 133.159  0.00  0.00    +0.000 OA
ATOM     33  N   UNK A   0      -4.017   5.816 131.472  0.00  0.00    +0.000 N 
ATOM     34  H   UNK A   0      -4.537   6.195 130.690  0.00  0.00    +0.000 HD
BRANCH  33  35
ATOM     35  C   UNK A   0      -2.886   6.588 131.996  0.00  0.00    +0.000 C 
ATOM     36  C   UNK A   0      -1.579   6.125 131.352  0.00  0.00    +0.000 C 
ATOM     37  C   UNK A   0      -3.058   8.088 131.732  0.00  0.00    +0.000 C 
ENDBRANCH  33  35
ENDBRANCH  19  31
ENDBRANCH   1  19
BRANCH   8  38
ATOM     38  CB  LEU A   1      -4.421   4.086 128.497  0.00  0.00    +0.000 C 
BRANCH  38  39
ATOM     39  CG  LEU A   1      -3.083   4.751 128.279  0.00  0.00    +0.000 C 
ATOM     40  CD1 LEU A   1      -2.252   4.292 127.138  0.00  0.00    +0.000 C 
ATOM     41  CD2 LEU A   1      -3.373   6.142 127.902  0.00  0.00    +0.000 C 
ENDBRANCH  38  39
ENDBRANCH   8  38
TORSDOF 8
ENDMDL
MODEL 9
REMARK VINA RESULT:      -8.3      2.283      8.088
REMARK  Name = CHEMBL371008
REMARK  13 active torsions:
REMARK  status: ('A' for Active; 'I' for Inactive)
REMARK    1  A    between atoms: C_1  and  C_2
REMARK    2  A    between atoms: N_4  and  C_5
REMARK    3  A    between atoms: C_8  and  C_9
REMARK    4  A    between atoms: C_9  and  C_10
REMARK    5  A    between atoms: C_9  and  N_16
REMARK    6  A    between atoms: N_12  and  C_13
REMARK    7  A    between atoms: C_13  and  C_14
REMARK    8  A    between atoms: C_13  and  C_15
REMARK    9  A    between atoms: C_19  and  C_20
REMARK   10  A    between atoms: CA_32  and  CB_33
REMARK   11  A    between atoms: CB_33  and  CG_34
REMARK   12  A    between atoms: CG_34  and  CD1_35
REMARK   13  A    between atoms: CG_34  and  CD2_36
REMARK                            x       y       z     vdW  Elec       q    Type
REMARK                         _______ _______ _______ _____ _____    ______ ____
ROOT
ATOM      1  N   LEU A   1      -6.139   3.341 129.622  0.00  0.00    +0.000 N 
ATOM      2  C   UNK A   2      -6.384   2.099 129.009  0.00  0.00    +0.000 C 
ATOM      3  O   UNK A   2      -7.208   1.364 129.520  0.00  0.00    +0.000 OA
ATOM      4  C   UNK A   2      -5.490   1.731 127.693  0.00  0.00    +0.000 C 
ATOM      5  N   UNK A   2      -5.507   2.952 126.904  0.00  0.00    +0.000 N 
ATOM      6  C   LEU A   1      -5.153   4.149 127.484  0.00  0.00    +0.000 C 
ATOM      7  O   LEU A   1      -4.932   5.118 126.800  0.00  0.00    +0.000 OA
ATOM      8  CA  LEU A   1      -4.987   4.056 129.027  0.00  0.00    +0.000 C 
ATOM      9  H   UNK A   2      -5.550   2.980 125.893  0.00  0.00    +0.000 HD
ENDROOT
BRANCH   4  10
ATOM     10  C   UNK A   2      -6.129   0.560 126.935  0.00  0.00    +0.000 C 
ATOM     11  C   UNK A   2      -5.370  -0.689 127.225  0.00  0.00    +0.000 C 
ATOM     12  C   UNK A   2      -6.263  -1.609 126.463  0.00  0.00    +0.000 A 
ATOM     13  C   UNK A   2      -7.685  -1.714 126.436  0.00  0.00    +0.000 A 
ATOM     14  C   UNK A   2      -8.288  -2.606 125.563  0.00  0.00    +0.000 A 
ATOM     15  C   UNK A   2      -7.409  -3.291 124.787  0.00  0.00    +0.000 A 
ATOM     16  C   UNK A   2      -6.158  -2.649 124.599  0.00  0.00    +0.000 A 
ATOM     17  C   UNK A   2      -5.832  -1.425 125.209  0.00  0.00    +0.000 A 
ATOM     18  C   UNK A   2      -6.196   0.249 125.293  0.00  0.00    +0.000 C 
ENDBRANCH   4  10
BRANCH   1  19
ATOM     19  C   UNK A   0      -6.880   3.558 130.997  0.00  0.00    +0.000 C 
BRANCH  19  23
ATOM     20  C   UNK A   0     -10.157   6.661 130.847  0.00  0.00    +0.000 A 
ATOM     21  C   UNK A   0     -10.437   5.306 131.236  0.00  0.00    +0.000 A 
ATOM     22  C   UNK A   0      -9.372   4.346 131.499  0.00  0.00    +0.000 A 
ATOM     23  C   UNK A   0      -8.012   4.658 131.224  0.00  0.00    +0.000 A 
ATOM     24  C   UNK A   0      -7.756   6.035 130.977  0.00  0.00    +0.000 A 
ATOM     25  C   UNK A   0      -8.794   7.006 130.797  0.00  0.00    +0.000 A 
BRANCH  20  29
ATOM     26  C   UNK A   0     -12.365   8.517 128.279  0.00  0.00    +0.000 C 
ATOM     27  C   UNK A   0     -11.468   7.399 128.766  0.00  0.00    +0.000 C 
ATOM     28  O   UNK A   0     -11.078   6.580 127.943  0.00  0.00    +0.000 OA
ATOM     29  N   UNK A   0     -11.158   7.456 130.146  0.00  0.00    +0.000 N 
ATOM     30  H   UNK A   0     -11.844   7.931 130.720  0.00  0.00    +0.000 HD
ENDBRANCH  20  29
ENDBRANCH  19  23
BRANCH  19  31
ATOM     31  C   UNK A   0      -5.757   3.633 132.119  0.00  0.00    +0.000 C 
ATOM     32  O   UNK A   0      -5.715   4.552 132.941  0.00  0.00    +0.000 OA
ATOM     33  N   UNK A   0      -4.854   2.571 132.147  0.00  0.00    +0.000 N 
ATOM     34  H   UNK A   0      -4.851   1.914 131.377  0.00  0.00    +0.000 HD
BRANCH  33  35
ATOM     35  C   UNK A   0      -3.790   2.470 133.151  0.00  0.00    +0.000 C 
ATOM     36  C   UNK A   0      -3.270   1.034 133.237  0.00  0.00    +0.000 C 
ATOM     37  C   UNK A   0      -2.615   3.398 132.821  0.00  0.00    +0.000 C 
ENDBRANCH  33  35
ENDBRANCH  19  31
ENDBRANCH   1  19
BRANCH   8  38
ATOM     38  CB  LEU A   1      -4.874   5.461 129.470  0.00  0.00    +0.000 C 
BRANCH  38  39
ATOM     39  CG  LEU A   1      -3.513   5.644 130.097  0.00  0.00    +0.000 C 
ATOM     40  CD1 LEU A   1      -2.407   6.134 129.237  0.00  0.00    +0.000 C 
ATOM     41  CD2 LEU A   1      -3.652   6.742 131.064  0.00  0.00    +0.000 C 
ENDBRANCH  38  39
ENDBRANCH   8  38
TORSDOF 8
ENDMDL
