MODEL 1
REMARK VINA RESULT:      -7.6      0.000      0.000
REMARK  Name = CHEMBL592495
REMARK  9 active torsions:
REMARK  status: ('A' for Active; 'I' for Inactive)
REMARK    1  A    between atoms: C_1  and  O_2
REMARK    2  A    between atoms: O_2  and  C_3
REMARK    3  A    between atoms: C_3  and  C_4
REMARK    4  A    between atoms: C_11  and  O_12
REMARK    5  A    between atoms: O_12  and  C_13
REMARK    6  A    between atoms: C_18  and  C_19
REMARK    7  A    between atoms: N_22  and  C_23
REMARK    8  A    between atoms: C_26  and  O_27
REMARK    9  A    between atoms: O_27  and  C_28
REMARK                            x       y       z     vdW  Elec       q    Type
REMARK                         _______ _______ _______ _____ _____    ______ ____
ROOT
ATOM      1  C   UNL     1      -6.269   3.348 122.683  0.00  0.00    +0.000 A 
ATOM      2  N   UNL     1      -5.779   4.412 123.285  0.00  0.00    +0.000 NA
ATOM      3  N   UNL     1      -5.963   4.265 124.656  0.00  0.00    +0.000 NA
ATOM      4  C   UNL     1      -6.517   3.101 124.882  0.00  0.00    +0.000 A 
ATOM      5  N   UNL     1      -6.635   2.437 126.082  0.00  0.00    +0.000 N 
ATOM      6  C   UNL     1      -7.620   2.860 127.060  0.00  0.00    +0.000 C 
ATOM      7  C   UNL     1      -6.980   2.737 128.463  0.00  0.00    +0.000 C 
ATOM      8  C   UNL     1      -6.655   1.271 128.756  0.00  0.00    +0.000 C 
ATOM      9  C   UNL     1      -5.678   0.834 127.636  0.00  0.00    +0.000 C 
ATOM     10  C   UNL     1      -6.281   1.026 126.239  0.00  0.00    +0.000 C 
ATOM     11  N   UNL     1      -6.832   2.530 123.654  0.00  0.00    +0.000 N 
ENDROOT
BRANCH  11  12
ATOM     12  C   UNL     1      -7.570   1.368 123.447  0.00  0.00    +0.000 A 
ATOM     13  C   UNL     1      -6.908   0.168 123.231  0.00  0.00    +0.000 A 
ATOM     14  C   UNL     1      -7.660  -0.988 123.133  0.00  0.00    +0.000 A 
ATOM     15  C   UNL     1      -9.047  -0.909 123.245  0.00  0.00    +0.000 A 
ATOM     16  N   UNL     1      -9.695   0.262 123.448  0.00  0.00    +0.000 NA
ATOM     17  C   UNL     1      -8.953   1.380 123.560  0.00  0.00    +0.000 A 
BRANCH  15  18
ATOM     18  O   UNL     1      -9.886  -1.984 123.174  0.00  0.00    +0.000 OA
ATOM     19  C   UNL     1      -9.337  -3.229 123.581  0.00  0.00    +0.000 C 
ENDBRANCH  15  18
ENDBRANCH  11  12
BRANCH   1  20
ATOM     20  C   UNL     1      -6.448   3.110 121.210  0.00  0.00    +0.000 C 
BRANCH  20  22
ATOM     21  C   UNL     1      -8.652   3.764 120.704  0.00  0.00    +0.000 C 
ATOM     22  O   UNL     1      -7.272   4.128 120.634  0.00  0.00    +0.000 OA
ENDBRANCH  20  22
ENDBRANCH   1  20
BRANCH   8  23
ATOM     23  O   UNL     1      -7.836   0.417 128.765  0.00  0.00    +0.000 OA
BRANCH  23  24
ATOM     24  C   UNL     1      -7.672  -0.872 129.239  0.00  0.00    +0.000 A 
ATOM     25  C   UNL     1      -7.113  -1.028 130.524  0.00  0.00    +0.000 A 
ATOM     26  C   UNL     1      -6.830  -2.307 131.037  0.00  0.00    +0.000 A 
ATOM     27  C   UNL     1      -7.125  -3.441 130.292  0.00  0.00    +0.000 A 
ATOM     28  C   UNL     1      -7.635  -3.296 129.016  0.00  0.00    +0.000 A 
ATOM     29  C   UNL     1      -7.842  -2.030 128.445  0.00  0.00    +0.000 A 
ATOM     30  C   UNL     1      -8.122  -2.098 126.974  0.00  0.00    +0.000 C 
ENDBRANCH  23  24
ENDBRANCH   8  23
TORSDOF 6
ENDMDL
MODEL 2
REMARK VINA RESULT:      -7.4      2.309      7.354
REMARK  Name = CHEMBL592495
REMARK  9 active torsions:
REMARK  status: ('A' for Active; 'I' for Inactive)
REMARK    1  A    between atoms: C_1  and  O_2
REMARK    2  A    between atoms: O_2  and  C_3
REMARK    3  A    between atoms: C_3  and  C_4
REMARK    4  A    between atoms: C_11  and  O_12
REMARK    5  A    between atoms: O_12  and  C_13
REMARK    6  A    between atoms: C_18  and  C_19
REMARK    7  A    between atoms: N_22  and  C_23
REMARK    8  A    between atoms: C_26  and  O_27
REMARK    9  A    between atoms: O_27  and  C_28
REMARK                            x       y       z     vdW  Elec       q    Type
REMARK                         _______ _______ _______ _____ _____    ______ ____
ROOT
ATOM      1  C   UNL     1      -7.825  -0.124 129.337  0.00  0.00    +0.000 A 
ATOM      2  N   UNL     1      -7.866   1.057 129.919  0.00  0.00    +0.000 NA
ATOM      3  N   UNL     1      -7.650   2.031 128.950  0.00  0.00    +0.000 NA
ATOM      4  C   UNL     1      -7.526   1.446 127.786  0.00  0.00    +0.000 A 
ATOM      5  N   UNL     1      -7.565   2.023 126.537  0.00  0.00    +0.000 N 
ATOM      6  C   UNL     1      -6.428   2.777 126.043  0.00  0.00    +0.000 C 
ATOM      7  C   UNL     1      -6.970   4.006 125.275  0.00  0.00    +0.000 C 
ATOM      8  C   UNL     1      -7.768   3.541 124.055  0.00  0.00    +0.000 C 
ATOM      9  C   UNL     1      -8.912   2.664 124.620  0.00  0.00    +0.000 C 
ATOM     10  C   UNL     1      -8.379   1.487 125.446  0.00  0.00    +0.000 C 
ATOM     11  N   UNL     1      -7.519   0.072 127.997  0.00  0.00    +0.000 N 
ENDROOT
BRANCH  11  12
ATOM     12  C   UNL     1      -7.252  -0.910 127.046  0.00  0.00    +0.000 A 
ATOM     13  C   UNL     1      -8.300  -1.645 126.511  0.00  0.00    +0.000 A 
ATOM     14  C   UNL     1      -8.023  -2.539 125.494  0.00  0.00    +0.000 A 
ATOM     15  C   UNL     1      -6.709  -2.678 125.049  0.00  0.00    +0.000 A 
ATOM     16  N   UNL     1      -5.684  -1.967 125.575  0.00  0.00    +0.000 NA
ATOM     17  C   UNL     1      -5.967  -1.086 126.554  0.00  0.00    +0.000 A 
BRANCH  15  18
ATOM     18  O   UNL     1      -6.322  -3.521 124.048  0.00  0.00    +0.000 OA
ATOM     19  C   UNL     1      -4.920  -3.665 123.863  0.00  0.00    +0.000 C 
ENDBRANCH  15  18
ENDBRANCH  11  12
BRANCH   1  20
ATOM     20  C   UNL     1      -7.845  -1.481 129.982  0.00  0.00    +0.000 C 
BRANCH  20  22
ATOM     21  C   UNL     1      -6.212  -3.164 129.781  0.00  0.00    +0.000 C 
ATOM     22  O   UNL     1      -6.520  -1.886 130.340  0.00  0.00    +0.000 OA
ENDBRANCH  20  22
ENDBRANCH   1  20
BRANCH   8  23
ATOM     23  O   UNL     1      -6.964   2.783 123.105  0.00  0.00    +0.000 OA
BRANCH  23  24
ATOM     24  C   UNL     1      -6.549   3.449 121.966  0.00  0.00    +0.000 A 
ATOM     25  C   UNL     1      -5.266   4.033 121.984  0.00  0.00    +0.000 A 
ATOM     26  C   UNL     1      -4.809   4.804 120.899  0.00  0.00    +0.000 A 
ATOM     27  C   UNL     1      -5.609   4.978 119.778  0.00  0.00    +0.000 A 
ATOM     28  C   UNL     1      -6.883   4.443 119.769  0.00  0.00    +0.000 A 
ATOM     29  C   UNL     1      -7.397   3.747 120.874  0.00  0.00    +0.000 A 
ATOM     30  C   UNL     1      -8.874   3.507 120.771  0.00  0.00    +0.000 C 
ENDBRANCH  23  24
ENDBRANCH   8  23
TORSDOF 6
ENDMDL
MODEL 3
REMARK VINA RESULT:      -7.3      2.138      7.272
REMARK  Name = CHEMBL592495
REMARK  9 active torsions:
REMARK  status: ('A' for Active; 'I' for Inactive)
REMARK    1  A    between atoms: C_1  and  O_2
REMARK    2  A    between atoms: O_2  and  C_3
REMARK    3  A    between atoms: C_3  and  C_4
REMARK    4  A    between atoms: C_11  and  O_12
REMARK    5  A    between atoms: O_12  and  C_13
REMARK    6  A    between atoms: C_18  and  C_19
REMARK    7  A    between atoms: N_22  and  C_23
REMARK    8  A    between atoms: C_26  and  O_27
REMARK    9  A    between atoms: O_27  and  C_28
REMARK                            x       y       z     vdW  Elec       q    Type
REMARK                         _______ _______ _______ _____ _____    ______ ____
ROOT
ATOM      1  C   UNL     1      -6.444   0.127 129.297  0.00  0.00    +0.000 A 
ATOM      2  N   UNL     1      -5.914   1.229 129.786  0.00  0.00    +0.000 NA
ATOM      3  N   UNL     1      -5.771   2.145 128.750  0.00  0.00    +0.000 NA
ATOM      4  C   UNL     1      -6.255   1.618 127.654  0.00  0.00    +0.000 A 
ATOM      5  N   UNL     1      -6.558   2.250 126.470  0.00  0.00    +0.000 N 
ATOM      6  C   UNL     1      -5.501   2.650 125.561  0.00  0.00    +0.000 C 
ATOM      7  C   UNL     1      -5.879   4.028 124.967  0.00  0.00    +0.000 C 
ATOM      8  C   UNL     1      -7.160   3.900 124.140  0.00  0.00    +0.000 C 
ATOM      9  C   UNL     1      -8.236   3.381 125.126  0.00  0.00    +0.000 C 
ATOM     10  C   UNL     1      -7.830   2.052 125.774  0.00  0.00    +0.000 C 
ATOM     11  N   UNL     1      -6.591   0.297 127.927  0.00  0.00    +0.000 N 
ENDROOT
BRANCH  11  12
ATOM     12  C   UNL     1      -6.993  -0.663 127.002  0.00  0.00    +0.000 A 
ATOM     13  C   UNL     1      -6.039  -1.305 126.226  0.00  0.00    +0.000 A 
ATOM     14  C   UNL     1      -6.451  -2.328 125.391  0.00  0.00    +0.000 A 
ATOM     15  C   UNL     1      -7.801  -2.671 125.351  0.00  0.00    +0.000 A 
ATOM     16  N   UNL     1      -8.735  -2.041 126.102  0.00  0.00    +0.000 NA
ATOM     17  C   UNL     1      -8.321  -1.058 126.924  0.00  0.00    +0.000 A 
BRANCH  15  18
ATOM     18  O   UNL     1      -8.318  -3.667 124.574  0.00  0.00    +0.000 OA
ATOM     19  C   UNL     1      -9.354  -3.285 123.680  0.00  0.00    +0.000 C 
ENDBRANCH  15  18
ENDBRANCH  11  12
BRANCH   1  20
ATOM     20  C   UNL     1      -6.645  -1.195 129.983  0.00  0.00    +0.000 C 
BRANCH  20  22
ATOM     21  C   UNL     1      -7.948  -0.884 131.920  0.00  0.00    +0.000 C 
ATOM     22  O   UNL     1      -7.958  -1.274 130.545  0.00  0.00    +0.000 OA
ENDBRANCH  20  22
ENDBRANCH   1  20
BRANCH   8  23
ATOM     23  O   UNL     1      -7.020   2.989 123.012  0.00  0.00    +0.000 OA
BRANCH  23  24
ATOM     24  C   UNL     1      -7.326   3.492 121.760  0.00  0.00    +0.000 A 
ATOM     25  C   UNL     1      -8.675   3.445 121.351  0.00  0.00    +0.000 A 
ATOM     26  C   UNL     1      -9.051   3.853 120.058  0.00  0.00    +0.000 A 
ATOM     27  C   UNL     1      -8.098   4.335 119.171  0.00  0.00    +0.000 A 
ATOM     28  C   UNL     1      -6.769   4.347 119.550  0.00  0.00    +0.000 A 
ATOM     29  C   UNL     1      -6.355   3.862 120.800  0.00  0.00    +0.000 A 
ATOM     30  C   UNL     1      -4.868   3.698 120.894  0.00  0.00    +0.000 C 
ENDBRANCH  23  24
ENDBRANCH   8  23
TORSDOF 6
ENDMDL
MODEL 4
REMARK VINA RESULT:      -7.3      4.692      7.449
REMARK  Name = CHEMBL592495
REMARK  9 active torsions:
REMARK  status: ('A' for Active; 'I' for Inactive)
REMARK    1  A    between atoms: C_1  and  O_2
REMARK    2  A    between atoms: O_2  and  C_3
REMARK    3  A    between atoms: C_3  and  C_4
REMARK    4  A    between atoms: C_11  and  O_12
REMARK    5  A    between atoms: O_12  and  C_13
REMARK    6  A    between atoms: C_18  and  C_19
REMARK    7  A    between atoms: N_22  and  C_23
REMARK    8  A    between atoms: C_26  and  O_27
REMARK    9  A    between atoms: O_27  and  C_28
REMARK                            x       y       z     vdW  Elec       q    Type
REMARK                         _______ _______ _______ _____ _____    ______ ____
ROOT
ATOM      1  C   UNL     1      -4.653   3.149 129.083  0.00  0.00    +0.000 A 
ATOM      2  N   UNL     1      -4.395   3.546 130.312  0.00  0.00    +0.000 NA
ATOM      3  N   UNL     1      -5.531   4.165 130.821  0.00  0.00    +0.000 NA
ATOM      4  C   UNL     1      -6.482   4.101 129.924  0.00  0.00    +0.000 A 
ATOM      5  N   UNL     1      -7.826   4.343 130.093  0.00  0.00    +0.000 N 
ATOM      6  C   UNL     1      -8.317   5.704 130.210  0.00  0.00    +0.000 C 
ATOM      7  C   UNL     1      -9.437   5.716 131.277  0.00  0.00    +0.000 C 
ATOM      8  C   UNL     1     -10.609   4.853 130.805  0.00  0.00    +0.000 C 
ATOM      9  C   UNL     1     -10.021   3.435 130.602  0.00  0.00    +0.000 C 
ATOM     10  C   UNL     1      -8.859   3.431 129.601  0.00  0.00    +0.000 C 
ATOM     11  N   UNL     1      -5.939   3.564 128.763  0.00  0.00    +0.000 N 
ENDROOT
BRANCH  11  12
ATOM     12  C   UNL     1      -6.566   3.467 127.523  0.00  0.00    +0.000 A 
ATOM     13  C   UNL     1      -7.127   2.260 127.134  0.00  0.00    +0.000 A 
ATOM     14  C   UNL     1      -7.836   2.217 125.947  0.00  0.00    +0.000 A 
ATOM     15  C   UNL     1      -7.954   3.377 125.184  0.00  0.00    +0.000 A 
ATOM     16  N   UNL     1      -7.401   4.555 125.558  0.00  0.00    +0.000 NA
ATOM     17  C   UNL     1      -6.728   4.590 126.724  0.00  0.00    +0.000 A 
BRANCH  15  18
ATOM     18  O   UNL     1      -8.636   3.454 124.004  0.00  0.00    +0.000 OA
ATOM     19  C   UNL     1      -9.084   2.218 123.462  0.00  0.00    +0.000 C 
ENDBRANCH  15  18
ENDBRANCH  11  12
BRANCH   1  20
ATOM     20  C   UNL     1      -3.703   2.575 128.071  0.00  0.00    +0.000 C 
BRANCH  20  22
ATOM     21  C   UNL     1      -1.890   3.089 126.659  0.00  0.00    +0.000 C 
ATOM     22  O   UNL     1      -2.632   3.487 127.814  0.00  0.00    +0.000 OA
ENDBRANCH  20  22
ENDBRANCH   1  20
BRANCH   8  23
ATOM     23  O   UNL     1     -11.210   5.338 129.570  0.00  0.00    +0.000 OA
BRANCH  23  24
ATOM     24  C   UNL     1     -11.651   6.649 129.561  0.00  0.00    +0.000 A 
ATOM     25  C   UNL     1     -12.544   7.043 130.577  0.00  0.00    +0.000 A 
ATOM     26  C   UNL     1     -13.107   8.333 130.583  0.00  0.00    +0.000 A 
ATOM     27  C   UNL     1     -12.767   9.249 129.597  0.00  0.00    +0.000 A 
ATOM     28  C   UNL     1     -11.924   8.858 128.574  0.00  0.00    +0.000 A 
ATOM     29  C   UNL     1     -11.420   7.550 128.495  0.00  0.00    +0.000 A 
ATOM     30  C   UNL     1     -10.771   7.259 127.175  0.00  0.00    +0.000 C 
ENDBRANCH  23  24
ENDBRANCH   8  23
TORSDOF 6
ENDMDL
MODEL 5
REMARK VINA RESULT:      -7.3      1.644      2.476
REMARK  Name = CHEMBL592495
REMARK  9 active torsions:
REMARK  status: ('A' for Active; 'I' for Inactive)
REMARK    1  A    between atoms: C_1  and  O_2
REMARK    2  A    between atoms: O_2  and  C_3
REMARK    3  A    between atoms: C_3  and  C_4
REMARK    4  A    between atoms: C_11  and  O_12
REMARK    5  A    between atoms: O_12  and  C_13
REMARK    6  A    between atoms: C_18  and  C_19
REMARK    7  A    between atoms: N_22  and  C_23
REMARK    8  A    between atoms: C_26  and  O_27
REMARK    9  A    between atoms: O_27  and  C_28
REMARK                            x       y       z     vdW  Elec       q    Type
REMARK                         _______ _______ _______ _____ _____    ______ ____
ROOT
ATOM      1  C   UNL     1      -6.011   3.726 122.193  0.00  0.00    +0.000 A 
ATOM      2  N   UNL     1      -5.399   4.809 122.628  0.00  0.00    +0.000 NA
ATOM      3  N   UNL     1      -5.618   4.916 123.997  0.00  0.00    +0.000 NA
ATOM      4  C   UNL     1      -6.316   3.883 124.393  0.00  0.00    +0.000 A 
ATOM      5  N   UNL     1      -6.532   3.448 125.681  0.00  0.00    +0.000 N 
ATOM      6  C   UNL     1      -7.468   4.145 126.542  0.00  0.00    +0.000 C 
ATOM      7  C   UNL     1      -6.867   4.181 127.968  0.00  0.00    +0.000 C 
ATOM      8  C   UNL     1      -6.732   2.756 128.508  0.00  0.00    +0.000 C 
ATOM      9  C   UNL     1      -5.804   2.023 127.509  0.00  0.00    +0.000 C 
ATOM     10  C   UNL     1      -6.360   2.050 126.080  0.00  0.00    +0.000 C 
ATOM     11  N   UNL     1      -6.684   3.158 123.266  0.00  0.00    +0.000 N 
ENDROOT
BRANCH  11  12
ATOM     12  C   UNL     1      -7.560   2.076 123.227  0.00  0.00    +0.000 A 
ATOM     13  C   UNL     1      -8.917   2.302 123.053  0.00  0.00    +0.000 A 
ATOM     14  C   UNL     1      -9.753   1.209 122.912  0.00  0.00    +0.000 A 
ATOM     15  C   UNL     1      -9.209  -0.072 122.958  0.00  0.00    +0.000 A 
ATOM     16  N   UNL     1      -7.886  -0.296 123.135  0.00  0.00    +0.000 NA
ATOM     17  C   UNL     1      -7.078   0.775 123.254  0.00  0.00    +0.000 A 
BRANCH  15  18
ATOM     18  O   UNL     1      -9.935  -1.220 122.821  0.00  0.00    +0.000 OA
ATOM     19  C   UNL     1      -9.276  -2.422 123.195  0.00  0.00    +0.000 C 
ENDBRANCH  15  18
ENDBRANCH  11  12
BRANCH   1  20
ATOM     20  C   UNL     1      -6.200   3.270 120.774  0.00  0.00    +0.000 C 
BRANCH  20  22
ATOM     21  C   UNL     1      -7.047   4.579 119.010  0.00  0.00    +0.000 C 
ATOM     22  O   UNL     1      -7.369   3.866 120.206  0.00  0.00    +0.000 OA
ENDBRANCH  20  22
ENDBRANCH   1  20
BRANCH   8  23
ATOM     23  O   UNL     1      -8.011   2.067 128.617  0.00  0.00    +0.000 OA
BRANCH  23  24
ATOM     24  C   UNL     1      -8.274   1.425 129.814  0.00  0.00    +0.000 A 
ATOM     25  C   UNL     1      -7.877   0.078 129.932  0.00  0.00    +0.000 A 
ATOM     26  C   UNL     1      -8.192  -0.670 131.083  0.00  0.00    +0.000 A 
ATOM     27  C   UNL     1      -8.878  -0.078 132.134  0.00  0.00    +0.000 A 
ATOM     28  C   UNL     1      -9.307   1.230 132.010  0.00  0.00    +0.000 A 
ATOM     29  C   UNL     1      -9.085   1.969 130.838  0.00  0.00    +0.000 A 
ATOM     30  C   UNL     1      -9.871   3.245 130.801  0.00  0.00    +0.000 C 
ENDBRANCH  23  24
ENDBRANCH   8  23
TORSDOF 6
ENDMDL
MODEL 6
REMARK VINA RESULT:      -7.2      3.318      6.672
REMARK  Name = CHEMBL592495
REMARK  9 active torsions:
REMARK  status: ('A' for Active; 'I' for Inactive)
REMARK    1  A    between atoms: C_1  and  O_2
REMARK    2  A    between atoms: O_2  and  C_3
REMARK    3  A    between atoms: C_3  and  C_4
REMARK    4  A    between atoms: C_11  and  O_12
REMARK    5  A    between atoms: O_12  and  C_13
REMARK    6  A    between atoms: C_18  and  C_19
REMARK    7  A    between atoms: N_22  and  C_23
REMARK    8  A    between atoms: C_26  and  O_27
REMARK    9  A    between atoms: O_27  and  C_28
REMARK                            x       y       z     vdW  Elec       q    Type
REMARK                         _______ _______ _______ _____ _____    ______ ____
ROOT
ATOM      1  C   UNL     1      -9.207   5.308 129.764  0.00  0.00    +0.000 A 
ATOM      2  N   UNL     1      -9.075   5.960 128.627  0.00  0.00    +0.000 NA
ATOM      3  N   UNL     1      -8.502   5.103 127.694  0.00  0.00    +0.000 NA
ATOM      4  C   UNL     1      -8.333   3.930 128.249  0.00  0.00    +0.000 A 
ATOM      5  N   UNL     1      -8.051   2.732 127.633  0.00  0.00    +0.000 N 
ATOM      6  C   UNL     1      -6.713   2.458 127.142  0.00  0.00    +0.000 C 
ATOM      7  C   UNL     1      -6.845   1.710 125.794  0.00  0.00    +0.000 C 
ATOM      8  C   UNL     1      -7.528   0.359 126.018  0.00  0.00    +0.000 C 
ATOM      9  C   UNL     1      -8.911   0.694 126.630  0.00  0.00    +0.000 C 
ATOM     10  C   UNL     1      -8.786   1.502 127.928  0.00  0.00    +0.000 C 
ATOM     11  N   UNL     1      -8.662   4.042 129.595  0.00  0.00    +0.000 N 
ENDROOT
BRANCH  11  12
ATOM     12  C   UNL     1      -8.476   3.072 130.576  0.00  0.00    +0.000 A 
ATOM     13  C   UNL     1      -9.558   2.313 130.999  0.00  0.00    +0.000 A 
ATOM     14  C   UNL     1      -9.328   1.286 131.896  0.00  0.00    +0.000 A 
ATOM     15  C   UNL     1      -8.031   1.055 132.348  0.00  0.00    +0.000 A 
ATOM     16  N   UNL     1      -6.975   1.799 131.942  0.00  0.00    +0.000 NA
ATOM     17  C   UNL     1      -7.206   2.785 131.055  0.00  0.00    +0.000 A 
BRANCH  15  18
ATOM     18  O   UNL     1      -7.687   0.065 133.224  0.00  0.00    +0.000 OA
ATOM     19  C   UNL     1      -6.299  -0.224 133.321  0.00  0.00    +0.000 C 
ENDBRANCH  15  18
ENDBRANCH  11  12
BRANCH   1  20
ATOM     20  C   UNL     1      -9.626   5.846 131.103  0.00  0.00    +0.000 C 
BRANCH  20  22
ATOM     21  C   UNL     1     -11.849   6.619 131.157  0.00  0.00    +0.000 C 
ATOM     22  O   UNL     1     -10.986   5.502 131.379  0.00  0.00    +0.000 OA
ENDBRANCH  20  22
ENDBRANCH   1  20
BRANCH   8  23
ATOM     23  O   UNL     1      -6.776  -0.518 126.905  0.00  0.00    +0.000 OA
BRANCH  23  24
ATOM     24  C   UNL     1      -7.386  -1.703 127.277  0.00  0.00    +0.000 A 
ATOM     25  C   UNL     1      -8.011  -2.460 126.265  0.00  0.00    +0.000 A 
ATOM     26  C   UNL     1      -8.730  -3.628 126.577  0.00  0.00    +0.000 A 
ATOM     27  C   UNL     1      -8.812  -4.069 127.891  0.00  0.00    +0.000 A 
ATOM     28  C   UNL     1      -8.237  -3.311 128.894  0.00  0.00    +0.000 A 
ATOM     29  C   UNL     1      -7.591  -2.096 128.620  0.00  0.00    +0.000 A 
ATOM     30  C   UNL     1      -7.298  -1.304 129.859  0.00  0.00    +0.000 C 
ENDBRANCH  23  24
ENDBRANCH   8  23
TORSDOF 6
ENDMDL
MODEL 7
REMARK VINA RESULT:      -7.1      3.462      6.947
REMARK  Name = CHEMBL592495
REMARK  9 active torsions:
REMARK  status: ('A' for Active; 'I' for Inactive)
REMARK    1  A    between atoms: C_1  and  O_2
REMARK    2  A    between atoms: O_2  and  C_3
REMARK    3  A    between atoms: C_3  and  C_4
REMARK    4  A    between atoms: C_11  and  O_12
REMARK    5  A    between atoms: O_12  and  C_13
REMARK    6  A    between atoms: C_18  and  C_19
REMARK    7  A    between atoms: N_22  and  C_23
REMARK    8  A    between atoms: C_26  and  O_27
REMARK    9  A    between atoms: O_27  and  C_28
REMARK                            x       y       z     vdW  Elec       q    Type
REMARK                         _______ _______ _______ _____ _____    ______ ____
ROOT
ATOM      1  C   UNL     1      -8.591   4.956 130.512  0.00  0.00    +0.000 A 
ATOM      2  N   UNL     1      -8.341   5.788 129.522  0.00  0.00    +0.000 NA
ATOM      3  N   UNL     1      -7.907   5.050 128.426  0.00  0.00    +0.000 NA
ATOM      4  C   UNL     1      -7.941   3.779 128.737  0.00  0.00    +0.000 A 
ATOM      5  N   UNL     1      -7.853   2.696 127.892  0.00  0.00    +0.000 N 
ATOM      6  C   UNL     1      -6.574   2.308 127.328  0.00  0.00    +0.000 C 
ATOM      7  C   UNL     1      -6.813   1.872 125.862  0.00  0.00    +0.000 C 
ATOM      8  C   UNL     1      -7.713   0.635 125.832  0.00  0.00    +0.000 C 
ATOM      9  C   UNL     1      -9.028   1.065 126.528  0.00  0.00    +0.000 C 
ATOM     10  C   UNL     1      -8.785   1.570 127.956  0.00  0.00    +0.000 C 
ATOM     11  N   UNL     1      -8.262   3.676 130.086  0.00  0.00    +0.000 N 
ENDROOT
BRANCH  11  12
ATOM     12  C   UNL     1      -8.250   2.514 130.853  0.00  0.00    +0.000 A 
ATOM     13  C   UNL     1      -9.451   1.914 131.202  0.00  0.00    +0.000 A 
ATOM     14  C   UNL     1      -9.411   0.706 131.873  0.00  0.00    +0.000 A 
ATOM     15  C   UNL     1      -8.176   0.140 132.182  0.00  0.00    +0.000 A 
ATOM     16  N   UNL     1      -7.002   0.728 131.849  0.00  0.00    +0.000 NA
ATOM     17  C   UNL     1      -7.052   1.896 131.181  0.00  0.00    +0.000 A 
BRANCH  15  18
ATOM     18  O   UNL     1      -8.016  -1.050 132.832  0.00  0.00    +0.000 OA
ATOM     19  C   UNL     1      -6.804  -1.743 132.570  0.00  0.00    +0.000 C 
ENDBRANCH  15  18
ENDBRANCH  11  12
BRANCH   1  20
ATOM     20  C   UNL     1      -8.930   5.281 131.939  0.00  0.00    +0.000 C 
BRANCH  20  22
ATOM     21  C   UNL     1     -11.040   6.322 132.034  0.00  0.00    +0.000 C 
ATOM     22  O   UNL     1      -9.626   6.528 132.018  0.00  0.00    +0.000 OA
ENDBRANCH  20  22
ENDBRANCH   1  20
BRANCH   8  23
ATOM     23  O   UNL     1      -7.126  -0.511 126.513  0.00  0.00    +0.000 OA
BRANCH  23  24
ATOM     24  C   UNL     1      -6.794  -1.601 125.729  0.00  0.00    +0.000 A 
ATOM     25  C   UNL     1      -5.557  -1.566 125.054  0.00  0.00    +0.000 A 
ATOM     26  C   UNL     1      -5.189  -2.594 124.167  0.00  0.00    +0.000 A 
ATOM     27  C   UNL     1      -6.033  -3.678 123.963  0.00  0.00    +0.000 A 
ATOM     28  C   UNL     1      -7.265  -3.701 124.589  0.00  0.00    +0.000 A 
ATOM     29  C   UNL     1      -7.694  -2.645 125.409  0.00  0.00    +0.000 A 
ATOM     30  C   UNL     1      -9.151  -2.733 125.750  0.00  0.00    +0.000 C 
ENDBRANCH  23  24
ENDBRANCH   8  23
TORSDOF 6
ENDMDL
MODEL 8
REMARK VINA RESULT:      -6.9      2.576      6.608
REMARK  Name = CHEMBL592495
REMARK  9 active torsions:
REMARK  status: ('A' for Active; 'I' for Inactive)
REMARK    1  A    between atoms: C_1  and  O_2
REMARK    2  A    between atoms: O_2  and  C_3
REMARK    3  A    between atoms: C_3  and  C_4
REMARK    4  A    between atoms: C_11  and  O_12
REMARK    5  A    between atoms: O_12  and  C_13
REMARK    6  A    between atoms: C_18  and  C_19
REMARK    7  A    between atoms: N_22  and  C_23
REMARK    8  A    between atoms: C_26  and  O_27
REMARK    9  A    between atoms: O_27  and  C_28
REMARK                            x       y       z     vdW  Elec       q    Type
REMARK                         _______ _______ _______ _____ _____    ______ ____
ROOT
ATOM      1  C   UNL     1      -8.128   4.107 130.103  0.00  0.00    +0.000 A 
ATOM      2  N   UNL     1      -8.306   5.152 129.321  0.00  0.00    +0.000 NA
ATOM      3  N   UNL     1      -8.161   4.741 128.000  0.00  0.00    +0.000 NA
ATOM      4  C   UNL     1      -7.942   3.451 127.984  0.00  0.00    +0.000 A 
ATOM      5  N   UNL     1      -8.002   2.594 126.909  0.00  0.00    +0.000 N 
ATOM      6  C   UNL     1      -6.933   2.574 125.927  0.00  0.00    +0.000 C 
ATOM      7  C   UNL     1      -7.573   2.401 124.529  0.00  0.00    +0.000 C 
ATOM      8  C   UNL     1      -8.282   1.047 124.450  0.00  0.00    +0.000 C 
ATOM      9  C   UNL     1      -9.348   1.075 125.574  0.00  0.00    +0.000 C 
ATOM     10  C   UNL     1      -8.724   1.322 126.953  0.00  0.00    +0.000 C 
ATOM     11  N   UNL     1      -7.802   3.023 129.299  0.00  0.00    +0.000 N 
ENDROOT
BRANCH  11  12
ATOM     12  C   UNL     1      -7.408   1.756 129.720  0.00  0.00    +0.000 A 
ATOM     13  C   UNL     1      -8.362   0.866 130.191  0.00  0.00    +0.000 A 
ATOM     14  C   UNL     1      -7.963  -0.421 130.503  0.00  0.00    +0.000 A 
ATOM     15  C   UNL     1      -6.625  -0.775 130.344  0.00  0.00    +0.000 A 
ATOM     16  N   UNL     1      -5.691   0.094 129.891  0.00  0.00    +0.000 NA
ATOM     17  C   UNL     1      -6.093   1.339 129.574  0.00  0.00    +0.000 A 
BRANCH  15  18
ATOM     18  O   UNL     1      -6.121  -2.016 130.610  0.00  0.00    +0.000 OA
ATOM     19  C   UNL     1      -7.054  -2.977 131.086  0.00  0.00    +0.000 C 
ENDBRANCH  15  18
ENDBRANCH  11  12
BRANCH   1  20
ATOM     20  C   UNL     1      -8.029   4.073 131.602  0.00  0.00    +0.000 C 
BRANCH  20  22
ATOM     21  C   UNL     1      -9.166   3.564 133.600  0.00  0.00    +0.000 C 
ATOM     22  O   UNL     1      -9.264   3.633 132.176  0.00  0.00    +0.000 OA
ENDBRANCH  20  22
ENDBRANCH   1  20
BRANCH   8  23
ATOM     23  O   UNL     1      -7.378  -0.080 124.632  0.00  0.00    +0.000 OA
BRANCH  23  24
ATOM     24  C   UNL     1      -7.919  -1.345 124.490  0.00  0.00    +0.000 A 
ATOM     25  C   UNL     1      -8.641  -1.617 123.311  0.00  0.00    +0.000 A 
ATOM     26  C   UNL     1      -9.298  -2.849 123.134  0.00  0.00    +0.000 A 
ATOM     27  C   UNL     1      -9.221  -3.829 124.114  0.00  0.00    +0.000 A 
ATOM     28  C   UNL     1      -8.549  -3.556 125.290  0.00  0.00    +0.000 A 
ATOM     29  C   UNL     1      -7.962  -2.304 125.529  0.00  0.00    +0.000 A 
ATOM     30  C   UNL     1      -7.544  -2.124 126.958  0.00  0.00    +0.000 C 
ENDBRANCH  23  24
ENDBRANCH   8  23
TORSDOF 6
ENDMDL
MODEL 9
REMARK VINA RESULT:      -6.9      3.044      5.994
REMARK  Name = CHEMBL592495
REMARK  9 active torsions:
REMARK  status: ('A' for Active; 'I' for Inactive)
REMARK    1  A    between atoms: C_1  and  O_2
REMARK    2  A    between atoms: O_2  and  C_3
REMARK    3  A    between atoms: C_3  and  C_4
REMARK    4  A    between atoms: C_11  and  O_12
REMARK    5  A    between atoms: O_12  and  C_13
REMARK    6  A    between atoms: C_18  and  C_19
REMARK    7  A    between atoms: N_22  and  C_23
REMARK    8  A    between atoms: C_26  and  O_27
REMARK    9  A    between atoms: O_27  and  C_28
REMARK                            x       y       z     vdW  Elec       q    Type
REMARK                         _______ _______ _______ _____ _____    ______ ____
ROOT
ATOM      1  C   UNL     1      -8.605  -2.340 126.718  0.00  0.00    +0.000 A 
ATOM      2  N   UNL     1      -8.052  -2.915 127.766  0.00  0.00    +0.000 NA
ATOM      3  N   UNL     1      -7.287  -1.966 128.435  0.00  0.00    +0.000 NA
ATOM      4  C   UNL     1      -7.416  -0.816 127.822  0.00  0.00    +0.000 A 
ATOM      5  N   UNL     1      -7.059   0.432 128.277  0.00  0.00    +0.000 N 
ATOM      6  C   UNL     1      -5.665   0.835 128.294  0.00  0.00    +0.000 C 
ATOM      7  C   UNL     1      -5.419   1.646 129.589  0.00  0.00    +0.000 C 
ATOM      8  C   UNL     1      -6.258   2.925 129.564  0.00  0.00    +0.000 C 
ATOM      9  C   UNL     1      -7.728   2.452 129.451  0.00  0.00    +0.000 C 
ATOM     10  C   UNL     1      -7.958   1.584 128.207  0.00  0.00    +0.000 C 
ATOM     11  N   UNL     1      -8.153  -1.029 126.663  0.00  0.00    +0.000 N 
ENDROOT
BRANCH  11  12
ATOM     12  C   UNL     1      -8.386  -0.104 125.649  0.00  0.00    +0.000 A 
ATOM     13  C   UNL     1      -7.382   0.169 124.731  0.00  0.00    +0.000 A 
ATOM     14  C   UNL     1      -7.672   1.010 123.672  0.00  0.00    +0.000 A 
ATOM     15  C   UNL     1      -8.948   1.557 123.568  0.00  0.00    +0.000 A 
ATOM     16  N   UNL     1      -9.927   1.298 124.467  0.00  0.00    +0.000 NA
ATOM     17  C   UNL     1      -9.640   0.465 125.484  0.00  0.00    +0.000 A 
BRANCH  15  18
ATOM     18  O   UNL     1      -9.348   2.390 122.562  0.00  0.00    +0.000 OA
ATOM     19  C   UNL     1      -8.334   3.202 121.987  0.00  0.00    +0.000 C 
ENDBRANCH  15  18
ENDBRANCH  11  12
BRANCH   1  20
ATOM     20  C   UNL     1      -9.386  -2.984 125.607  0.00  0.00    +0.000 C 
BRANCH  20  22
ATOM     21  C   UNL     1      -8.977  -2.990 123.288  0.00  0.00    +0.000 C 
ATOM     22  O   UNL     1      -8.508  -3.423 124.566  0.00  0.00    +0.000 OA
ENDBRANCH  20  22
ENDBRANCH   1  20
BRANCH   8  23
ATOM     23  O   UNL     1      -5.918   3.807 128.455  0.00  0.00    +0.000 OA
BRANCH  23  24
ATOM     24  C   UNL     1      -4.709   4.474 128.535  0.00  0.00    +0.000 A 
ATOM     25  C   UNL     1      -4.622   5.560 129.429  0.00  0.00    +0.000 A 
ATOM     26  C   UNL     1      -3.456   6.345 129.500  0.00  0.00    +0.000 A 
ATOM     27  C   UNL     1      -2.360   6.042 128.703  0.00  0.00    +0.000 A 
ATOM     28  C   UNL     1      -2.451   5.005 127.795  0.00  0.00    +0.000 A 
ATOM     29  C   UNL     1      -3.633   4.263 127.641  0.00  0.00    +0.000 A 
ATOM     30  C   UNL     1      -3.614   3.392 126.421  0.00  0.00    +0.000 C 
ENDBRANCH  23  24
ENDBRANCH   8  23
TORSDOF 6
ENDMDL
