MODEL 1
REMARK VINA RESULT:      -8.7      0.000      0.000
REMARK  Name = CHEMBL1779404
REMARK  16 active torsions:
REMARK  status: ('A' for Active; 'I' for Inactive)
REMARK    1  A    between atoms: C_1  and  O_2
REMARK    2  A    between atoms: O_2  and  C_3
REMARK    3  A    between atoms: C_6  and  S_7
REMARK    4  A    between atoms: S_7  and  N_10
REMARK    5  A    between atoms: C_13  and  C_14
REMARK    6  A    between atoms: C_13  and  N_24
REMARK    7  A    between atoms: C_17  and  O_18
REMARK    8  A    between atoms: O_18  and  C_19
REMARK    9  A    between atoms: C_21  and  O_22
REMARK   10  A    between atoms: O_22  and  C_23
REMARK   11  A    between atoms: C_26  and  O_27
REMARK   12  A    between atoms: C_29  and  C_30
REMARK   13  A    between atoms: N_32  and  C_33
REMARK   14  A    between atoms: N_32  and  C_34
REMARK   15  A    between atoms: C_42  and  O_43
REMARK   16  A    between atoms: O_43  and  C_44
REMARK                            x       y       z     vdW  Elec       q    Type
REMARK                         _______ _______ _______ _____ _____    ______ ____
ROOT
ATOM      1  N   UNL     1      -5.653   2.114 128.852  0.00  0.00    +0.000 N 
ATOM      2  C   UNL     1      -6.417   3.162 128.354  0.00  0.00    +0.000 C 
ATOM      3  O   UNL     1      -5.997   3.679 127.410  0.00  0.00    +0.000 OA
ATOM      4  C   UNL     1      -7.121   3.720 129.601  0.00  0.00    +0.000 C 
ATOM      5  C   UNL     1      -5.991   4.469 130.169  0.00  0.00    +0.000 A 
ATOM      6  C   UNL     1      -6.001   5.922 130.696  0.00  0.00    +0.000 A 
ATOM      7  C   UNL     1      -4.796   6.557 130.925  0.00  0.00    +0.000 A 
ATOM      8 CL   UNL     1      -4.408   8.125 130.202  0.00  0.00    +0.000 Cl
ATOM      9  C   UNL     1      -3.780   5.644 131.121  0.00  0.00    +0.000 A 
ATOM     10  C   UNL     1      -3.911   4.132 130.700  0.00  0.00    +0.000 A 
ATOM     11  C   UNL     1      -4.913   3.576 129.789  0.00  0.00    +0.000 A 
ENDROOT
BRANCH   4  12
ATOM     12  C   UNL     1      -8.074   4.670 129.011  0.00  0.00    +0.000 A 
ATOM     13  C   UNL     1      -8.049   4.753 127.642  0.00  0.00    +0.000 A 
ATOM     14  N   UNL     1      -8.897   5.441 126.916  0.00  0.00    +0.000 NA
ATOM     15  C   UNL     1      -9.794   6.098 127.626  0.00  0.00    +0.000 A 
ATOM     16  N   UNL     1      -9.848   6.202 128.981  0.00  0.00    +0.000 NA
ATOM     17  C   UNL     1      -8.930   5.541 129.713  0.00  0.00    +0.000 A 
BRANCH  15  18
ATOM     18  O   UNL     1     -10.653   6.777 126.809  0.00  0.00    +0.000 OA
ATOM     19  C   UNL     1     -11.040   8.004 127.368  0.00  0.00    +0.000 C 
ENDBRANCH  15  18
BRANCH  17  20
ATOM     20  O   UNL     1      -9.070   5.804 131.075  0.00  0.00    +0.000 OA
ATOM     21  C   UNL     1     -10.138   6.277 131.929  0.00  0.00    +0.000 C 
ENDBRANCH  17  20
ENDBRANCH   4  12
BRANCH   4  22
ATOM     22  N   UNL     1      -7.470   2.608 130.703  0.00  0.00    +0.000 NA
ATOM     23  C   UNL     1      -8.694   1.710 130.482  0.00  0.00    +0.000 C 
ATOM     24  C   UNL     1      -9.884   2.206 131.337  0.00  0.00    +0.000 C 
ATOM     25  C   UNL     1      -9.116   2.629 132.575  0.00  0.00    +0.000 C 
ATOM     26  C   UNL     1      -7.687   3.077 132.142  0.00  0.00    +0.000 C 
BRANCH  26  27
ATOM     27  C   UNL     1      -6.489   2.525 132.993  0.00  0.00    +0.000 C 
ATOM     28  O   UNL     1      -6.191   1.328 132.883  0.00  0.00    +0.000 OA
ATOM     29  N   UNL     1      -5.615   3.324 133.717  0.00  0.00    +0.000 N 
ATOM     30  C   UNL     1      -5.933   4.589 134.352  0.00  0.00    +0.000 C 
ATOM     31  C   UNL     1      -4.305   2.721 134.061  0.00  0.00    +0.000 C 
ENDBRANCH  26  27
BRANCH  24  32
ATOM     32  O   UNL     1     -10.790   3.190 130.847  0.00  0.00    +0.000 OA
ATOM     33  H   UNL     1     -10.827   3.145 129.871  0.00  0.00    +0.000 HD
ENDBRANCH  24  32
ENDBRANCH   4  22
BRANCH   1  34
ATOM     34  S   UNL     1      -5.967   1.164 126.898  0.00  0.00    +0.000 S 
ATOM     35  O   UNL     1      -6.805   0.041 127.284  0.00  0.00    +0.000 OA
ATOM     36  O   UNL     1      -4.729   0.961 126.177  0.00  0.00    +0.000 OA
BRANCH  34  40
ATOM     37  C   UNL     1      -8.310   2.983 122.632  0.00  0.00    +0.000 A 
ATOM     38  C   UNL     1      -6.939   2.938 122.823  0.00  0.00    +0.000 A 
ATOM     39  C   UNL     1      -6.329   2.334 124.029  0.00  0.00    +0.000 A 
ATOM     40  C   UNL     1      -7.069   1.756 125.142  0.00  0.00    +0.000 A 
ATOM     41  C   UNL     1      -8.438   1.932 124.955  0.00  0.00    +0.000 A 
ATOM     42  C   UNL     1      -9.037   2.475 123.689  0.00  0.00    +0.000 A 
BRANCH  37  44
ATOM     43  C   UNL     1      -7.925   3.917 120.431  0.00  0.00    +0.000 C 
ATOM     44  O   UNL     1      -8.826   3.405 121.430  0.00  0.00    +0.000 OA
ENDBRANCH  37  44
BRANCH  41  45
ATOM     45  O   UNL     1      -9.224   1.640 126.017  0.00  0.00    +0.000 OA
ATOM     46  C   UNL     1      -9.914   0.426 125.824  0.00  0.00    +0.000 C 
ENDBRANCH  41  45
ENDBRANCH  34  40
ENDBRANCH   1  34
TORSDOF 10
ENDMDL
MODEL 2
REMARK VINA RESULT:      -8.6      1.825      2.543
REMARK  Name = CHEMBL1779404
REMARK  16 active torsions:
REMARK  status: ('A' for Active; 'I' for Inactive)
REMARK    1  A    between atoms: C_1  and  O_2
REMARK    2  A    between atoms: O_2  and  C_3
REMARK    3  A    between atoms: C_6  and  S_7
REMARK    4  A    between atoms: S_7  and  N_10
REMARK    5  A    between atoms: C_13  and  C_14
REMARK    6  A    between atoms: C_13  and  N_24
REMARK    7  A    between atoms: C_17  and  O_18
REMARK    8  A    between atoms: O_18  and  C_19
REMARK    9  A    between atoms: C_21  and  O_22
REMARK   10  A    between atoms: O_22  and  C_23
REMARK   11  A    between atoms: C_26  and  O_27
REMARK   12  A    between atoms: C_29  and  C_30
REMARK   13  A    between atoms: N_32  and  C_33
REMARK   14  A    between atoms: N_32  and  C_34
REMARK   15  A    between atoms: C_42  and  O_43
REMARK   16  A    between atoms: O_43  and  C_44
REMARK                            x       y       z     vdW  Elec       q    Type
REMARK                         _______ _______ _______ _____ _____    ______ ____
ROOT
ATOM      1  N   UNL     1      -5.907   2.670 130.428  0.00  0.00    +0.000 N 
ATOM      2  C   UNL     1      -6.746   3.635 129.886  0.00  0.00    +0.000 C 
ATOM      3  O   UNL     1      -6.590   3.856 128.763  0.00  0.00    +0.000 OA
ATOM      4  C   UNL     1      -7.059   4.553 131.078  0.00  0.00    +0.000 C 
ATOM      5  C   UNL     1      -5.792   5.300 131.112  0.00  0.00    +0.000 A 
ATOM      6  C   UNL     1      -5.611   6.831 131.218  0.00  0.00    +0.000 A 
ATOM      7  C   UNL     1      -4.370   7.375 130.947  0.00  0.00    +0.000 A 
ATOM      8 CL   UNL     1      -4.151   8.667 129.758  0.00  0.00    +0.000 Cl
ATOM      9  C   UNL     1      -3.368   6.440 131.108  0.00  0.00    +0.000 A 
ATOM     10  C   UNL     1      -3.658   4.892 131.153  0.00  0.00    +0.000 A 
ATOM     11  C   UNL     1      -4.890   4.234 130.717  0.00  0.00    +0.000 A 
ENDROOT
BRANCH   4  12
ATOM     12  C   UNL     1      -8.108   5.421 130.526  0.00  0.00    +0.000 A 
ATOM     13  C   UNL     1      -7.903   6.767 130.691  0.00  0.00    +0.000 A 
ATOM     14  N   UNL     1      -8.649   7.709 130.166  0.00  0.00    +0.000 NA
ATOM     15  C   UNL     1      -9.668   7.252 129.463  0.00  0.00    +0.000 A 
ATOM     16  N   UNL     1     -10.052   5.953 129.331  0.00  0.00    +0.000 NA
ATOM     17  C   UNL     1      -9.312   5.000 129.930  0.00  0.00    +0.000 A 
BRANCH  15  18
ATOM     18  O   UNL     1     -10.391   8.282 128.933  0.00  0.00    +0.000 OA
ATOM     19  C   UNL     1     -10.822   7.997 127.629  0.00  0.00    +0.000 C 
ENDBRANCH  15  18
BRANCH  17  20
ATOM     20  O   UNL     1      -9.873   3.734 129.764  0.00  0.00    +0.000 OA
ATOM     21  C   UNL     1     -10.943   2.991 130.391  0.00  0.00    +0.000 C 
ENDBRANCH  17  20
ENDBRANCH   4  12
BRANCH   4  22
ATOM     22  N   UNL     1      -7.121   3.791 132.488  0.00  0.00    +0.000 NA
ATOM     23  C   UNL     1      -8.384   2.994 132.840  0.00  0.00    +0.000 C 
ATOM     24  C   UNL     1      -9.276   3.804 133.810  0.00  0.00    +0.000 C 
ATOM     25  C   UNL     1      -8.183   4.441 134.647  0.00  0.00    +0.000 C 
ATOM     26  C   UNL     1      -6.917   4.621 133.756  0.00  0.00    +0.000 C 
BRANCH  26  27
ATOM     27  C   UNL     1      -5.547   4.180 134.382  0.00  0.00    +0.000 C 
ATOM     28  O   UNL     1      -5.340   2.970 134.552  0.00  0.00    +0.000 OA
ATOM     29  N   UNL     1      -4.472   5.033 134.583  0.00  0.00    +0.000 N 
ATOM     30  C   UNL     1      -4.545   6.452 134.881  0.00  0.00    +0.000 C 
ATOM     31  C   UNL     1      -3.142   4.393 134.729  0.00  0.00    +0.000 C 
ENDBRANCH  26  27
BRANCH  24  32
ATOM     32  O   UNL     1     -10.253   4.721 133.328  0.00  0.00    +0.000 OA
ATOM     33  H   UNL     1     -11.097   4.252 133.175  0.00  0.00    +0.000 HD
ENDBRANCH  24  32
ENDBRANCH   4  22
BRANCH   1  34
ATOM     34  S   UNL     1      -6.781   1.304 128.950  0.00  0.00    +0.000 S 
ATOM     35  O   UNL     1      -8.008   0.928 129.633  0.00  0.00    +0.000 OA
ATOM     36  O   UNL     1      -5.839   0.302 128.498  0.00  0.00    +0.000 OA
BRANCH  34  40
ATOM     37  C   UNL     1      -8.996   1.579 124.257  0.00  0.00    +0.000 A 
ATOM     38  C   UNL     1      -9.586   1.019 125.379  0.00  0.00    +0.000 A 
ATOM     39  C   UNL     1      -8.935   1.042 126.709  0.00  0.00    +0.000 A 
ATOM     40  C   UNL     1      -7.625   1.612 126.990  0.00  0.00    +0.000 A 
ATOM     41  C   UNL     1      -7.027   2.054 125.813  0.00  0.00    +0.000 A 
ATOM     42  C   UNL     1      -7.736   2.094 124.489  0.00  0.00    +0.000 A 
BRANCH  37  44
ATOM     43  C   UNL     1     -10.194   0.474 122.466  0.00  0.00    +0.000 C 
ATOM     44  O   UNL     1      -9.703   1.678 123.083  0.00  0.00    +0.000 OA
ENDBRANCH  37  44
BRANCH  41  45
ATOM     45  O   UNL     1      -5.722   2.400 125.902  0.00  0.00    +0.000 OA
ATOM     46  C   UNL     1      -5.458   3.589 125.193  0.00  0.00    +0.000 C 
ENDBRANCH  41  45
ENDBRANCH  34  40
ENDBRANCH   1  34
TORSDOF 10
ENDMDL
MODEL 3
REMARK VINA RESULT:      -8.5      2.542      3.712
REMARK  Name = CHEMBL1779404
REMARK  16 active torsions:
REMARK  status: ('A' for Active; 'I' for Inactive)
REMARK    1  A    between atoms: C_1  and  O_2
REMARK    2  A    between atoms: O_2  and  C_3
REMARK    3  A    between atoms: C_6  and  S_7
REMARK    4  A    between atoms: S_7  and  N_10
REMARK    5  A    between atoms: C_13  and  C_14
REMARK    6  A    between atoms: C_13  and  N_24
REMARK    7  A    between atoms: C_17  and  O_18
REMARK    8  A    between atoms: O_18  and  C_19
REMARK    9  A    between atoms: C_21  and  O_22
REMARK   10  A    between atoms: O_22  and  C_23
REMARK   11  A    between atoms: C_26  and  O_27
REMARK   12  A    between atoms: C_29  and  C_30
REMARK   13  A    between atoms: N_32  and  C_33
REMARK   14  A    between atoms: N_32  and  C_34
REMARK   15  A    between atoms: C_42  and  O_43
REMARK   16  A    between atoms: O_43  and  C_44
REMARK                            x       y       z     vdW  Elec       q    Type
REMARK                         _______ _______ _______ _____ _____    ______ ____
ROOT
ATOM      1  N   UNL     1      -5.552   0.049 131.167  0.00  0.00    +0.000 N 
ATOM      2  C   UNL     1      -5.899   0.831 130.073  0.00  0.00    +0.000 C 
ATOM      3  O   UNL     1      -5.228   0.710 129.141  0.00  0.00    +0.000 OA
ATOM      4  C   UNL     1      -6.560   2.065 130.708  0.00  0.00    +0.000 C 
ATOM      5  C   UNL     1      -5.341   2.760 131.146  0.00  0.00    +0.000 A 
ATOM      6  C   UNL     1      -4.987   4.251 130.940  0.00  0.00    +0.000 A 
ATOM      7  C   UNL     1      -3.688   4.663 131.159  0.00  0.00    +0.000 A 
ATOM      8 CL   UNL     1      -2.763   5.545 129.935  0.00  0.00    +0.000 Cl
ATOM      9  C   UNL     1      -3.022   3.794 131.999  0.00  0.00    +0.000 A 
ATOM     10  C   UNL     1      -3.540   2.335 132.287  0.00  0.00    +0.000 A 
ATOM     11  C   UNL     1      -4.537   1.605 131.501  0.00  0.00    +0.000 A 
ENDROOT
BRANCH   4  12
ATOM     12  C   UNL     1      -7.104   2.756 129.530  0.00  0.00    +0.000 A 
ATOM     13  C   UNL     1      -6.820   2.170 128.323  0.00  0.00    +0.000 A 
ATOM     14  N   UNL     1      -7.312   2.553 127.170  0.00  0.00    +0.000 NA
ATOM     15  C   UNL     1      -8.109   3.601 127.252  0.00  0.00    +0.000 A 
ATOM     16  N   UNL     1      -8.368   4.346 128.361  0.00  0.00    +0.000 NA
ATOM     17  C   UNL     1      -7.803   3.979 129.527  0.00  0.00    +0.000 A 
BRANCH  15  18
ATOM     18  O   UNL     1      -8.598   3.935 126.021  0.00  0.00    +0.000 OA
ATOM     19  C   UNL     1      -8.334   2.938 125.069  0.00  0.00    +0.000 C 
ENDBRANCH  15  18
BRANCH  17  20
ATOM     20  O   UNL     1      -8.102   4.878 130.550  0.00  0.00    +0.000 OA
ATOM     21  C   UNL     1      -8.905   6.076 130.667  0.00  0.00    +0.000 C 
ENDBRANCH  17  20
ENDBRANCH   4  12
BRANCH   4  22
ATOM     22  N   UNL     1      -7.361   1.751 132.062  0.00  0.00    +0.000 NA
ATOM     23  C   UNL     1      -8.754   1.115 131.963  0.00  0.00    +0.000 C 
ATOM     24  C   UNL     1      -9.849   2.188 132.160  0.00  0.00    +0.000 C 
ATOM     25  C   UNL     1      -9.162   3.024 133.222  0.00  0.00    +0.000 C 
ATOM     26  C   UNL     1      -7.621   2.913 133.021  0.00  0.00    +0.000 C 
BRANCH  26  27
ATOM     27  C   UNL     1      -6.759   2.652 134.307  0.00  0.00    +0.000 C 
ATOM     28  O   UNL     1      -6.392   1.493 134.543  0.00  0.00    +0.000 OA
ATOM     29  N   UNL     1      -6.217   3.654 135.098  0.00  0.00    +0.000 N 
ATOM     30  C   UNL     1      -6.784   4.970 135.327  0.00  0.00    +0.000 C 
ATOM     31  C   UNL     1      -5.076   3.265 135.962  0.00  0.00    +0.000 C 
ENDBRANCH  26  27
BRANCH  24  32
ATOM     32  O   UNL     1     -10.355   2.941 131.061  0.00  0.00    +0.000 OA
ATOM     33  H   UNL     1     -10.996   2.399 130.559  0.00  0.00    +0.000 HD
ENDBRANCH  24  32
ENDBRANCH   4  22
BRANCH   1  34
ATOM     34  S   UNL     1      -5.881  -1.671 129.844  0.00  0.00    +0.000 S 
ATOM     35  O   UNL     1      -6.587  -2.565 130.746  0.00  0.00    +0.000 OA
ATOM     36  O   UNL     1      -4.669  -2.089 129.171  0.00  0.00    +0.000 OA
BRANCH  34  40
ATOM     37  C   UNL     1      -8.874  -2.876 125.770  0.00  0.00    +0.000 A 
ATOM     38  C   UNL     1      -9.000  -3.427 127.036  0.00  0.00    +0.000 A 
ATOM     39  C   UNL     1      -8.167  -2.984 128.176  0.00  0.00    +0.000 A 
ATOM     40  C   UNL     1      -7.127  -1.967 128.110  0.00  0.00    +0.000 A 
ATOM     41  C   UNL     1      -6.962  -1.531 126.798  0.00  0.00    +0.000 A 
ATOM     42  C   UNL     1      -7.869  -1.934 125.671  0.00  0.00    +0.000 A 
BRANCH  37  44
ATOM     43  C   UNL     1      -9.362  -3.096 123.409  0.00  0.00    +0.000 C 
ATOM     44  O   UNL     1      -9.773  -3.202 124.784  0.00  0.00    +0.000 OA
ENDBRANCH  37  44
BRANCH  41  45
ATOM     45  O   UNL     1      -5.881  -0.752 126.563  0.00  0.00    +0.000 OA
ATOM     46  C   UNL     1      -5.932  -0.180 125.276  0.00  0.00    +0.000 C 
ENDBRANCH  41  45
ENDBRANCH  34  40
ENDBRANCH   1  34
TORSDOF 10
ENDMDL
MODEL 4
REMARK VINA RESULT:      -8.4      1.643      1.960
REMARK  Name = CHEMBL1779404
REMARK  16 active torsions:
REMARK  status: ('A' for Active; 'I' for Inactive)
REMARK    1  A    between atoms: C_1  and  O_2
REMARK    2  A    between atoms: O_2  and  C_3
REMARK    3  A    between atoms: C_6  and  S_7
REMARK    4  A    between atoms: S_7  and  N_10
REMARK    5  A    between atoms: C_13  and  C_14
REMARK    6  A    between atoms: C_13  and  N_24
REMARK    7  A    between atoms: C_17  and  O_18
REMARK    8  A    between atoms: O_18  and  C_19
REMARK    9  A    between atoms: C_21  and  O_22
REMARK   10  A    between atoms: O_22  and  C_23
REMARK   11  A    between atoms: C_26  and  O_27
REMARK   12  A    between atoms: C_29  and  C_30
REMARK   13  A    between atoms: N_32  and  C_33
REMARK   14  A    between atoms: N_32  and  C_34
REMARK   15  A    between atoms: C_42  and  O_43
REMARK   16  A    between atoms: O_43  and  C_44
REMARK                            x       y       z     vdW  Elec       q    Type
REMARK                         _______ _______ _______ _____ _____    ______ ____
ROOT
ATOM      1  N   UNL     1      -5.579   1.693 129.972  0.00  0.00    +0.000 N 
ATOM      2  C   UNL     1      -6.199   2.702 129.248  0.00  0.00    +0.000 C 
ATOM      3  O   UNL     1      -5.618   3.081 128.324  0.00  0.00    +0.000 OA
ATOM      4  C   UNL     1      -7.042   3.437 130.302  0.00  0.00    +0.000 C 
ATOM      5  C   UNL     1      -5.963   4.204 130.942  0.00  0.00    +0.000 A 
ATOM      6  C   UNL     1      -5.964   5.710 131.291  0.00  0.00    +0.000 A 
ATOM      7  C   UNL     1      -4.769   6.318 131.623  0.00  0.00    +0.000 A 
ATOM      8 CL   UNL     1      -4.190   7.767 130.790  0.00  0.00    +0.000 Cl
ATOM      9  C   UNL     1      -3.847   5.395 132.073  0.00  0.00    +0.000 A 
ATOM     10  C   UNL     1      -4.005   3.849 131.815  0.00  0.00    +0.000 A 
ATOM     11  C   UNL     1      -4.896   3.227 130.835  0.00  0.00    +0.000 A 
ENDROOT
BRANCH   4  12
ATOM     12  C   UNL     1      -7.842   4.346 129.470  0.00  0.00    +0.000 A 
ATOM     13  C   UNL     1      -7.565   4.309 128.127  0.00  0.00    +0.000 A 
ATOM     14  N   UNL     1      -8.245   4.944 127.203  0.00  0.00    +0.000 NA
ATOM     15  C   UNL     1      -9.237   5.672 127.678  0.00  0.00    +0.000 A 
ATOM     16  N   UNL     1      -9.535   5.894 128.987  0.00  0.00    +0.000 NA
ATOM     17  C   UNL     1      -8.786   5.286 129.927  0.00  0.00    +0.000 A 
BRANCH  15  18
ATOM     18  O   UNL     1      -9.912   6.290 126.664  0.00  0.00    +0.000 OA
ATOM     19  C   UNL     1     -10.642   7.397 127.124  0.00  0.00    +0.000 C 
ENDBRANCH  15  18
BRANCH  17  20
ATOM     20  O   UNL     1      -9.164   5.669 131.213  0.00  0.00    +0.000 OA
ATOM     21  C   UNL     1     -10.316   6.320 131.799  0.00  0.00    +0.000 C 
ENDBRANCH  17  20
ENDBRANCH   4  12
BRANCH   4  22
ATOM     22  N   UNL     1      -7.611   2.485 131.461  0.00  0.00    +0.000 NA
ATOM     23  C   UNL     1      -8.804   1.573 131.146  0.00  0.00    +0.000 C 
ATOM     24  C   UNL     1     -10.109   2.186 131.705  0.00  0.00    +0.000 C 
ATOM     25  C   UNL     1      -9.556   2.766 132.992  0.00  0.00    +0.000 C 
ATOM     26  C   UNL     1      -8.062   3.143 132.765  0.00  0.00    +0.000 C 
BRANCH  26  27
ATOM     27  C   UNL     1      -7.047   2.703 133.879  0.00  0.00    +0.000 C 
ATOM     28  O   UNL     1      -6.830   1.493 134.032  0.00  0.00    +0.000 OA
ATOM     29  N   UNL     1      -6.230   3.579 134.579  0.00  0.00    +0.000 N 
ATOM     30  C   UNL     1      -6.539   4.955 134.920  0.00  0.00    +0.000 C 
ATOM     31  C   UNL     1      -5.035   2.988 135.228  0.00  0.00    +0.000 C 
ENDBRANCH  26  27
BRANCH  24  32
ATOM     32  O   UNL     1     -10.886   3.101 130.938  0.00  0.00    +0.000 OA
ATOM     33  H   UNL     1     -11.273   2.639 130.168  0.00  0.00    +0.000 HD
ENDBRANCH  24  32
ENDBRANCH   4  22
BRANCH   1  34
ATOM     34  S   UNL     1      -5.663   0.524 128.117  0.00  0.00    +0.000 S 
ATOM     35  O   UNL     1      -5.938  -0.800 128.653  0.00  0.00    +0.000 OA
ATOM     36  O   UNL     1      -4.521   0.762 127.261  0.00  0.00    +0.000 OA
BRANCH  34  40
ATOM     37  C   UNL     1      -9.399   0.271 124.514  0.00  0.00    +0.000 A 
ATOM     38  C   UNL     1      -9.547   0.842 125.768  0.00  0.00    +0.000 A 
ATOM     39  C   UNL     1      -8.420   0.954 126.722  0.00  0.00    +0.000 A 
ATOM     40  C   UNL     1      -7.068   0.470 126.483  0.00  0.00    +0.000 A 
ATOM     41  C   UNL     1      -7.003  -0.197 125.262  0.00  0.00    +0.000 A 
ATOM     42  C   UNL     1      -8.135  -0.230 124.275  0.00  0.00    +0.000 A 
BRANCH  37  44
ATOM     43  C   UNL     1     -10.110   0.317 122.200  0.00  0.00    +0.000 C 
ATOM     44  O   UNL     1     -10.427   0.332 123.604  0.00  0.00    +0.000 OA
ENDBRANCH  37  44
BRANCH  41  45
ATOM     45  O   UNL     1      -5.863  -0.885 125.021  0.00  0.00    +0.000 OA
ATOM     46  C   UNL     1      -5.987  -2.233 125.413  0.00  0.00    +0.000 C 
ENDBRANCH  41  45
ENDBRANCH  34  40
ENDBRANCH   1  34
TORSDOF 10
ENDMDL
MODEL 5
REMARK VINA RESULT:      -8.1      3.040      5.807
REMARK  Name = CHEMBL1779404
REMARK  16 active torsions:
REMARK  status: ('A' for Active; 'I' for Inactive)
REMARK    1  A    between atoms: C_1  and  O_2
REMARK    2  A    between atoms: O_2  and  C_3
REMARK    3  A    between atoms: C_6  and  S_7
REMARK    4  A    between atoms: S_7  and  N_10
REMARK    5  A    between atoms: C_13  and  C_14
REMARK    6  A    between atoms: C_13  and  N_24
REMARK    7  A    between atoms: C_17  and  O_18
REMARK    8  A    between atoms: O_18  and  C_19
REMARK    9  A    between atoms: C_21  and  O_22
REMARK   10  A    between atoms: O_22  and  C_23
REMARK   11  A    between atoms: C_26  and  O_27
REMARK   12  A    between atoms: C_29  and  C_30
REMARK   13  A    between atoms: N_32  and  C_33
REMARK   14  A    between atoms: N_32  and  C_34
REMARK   15  A    between atoms: C_42  and  O_43
REMARK   16  A    between atoms: O_43  and  C_44
REMARK                            x       y       z     vdW  Elec       q    Type
REMARK                         _______ _______ _______ _____ _____    ______ ____
ROOT
ATOM      1  N   UNL     1      -7.470   4.012 127.108  0.00  0.00    +0.000 N 
ATOM      2  C   UNL     1      -7.199   2.790 127.710  0.00  0.00    +0.000 C 
ATOM      3  O   UNL     1      -8.083   2.047 127.746  0.00  0.00    +0.000 OA
ATOM      4  C   UNL     1      -6.097   3.124 128.728  0.00  0.00    +0.000 C 
ATOM      5  C   UNL     1      -6.941   3.741 129.762  0.00  0.00    +0.000 A 
ATOM      6  C   UNL     1      -6.919   3.455 131.281  0.00  0.00    +0.000 A 
ATOM      7  C   UNL     1      -7.967   3.908 132.059  0.00  0.00    +0.000 A 
ATOM      8 CL   UNL     1      -8.887   2.828 133.115  0.00  0.00    +0.000 Cl
ATOM      9  C   UNL     1      -8.619   4.964 131.455  0.00  0.00    +0.000 A 
ATOM     10  C   UNL     1      -8.459   5.288 129.922  0.00  0.00    +0.000 A 
ATOM     11  C   UNL     1      -7.916   4.388 128.903  0.00  0.00    +0.000 A 
ENDROOT
BRANCH   4  12
ATOM     12  C   UNL     1      -5.689   1.788 129.181  0.00  0.00    +0.000 A 
ATOM     13  C   UNL     1      -6.436   0.747 128.690  0.00  0.00    +0.000 A 
ATOM     14  N   UNL     1      -6.162  -0.522 128.869  0.00  0.00    +0.000 NA
ATOM     15  C   UNL     1      -5.092  -0.737 129.609  0.00  0.00    +0.000 A 
ATOM     16  N   UNL     1      -4.345   0.197 130.258  0.00  0.00    +0.000 NA
ATOM     17  C   UNL     1      -4.677   1.495 130.117  0.00  0.00    +0.000 A 
BRANCH  15  18
ATOM     18  O   UNL     1      -4.856  -2.076 129.741  0.00  0.00    +0.000 OA
ATOM     19  C   UNL     1      -4.819  -2.723 128.497  0.00  0.00    +0.000 C 
ENDBRANCH  15  18
BRANCH  17  20
ATOM     20  O   UNL     1      -3.869   2.321 130.897  0.00  0.00    +0.000 OA
ATOM     21  C   UNL     1      -3.565   2.432 132.307  0.00  0.00    +0.000 C 
ENDBRANCH  17  20
ENDBRANCH   4  12
BRANCH   4  22
ATOM     22  N   UNL     1      -5.108   4.295 128.255  0.00  0.00    +0.000 NA
ATOM     23  C   UNL     1      -4.578   4.275 126.816  0.00  0.00    +0.000 C 
ATOM     24  C   UNL     1      -3.131   3.729 126.785  0.00  0.00    +0.000 C 
ATOM     25  C   UNL     1      -2.624   4.354 128.071  0.00  0.00    +0.000 C 
ATOM     26  C   UNL     1      -3.822   4.506 129.055  0.00  0.00    +0.000 C 
BRANCH  26  27
ATOM     27  C   UNL     1      -3.957   5.885 129.792  0.00  0.00    +0.000 C 
ATOM     28  O   UNL     1      -4.818   6.683 129.394  0.00  0.00    +0.000 OA
ATOM     29  N   UNL     1      -3.312   6.201 130.978  0.00  0.00    +0.000 N 
ATOM     30  C   UNL     1      -2.018   5.706 131.411  0.00  0.00    +0.000 C 
ATOM     31  C   UNL     1      -3.893   7.314 131.767  0.00  0.00    +0.000 C 
ENDBRANCH  26  27
BRANCH  24  32
ATOM     32  O   UNL     1      -2.868   2.334 126.669  0.00  0.00    +0.000 OA
ATOM     33  H   UNL     1      -3.711   1.847 126.583  0.00  0.00    +0.000 HD
ENDBRANCH  24  32
ENDBRANCH   4  22
BRANCH   1  34
ATOM     34  S   UNL     1      -7.946   2.846 125.311  0.00  0.00    +0.000 S 
ATOM     35  O   UNL     1      -7.137   3.542 124.324  0.00  0.00    +0.000 OA
ATOM     36  O   UNL     1      -9.371   2.675 125.126  0.00  0.00    +0.000 OA
BRANCH  34  40
ATOM     37  C   UNL     1      -6.319  -1.882 123.896  0.00  0.00    +0.000 A 
ATOM     38  C   UNL     1      -5.781  -1.138 124.933  0.00  0.00    +0.000 A 
ATOM     39  C   UNL     1      -6.341   0.171 125.339  0.00  0.00    +0.000 A 
ATOM     40  C   UNL     1      -7.472   0.832 124.704  0.00  0.00    +0.000 A 
ATOM     41  C   UNL     1      -7.900   0.101 123.598  0.00  0.00    +0.000 A 
ATOM     42  C   UNL     1      -7.371  -1.261 123.252  0.00  0.00    +0.000 A 
BRANCH  37  44
ATOM     43  C   UNL     1      -4.457  -3.382 123.512  0.00  0.00    +0.000 C 
ATOM     44  O   UNL     1      -5.871  -3.159 123.658  0.00  0.00    +0.000 OA
ENDBRANCH  37  44
BRANCH  41  45
ATOM     45  O   UNL     1      -8.796   0.715 122.792  0.00  0.00    +0.000 OA
ATOM     46  C   UNL     1      -9.963  -0.060 122.641  0.00  0.00    +0.000 C 
ENDBRANCH  41  45
ENDBRANCH  34  40
ENDBRANCH   1  34
TORSDOF 10
ENDMDL
MODEL 6
REMARK VINA RESULT:      -8.1      3.101      7.831
REMARK  Name = CHEMBL1779404
REMARK  16 active torsions:
REMARK  status: ('A' for Active; 'I' for Inactive)
REMARK    1  A    between atoms: C_1  and  O_2
REMARK    2  A    between atoms: O_2  and  C_3
REMARK    3  A    between atoms: C_6  and  S_7
REMARK    4  A    between atoms: S_7  and  N_10
REMARK    5  A    between atoms: C_13  and  C_14
REMARK    6  A    between atoms: C_13  and  N_24
REMARK    7  A    between atoms: C_17  and  O_18
REMARK    8  A    between atoms: O_18  and  C_19
REMARK    9  A    between atoms: C_21  and  O_22
REMARK   10  A    between atoms: O_22  and  C_23
REMARK   11  A    between atoms: C_26  and  O_27
REMARK   12  A    between atoms: C_29  and  C_30
REMARK   13  A    between atoms: N_32  and  C_33
REMARK   14  A    between atoms: N_32  and  C_34
REMARK   15  A    between atoms: C_42  and  O_43
REMARK   16  A    between atoms: O_43  and  C_44
REMARK                            x       y       z     vdW  Elec       q    Type
REMARK                         _______ _______ _______ _____ _____    ______ ____
ROOT
ATOM      1  N   UNL     1      -8.767   1.603 128.540  0.00  0.00    +0.000 N 
ATOM      2  C   UNL     1      -7.638   2.411 128.510  0.00  0.00    +0.000 C 
ATOM      3  O   UNL     1      -7.841   3.546 128.438  0.00  0.00    +0.000 OA
ATOM      4  C   UNL     1      -6.570   1.516 127.862  0.00  0.00    +0.000 C 
ATOM      5  C   UNL     1      -7.010   1.635 126.464  0.00  0.00    +0.000 A 
ATOM      6  C   UNL     1      -6.131   1.932 125.228  0.00  0.00    +0.000 A 
ATOM      7  C   UNL     1      -6.745   2.291 124.044  0.00  0.00    +0.000 A 
ATOM      8 CL   UNL     1      -6.315   3.770 123.174  0.00  0.00    +0.000 Cl
ATOM      9  C   UNL     1      -8.053   1.853 124.006  0.00  0.00    +0.000 A 
ATOM     10  C   UNL     1      -8.833   1.410 125.302  0.00  0.00    +0.000 A 
ATOM     11  C   UNL     1      -8.443   1.702 126.682  0.00  0.00    +0.000 A 
ENDROOT
BRANCH   4  12
ATOM     12  C   UNL     1      -5.352   2.317 128.047  0.00  0.00    +0.000 A 
ATOM     13  C   UNL     1      -4.674   2.628 126.896  0.00  0.00    +0.000 A 
ATOM     14  N   UNL     1      -3.641   3.432 126.828  0.00  0.00    +0.000 NA
ATOM     15  C   UNL     1      -3.267   3.919 127.996  0.00  0.00    +0.000 A 
ATOM     16  N   UNL     1      -3.770   3.591 129.217  0.00  0.00    +0.000 NA
ATOM     17  C   UNL     1      -4.790   2.712 129.276  0.00  0.00    +0.000 A 
BRANCH  15  18
ATOM     18  O   UNL     1      -2.200   4.759 127.851  0.00  0.00    +0.000 OA
ATOM     19  C   UNL     1      -2.520   6.074 128.221  0.00  0.00    +0.000 C 
ENDBRANCH  15  18
BRANCH  17  20
ATOM     20  O   UNL     1      -5.144   2.423 130.594  0.00  0.00    +0.000 OA
ATOM     21  C   UNL     1      -4.570   2.681 131.896  0.00  0.00    +0.000 C 
ENDBRANCH  17  20
ENDBRANCH   4  12
BRANCH   4  22
ATOM     22  N   UNL     1      -6.728  -0.042 128.209  0.00  0.00    +0.000 NA
ATOM     23  C   UNL     1      -6.375  -0.521 129.624  0.00  0.00    +0.000 C 
ATOM     24  C   UNL     1      -4.976  -1.178 129.634  0.00  0.00    +0.000 C 
ATOM     25  C   UNL     1      -5.040  -1.873 128.287  0.00  0.00    +0.000 C 
ATOM     26  C   UNL     1      -5.964  -1.044 127.345  0.00  0.00    +0.000 C 
BRANCH  26  27
ATOM     27  C   UNL     1      -7.029  -1.848 126.518  0.00  0.00    +0.000 C 
ATOM     28  O   UNL     1      -7.946  -2.412 127.131  0.00  0.00    +0.000 OA
ATOM     29  N   UNL     1      -7.128  -1.815 125.135  0.00  0.00    +0.000 N 
ATOM     30  C   UNL     1      -6.035  -1.631 124.198  0.00  0.00    +0.000 C 
ATOM     31  C   UNL     1      -8.431  -2.227 124.559  0.00  0.00    +0.000 C 
ENDBRANCH  26  27
BRANCH  24  32
ATOM     32  O   UNL     1      -3.796  -0.406 129.837  0.00  0.00    +0.000 OA
ATOM     33  H   UNL     1      -3.141  -0.932 130.338  0.00  0.00    +0.000 HD
ENDBRANCH  24  32
ENDBRANCH   4  22
BRANCH   1  34
ATOM     34  S   UNL     1      -9.313   2.698 130.361  0.00  0.00    +0.000 S 
ATOM     35  O   UNL     1      -9.655   1.592 131.240  0.00  0.00    +0.000 OA
ATOM     36  O   UNL     1     -10.254   3.767 130.102  0.00  0.00    +0.000 OA
BRANCH  34  40
ATOM     37  C   UNL     1      -6.895   5.354 134.116  0.00  0.00    +0.000 A 
ATOM     38  C   UNL     1      -7.474   4.106 134.278  0.00  0.00    +0.000 A 
ATOM     39  C   UNL     1      -8.080   3.365 133.148  0.00  0.00    +0.000 A 
ATOM     40  C   UNL     1      -8.165   3.849 131.777  0.00  0.00    +0.000 A 
ATOM     41  C   UNL     1      -7.676   5.150 131.694  0.00  0.00    +0.000 A 
ATOM     42  C   UNL     1      -6.994   5.853 132.833  0.00  0.00    +0.000 A 
BRANCH  37  44
ATOM     43  C   UNL     1      -6.898   6.194 136.388  0.00  0.00    +0.000 C 
ATOM     44  O   UNL     1      -6.204   5.933 135.154  0.00  0.00    +0.000 OA
ENDBRANCH  37  44
BRANCH  41  45
ATOM     45  O   UNL     1      -7.900   5.795 130.526  0.00  0.00    +0.000 OA
ATOM     46  C   UNL     1      -8.714   6.930 130.717  0.00  0.00    +0.000 C 
ENDBRANCH  41  45
ENDBRANCH  34  40
ENDBRANCH   1  34
TORSDOF 10
ENDMDL
MODEL 7
REMARK VINA RESULT:      -8.1      2.348      3.141
REMARK  Name = CHEMBL1779404
REMARK  16 active torsions:
REMARK  status: ('A' for Active; 'I' for Inactive)
REMARK    1  A    between atoms: C_1  and  O_2
REMARK    2  A    between atoms: O_2  and  C_3
REMARK    3  A    between atoms: C_6  and  S_7
REMARK    4  A    between atoms: S_7  and  N_10
REMARK    5  A    between atoms: C_13  and  C_14
REMARK    6  A    between atoms: C_13  and  N_24
REMARK    7  A    between atoms: C_17  and  O_18
REMARK    8  A    between atoms: O_18  and  C_19
REMARK    9  A    between atoms: C_21  and  O_22
REMARK   10  A    between atoms: O_22  and  C_23
REMARK   11  A    between atoms: C_26  and  O_27
REMARK   12  A    between atoms: C_29  and  C_30
REMARK   13  A    between atoms: N_32  and  C_33
REMARK   14  A    between atoms: N_32  and  C_34
REMARK   15  A    between atoms: C_42  and  O_43
REMARK   16  A    between atoms: O_43  and  C_44
REMARK                            x       y       z     vdW  Elec       q    Type
REMARK                         _______ _______ _______ _____ _____    ______ ____
ROOT
ATOM      1  N   UNL     1      -5.408   0.572 130.617  0.00  0.00    +0.000 N 
ATOM      2  C   UNL     1      -5.715   1.278 129.460  0.00  0.00    +0.000 C 
ATOM      3  O   UNL     1      -4.972   1.146 128.585  0.00  0.00    +0.000 OA
ATOM      4  C   UNL     1      -6.483   2.504 129.978  0.00  0.00    +0.000 C 
ATOM      5  C   UNL     1      -5.336   3.286 130.462  0.00  0.00    +0.000 A 
ATOM      6  C   UNL     1      -5.046   4.782 130.200  0.00  0.00    +0.000 A 
ATOM      7  C   UNL     1      -3.789   5.277 130.487  0.00  0.00    +0.000 A 
ATOM      8 CL   UNL     1      -2.825   6.145 129.284  0.00  0.00    +0.000 Cl
ATOM      9  C   UNL     1      -3.142   4.490 131.417  0.00  0.00    +0.000 A 
ATOM     10  C   UNL     1      -3.604   3.020 131.747  0.00  0.00    +0.000 A 
ATOM     11  C   UNL     1      -4.502   2.198 130.935  0.00  0.00    +0.000 A 
ENDROOT
BRANCH   4  12
ATOM     12  C   UNL     1      -6.975   3.103 128.730  0.00  0.00    +0.000 A 
ATOM     13  C   UNL     1      -6.605   2.451 127.581  0.00  0.00    +0.000 A 
ATOM     14  N   UNL     1      -7.039   2.746 126.379  0.00  0.00    +0.000 NA
ATOM     15  C   UNL     1      -7.867   3.772 126.349  0.00  0.00    +0.000 A 
ATOM     16  N   UNL     1      -8.209   4.578 127.391  0.00  0.00    +0.000 NA
ATOM     17  C   UNL     1      -7.705   4.301 128.608  0.00  0.00    +0.000 A 
BRANCH  15  18
ATOM     18  O   UNL     1      -8.291   4.013 125.073  0.00  0.00    +0.000 OA
ATOM     19  C   UNL     1      -8.594   2.824 124.392  0.00  0.00    +0.000 C 
ENDBRANCH  15  18
BRANCH  17  20
ATOM     20  O   UNL     1      -8.087   5.254 129.552  0.00  0.00    +0.000 OA
ATOM     21  C   UNL     1      -9.193   6.175 129.699  0.00  0.00    +0.000 C 
ENDBRANCH  17  20
ENDBRANCH   4  12
BRANCH   4  22
ATOM     22  N   UNL     1      -7.363   2.215 131.288  0.00  0.00    +0.000 NA
ATOM     23  C   UNL     1      -8.706   1.490 131.129  0.00  0.00    +0.000 C 
ATOM     24  C   UNL     1      -9.872   2.503 131.184  0.00  0.00    +0.000 C 
ATOM     25  C   UNL     1      -9.315   3.436 132.242  0.00  0.00    +0.000 C 
ATOM     26  C   UNL     1      -7.759   3.409 132.157  0.00  0.00    +0.000 C 
BRANCH  26  27
ATOM     27  C   UNL     1      -6.982   3.271 133.514  0.00  0.00    +0.000 C 
ATOM     28  O   UNL     1      -7.063   2.201 134.132  0.00  0.00    +0.000 OA
ATOM     29  N   UNL     1      -6.056   4.194 133.978  0.00  0.00    +0.000 N 
ATOM     30  C   UNL     1      -6.071   5.624 133.736  0.00  0.00    +0.000 C 
ATOM     31  C   UNL     1      -5.094   3.705 134.996  0.00  0.00    +0.000 C 
ENDBRANCH  26  27
BRANCH  24  32
ATOM     32  O   UNL     1     -10.338   3.163 130.011  0.00  0.00    +0.000 OA
ATOM     33  H   UNL     1     -11.221   2.820 129.769  0.00  0.00    +0.000 HD
ENDBRANCH  24  32
ENDBRANCH   4  22
BRANCH   1  34
ATOM     34  S   UNL     1      -5.550  -1.227 129.370  0.00  0.00    +0.000 S 
ATOM     35  O   UNL     1      -6.561  -1.974 130.101  0.00  0.00    +0.000 OA
ATOM     36  O   UNL     1      -4.254  -1.805 129.083  0.00  0.00    +0.000 OA
BRANCH  34  40
ATOM     37  C   UNL     1      -7.298  -1.585 124.489  0.00  0.00    +0.000 A 
ATOM     38  C   UNL     1      -6.159  -0.895 124.873  0.00  0.00    +0.000 A 
ATOM     39  C   UNL     1      -5.669  -0.896 126.270  0.00  0.00    +0.000 A 
ATOM     40  C   UNL     1      -6.314  -1.577 127.384  0.00  0.00    +0.000 A 
ATOM     41  C   UNL     1      -7.511  -2.155 126.969  0.00  0.00    +0.000 A 
ATOM     42  C   UNL     1      -7.949  -2.210 125.533  0.00  0.00    +0.000 A 
BRANCH  37  44
ATOM     43  C   UNL     1      -8.973  -1.394 122.751  0.00  0.00    +0.000 C 
ATOM     44  O   UNL     1      -7.625  -1.689 123.158  0.00  0.00    +0.000 OA
ENDBRANCH  37  44
BRANCH  41  45
ATOM     45  O   UNL     1      -8.314  -2.626 127.950  0.00  0.00    +0.000 OA
ATOM     46  C   UNL     1      -8.945  -3.825 127.563  0.00  0.00    +0.000 C 
ENDBRANCH  41  45
ENDBRANCH  34  40
ENDBRANCH   1  34
TORSDOF 10
ENDMDL
MODEL 8
REMARK VINA RESULT:      -7.9      2.574      4.049
REMARK  Name = CHEMBL1779404
REMARK  16 active torsions:
REMARK  status: ('A' for Active; 'I' for Inactive)
REMARK    1  A    between atoms: C_1  and  O_2
REMARK    2  A    between atoms: O_2  and  C_3
REMARK    3  A    between atoms: C_6  and  S_7
REMARK    4  A    between atoms: S_7  and  N_10
REMARK    5  A    between atoms: C_13  and  C_14
REMARK    6  A    between atoms: C_13  and  N_24
REMARK    7  A    between atoms: C_17  and  O_18
REMARK    8  A    between atoms: O_18  and  C_19
REMARK    9  A    between atoms: C_21  and  O_22
REMARK   10  A    between atoms: O_22  and  C_23
REMARK   11  A    between atoms: C_26  and  O_27
REMARK   12  A    between atoms: C_29  and  C_30
REMARK   13  A    between atoms: N_32  and  C_33
REMARK   14  A    between atoms: N_32  and  C_34
REMARK   15  A    between atoms: C_42  and  O_43
REMARK   16  A    between atoms: O_43  and  C_44
REMARK                            x       y       z     vdW  Elec       q    Type
REMARK                         _______ _______ _______ _____ _____    ______ ____
ROOT
ATOM      1  N   UNL     1      -5.534   0.539 130.867  0.00  0.00    +0.000 N 
ATOM      2  C   UNL     1      -5.614   1.185 129.640  0.00  0.00    +0.000 C 
ATOM      3  O   UNL     1      -4.795   0.904 128.876  0.00  0.00    +0.000 OA
ATOM      4  C   UNL     1      -6.281   2.527 129.981  0.00  0.00    +0.000 C 
ATOM      5  C   UNL     1      -5.112   3.208 130.558  0.00  0.00    +0.000 A 
ATOM      6  C   UNL     1      -4.611   4.636 130.244  0.00  0.00    +0.000 A 
ATOM      7  C   UNL     1      -3.346   5.004 130.656  0.00  0.00    +0.000 A 
ATOM      8 CL   UNL     1      -2.147   5.662 129.533  0.00  0.00    +0.000 Cl
ATOM      9  C   UNL     1      -2.914   4.221 131.707  0.00  0.00    +0.000 A 
ATOM     10  C   UNL     1      -3.589   2.843 132.065  0.00  0.00    +0.000 A 
ATOM     11  C   UNL     1      -4.479   2.069 131.197  0.00  0.00    +0.000 A 
ENDROOT
BRANCH   4  12
ATOM     12  C   UNL     1      -6.545   3.082 128.647  0.00  0.00    +0.000 A 
ATOM     13  C   UNL     1      -5.920   4.272 128.372  0.00  0.00    +0.000 A 
ATOM     14  N   UNL     1      -5.921   4.867 127.204  0.00  0.00    +0.000 NA
ATOM     15  C   UNL     1      -6.618   4.231 126.282  0.00  0.00    +0.000 A 
ATOM     16  N   UNL     1      -7.384   3.120 126.459  0.00  0.00    +0.000 NA
ATOM     17  C   UNL     1      -7.424   2.556 127.681  0.00  0.00    +0.000 A 
BRANCH  15  18
ATOM     18  O   UNL     1      -6.563   4.895 125.090  0.00  0.00    +0.000 OA
ATOM     19  C   UNL     1      -5.768   4.217 124.153  0.00  0.00    +0.000 C 
ENDBRANCH  15  18
BRANCH  17  20
ATOM     20  O   UNL     1      -8.306   1.476 127.720  0.00  0.00    +0.000 OA
ATOM     21  C   UNL     1      -9.156   0.804 126.763  0.00  0.00    +0.000 C 
ENDBRANCH  17  20
ENDBRANCH   4  12
BRANCH   4  22
ATOM     22  N   UNL     1      -7.338   2.441 131.185  0.00  0.00    +0.000 NA
ATOM     23  C   UNL     1      -8.719   1.831 130.910  0.00  0.00    +0.000 C 
ATOM     24  C   UNL     1      -9.774   2.949 130.734  0.00  0.00    +0.000 C 
ATOM     25  C   UNL     1      -9.255   3.919 131.779  0.00  0.00    +0.000 C 
ATOM     26  C   UNL     1      -7.712   3.741 131.898  0.00  0.00    +0.000 C 
BRANCH  26  27
ATOM     27  C   UNL     1      -7.123   3.656 133.351  0.00  0.00    +0.000 C 
ATOM     28  O   UNL     1      -7.423   2.679 134.051  0.00  0.00    +0.000 OA
ATOM     29  N   UNL     1      -6.137   4.499 133.842  0.00  0.00    +0.000 N 
ATOM     30  C   UNL     1      -5.926   5.885 133.467  0.00  0.00    +0.000 C 
ATOM     31  C   UNL     1      -5.377   4.008 135.017  0.00  0.00    +0.000 C 
ENDBRANCH  26  27
BRANCH  24  32
ATOM     32  O   UNL     1     -10.023   3.539 129.462  0.00  0.00    +0.000 OA
ATOM     33  H   UNL     1      -9.393   4.272 129.311  0.00  0.00    +0.000 HD
ENDBRANCH  24  32
ENDBRANCH   4  22
BRANCH   1  34
ATOM     34  S   UNL     1      -5.749  -1.322 129.724  0.00  0.00    +0.000 S 
ATOM     35  O   UNL     1      -6.515  -2.122 130.666  0.00  0.00    +0.000 OA
ATOM     36  O   UNL     1      -4.487  -1.793 129.195  0.00  0.00    +0.000 OA
BRANCH  34  40
ATOM     37  C   UNL     1      -8.482  -3.003 125.637  0.00  0.00    +0.000 A 
ATOM     38  C   UNL     1      -8.791  -3.272 126.961  0.00  0.00    +0.000 A 
ATOM     39  C   UNL     1      -8.018  -2.698 128.085  0.00  0.00    +0.000 A 
ATOM     40  C   UNL     1      -6.858  -1.829 127.947  0.00  0.00    +0.000 A 
ATOM     41  C   UNL     1      -6.520  -1.685 126.603  0.00  0.00    +0.000 A 
ATOM     42  C   UNL     1      -7.363  -2.210 125.477  0.00  0.00    +0.000 A 
BRANCH  37  44
ATOM     43  C   UNL     1      -9.073  -2.977 123.288  0.00  0.00    +0.000 C 
ATOM     44  O   UNL     1      -9.320  -3.425 124.633  0.00  0.00    +0.000 OA
ENDBRANCH  37  44
BRANCH  41  45
ATOM     45  O   UNL     1      -5.333  -1.086 126.351  0.00  0.00    +0.000 OA
ATOM     46  C   UNL     1      -5.508   0.110 125.626  0.00  0.00    +0.000 C 
ENDBRANCH  41  45
ENDBRANCH  34  40
ENDBRANCH   1  34
TORSDOF 10
ENDMDL
MODEL 9
REMARK VINA RESULT:      -7.9      3.832      6.991
REMARK  Name = CHEMBL1779404
REMARK  16 active torsions:
REMARK  status: ('A' for Active; 'I' for Inactive)
REMARK    1  A    between atoms: C_1  and  O_2
REMARK    2  A    between atoms: O_2  and  C_3
REMARK    3  A    between atoms: C_6  and  S_7
REMARK    4  A    between atoms: S_7  and  N_10
REMARK    5  A    between atoms: C_13  and  C_14
REMARK    6  A    between atoms: C_13  and  N_24
REMARK    7  A    between atoms: C_17  and  O_18
REMARK    8  A    between atoms: O_18  and  C_19
REMARK    9  A    between atoms: C_21  and  O_22
REMARK   10  A    between atoms: O_22  and  C_23
REMARK   11  A    between atoms: C_26  and  O_27
REMARK   12  A    between atoms: C_29  and  C_30
REMARK   13  A    between atoms: N_32  and  C_33
REMARK   14  A    between atoms: N_32  and  C_34
REMARK   15  A    between atoms: C_42  and  O_43
REMARK   16  A    between atoms: O_43  and  C_44
REMARK                            x       y       z     vdW  Elec       q    Type
REMARK                         _______ _______ _______ _____ _____    ______ ____
ROOT
ATOM      1  N   UNL     1      -8.267   0.079 131.339  0.00  0.00    +0.000 N 
ATOM      2  C   UNL     1      -7.700   0.943 130.411  0.00  0.00    +0.000 C 
ATOM      3  O   UNL     1      -8.440   1.441 129.678  0.00  0.00    +0.000 OA
ATOM      4  C   UNL     1      -6.282   0.382 130.215  0.00  0.00    +0.000 C 
ATOM      5  C   UNL     1      -6.620  -0.751 129.341  0.00  0.00    +0.000 A 
ATOM      6  C   UNL     1      -5.921  -1.156 128.022  0.00  0.00    +0.000 A 
ATOM      7  C   UNL     1      -6.545  -2.066 127.191  0.00  0.00    +0.000 A 
ATOM      8 CL   UNL     1      -6.856  -1.718 125.484  0.00  0.00    +0.000 Cl
ATOM      9  C   UNL     1      -7.448  -2.843 127.887  0.00  0.00    +0.000 A 
ATOM     10  C   UNL     1      -7.991  -2.437 129.309  0.00  0.00    +0.000 A 
ATOM     11  C   UNL     1      -7.902  -1.108 129.917  0.00  0.00    +0.000 A 
ENDROOT
BRANCH   4  12
ATOM     12  C   UNL     1      -5.650   1.434 129.408  0.00  0.00    +0.000 A 
ATOM     13  C   UNL     1      -5.089   1.012 128.229  0.00  0.00    +0.000 A 
ATOM     14  N   UNL     1      -4.590   1.803 127.311  0.00  0.00    +0.000 NA
ATOM     15  C   UNL     1      -4.641   3.083 127.625  0.00  0.00    +0.000 A 
ATOM     16  N   UNL     1      -5.050   3.619 128.807  0.00  0.00    +0.000 NA
ATOM     17  C   UNL     1      -5.501   2.788 129.766  0.00  0.00    +0.000 A 
BRANCH  15  18
ATOM     18  O   UNL     1      -4.121   3.849 126.620  0.00  0.00    +0.000 OA
ATOM     19  C   UNL     1      -2.741   3.645 126.472  0.00  0.00    +0.000 C 
ENDBRANCH  15  18
BRANCH  17  20
ATOM     20  O   UNL     1      -5.812   3.476 130.938  0.00  0.00    +0.000 OA
ATOM     21  C   UNL     1      -5.746   4.854 131.374  0.00  0.00    +0.000 C 
ENDBRANCH  17  20
ENDBRANCH   4  12
BRANCH   4  22
ATOM     22  N   UNL     1      -5.659  -0.289 131.532  0.00  0.00    +0.000 NA
ATOM     23  C   UNL     1      -5.389   0.599 132.754  0.00  0.00    +0.000 C 
ATOM     24  C   UNL     1      -3.887   0.955 132.837  0.00  0.00    +0.000 C 
ATOM     25  C   UNL     1      -3.312  -0.368 132.367  0.00  0.00    +0.000 C 
ATOM     26  C   UNL     1      -4.331  -1.032 131.392  0.00  0.00    +0.000 C 
BRANCH  26  27
ATOM     27  C   UNL     1      -4.628  -2.557 131.616  0.00  0.00    +0.000 C 
ATOM     28  O   UNL     1      -5.138  -2.905 132.691  0.00  0.00    +0.000 OA
ATOM     29  N   UNL     1      -4.539  -3.522 130.624  0.00  0.00    +0.000 N 
ATOM     30  C   UNL     1      -3.626  -3.513 129.496  0.00  0.00    +0.000 C 
ATOM     31  C   UNL     1      -5.285  -4.781 130.863  0.00  0.00    +0.000 C 
ENDBRANCH  26  27
BRANCH  24  32
ATOM     32  O   UNL     1      -3.357   2.094 132.165  0.00  0.00    +0.000 OA
ATOM     33  H   UNL     1      -2.455   1.895 131.843  0.00  0.00    +0.000 HD
ENDBRANCH  24  32
ENDBRANCH   4  22
BRANCH   1  34
ATOM     34  S   UNL     1      -9.421   1.817 132.020  0.00  0.00    +0.000 S 
ATOM     35  O   UNL     1      -8.801   2.053 133.314  0.00  0.00    +0.000 OA
ATOM     36  O   UNL     1     -10.849   1.613 131.900  0.00  0.00    +0.000 OA
BRANCH  34  40
ATOM     37  C   UNL     1      -9.263   6.644 130.103  0.00  0.00    +0.000 A 
ATOM     38  C   UNL     1      -9.214   5.488 129.341  0.00  0.00    +0.000 A 
ATOM     39  C   UNL     1      -9.343   4.141 129.940  0.00  0.00    +0.000 A 
ATOM     40  C   UNL     1      -9.505   3.868 131.361  0.00  0.00    +0.000 A 
ATOM     41  C   UNL     1      -9.430   5.051 132.092  0.00  0.00    +0.000 A 
ATOM     42  C   UNL     1      -9.379   6.413 131.459  0.00  0.00    +0.000 A 
BRANCH  37  44
ATOM     43  C   UNL     1     -10.390   8.170 128.597  0.00  0.00    +0.000 C 
ATOM     44  O   UNL     1      -9.301   7.873 129.490  0.00  0.00    +0.000 OA
ENDBRANCH  37  44
BRANCH  41  45
ATOM     45  O   UNL     1      -9.343   4.915 133.435  0.00  0.00    +0.000 OA
ATOM     46  C   UNL     1      -8.253   5.644 133.953  0.00  0.00    +0.000 C 
ENDBRANCH  41  45
ENDBRANCH  34  40
ENDBRANCH   1  34
TORSDOF 10
ENDMDL
