MODEL 1
REMARK VINA RESULT:      -8.5      0.000      0.000
REMARK  Name = CHEMBL1643584
REMARK  14 active torsions:
REMARK  status: ('A' for Active; 'I' for Inactive)
REMARK    1  A    between atoms: C_1  and  C_2
REMARK    2  A    between atoms: C_2  and  C_3
REMARK    3  A    between atoms: C_3  and  C_4
REMARK    4  A    between atoms: C_4  and  N_5
REMARK    5  A    between atoms: N_5  and  C_6
REMARK    6  A    between atoms: C_6  and  C_7
REMARK    7  A    between atoms: C_10  and  C_11
REMARK    8  A    between atoms: C_13  and  C_14
REMARK    9  A    between atoms: C_14  and  N_15
REMARK   10  A    between atoms: N_15  and  C_16
REMARK   11  A    between atoms: N_15  and  S_21
REMARK   12  A    between atoms: S_21  and  C_24
REMARK   13  A    between atoms: C_27  and  O_28
REMARK   14  A    between atoms: O_28  and  C_29
REMARK                            x       y       z     vdW  Elec       q    Type
REMARK                         _______ _______ _______ _____ _____    ______ ____
ROOT
ATOM      1  C   UNL     1      -8.033   2.669 128.911  0.00  0.00    +0.000 A 
ATOM      2  N   UNL     1      -8.633   1.643 128.324  0.00  0.00    +0.000 NA
ATOM      3  C   UNL     1      -7.799   1.056 127.378  0.00  0.00    +0.000 A 
ATOM      4  C   UNL     1      -6.465   1.282 127.678  0.00  0.00    +0.000 A 
ATOM      5  S   UNL     1      -6.322   2.595 128.794  0.00  0.00    +0.000 S 
ENDROOT
BRANCH   1   9
ATOM      6  C   UNL     1     -10.117   5.470 131.435  0.00  0.00    +0.000 A 
ATOM      7  C   UNL     1      -8.812   5.770 131.026  0.00  0.00    +0.000 A 
ATOM      8  C   UNL     1      -8.144   4.928 130.118  0.00  0.00    +0.000 A 
ATOM      9  C   UNL     1      -8.723   3.709 129.706  0.00  0.00    +0.000 A 
ATOM     10  C   UNL     1     -10.043   3.451 130.088  0.00  0.00    +0.000 A 
ATOM     11  C   UNL     1     -10.721   4.301 130.960  0.00  0.00    +0.000 A 
BRANCH   6  12
ATOM     12  C   UNL     1     -10.954   6.449 132.220  0.00  0.00    +0.000 C 
BRANCH  12  13
ATOM     13  N   UNL     1     -12.333   6.373 131.735  0.00  0.00    +0.000 NA
ATOM     14  H   UNL     1     -12.398   5.647 131.022  0.00  0.00    +0.000 HD
BRANCH  13  15
ATOM     15  C   UNL     1     -12.777   7.652 131.204  0.00  0.00    +0.000 C 
BRANCH  15  16
ATOM     16  C   UNL     1     -12.071   7.936 129.881  0.00  0.00    +0.000 C 
BRANCH  16  18
ATOM     17  C   UNL     1     -13.220  10.148 130.145  0.00  0.00    +0.000 C 
ATOM     18  C   UNL     1     -12.756   9.093 129.159  0.00  0.00    +0.000 C 
ENDBRANCH  16  18
ENDBRANCH  15  16
ENDBRANCH  13  15
ENDBRANCH  12  13
ENDBRANCH   6  12
ENDBRANCH   1   9
BRANCH   3  19
ATOM     19  C   UNL     1      -8.346   0.274 126.178  0.00  0.00    +0.000 C 
BRANCH  19  20
ATOM     20  N   UNL     1      -7.692   0.558 124.790  0.00  0.00    +0.000 NA
BRANCH  20  21
ATOM     21  C   UNL     1      -7.393  -0.742 123.975  0.00  0.00    +0.000 C 
ATOM     22  C   UNL     1      -6.021  -1.378 124.317  0.00  0.00    +0.000 C 
ATOM     23  C   UNL     1      -6.038  -2.782 123.759  0.00  0.00    +0.000 C 
ATOM     24  C   UNL     1      -7.435  -3.250 123.980  0.00  0.00    +0.000 C 
ATOM     25  C   UNL     1      -8.158  -1.990 124.406  0.00  0.00    +0.000 C 
ENDBRANCH  20  21
BRANCH  20  26
ATOM     26  S   UNL     1      -8.817   1.765 123.972  0.00  0.00    +0.000 S 
ATOM     27  O   UNL     1      -9.852   0.954 123.329  0.00  0.00    +0.000 OA
ATOM     28  O   UNL     1      -9.171   2.762 124.943  0.00  0.00    +0.000 OA
BRANCH  26  29
ATOM     29  C   UNL     1      -7.944   2.584 122.638  0.00  0.00    +0.000 A 
ATOM     30  C   UNL     1      -6.589   2.824 122.508  0.00  0.00    +0.000 A 
ATOM     31  C   UNL     1      -6.137   3.626 121.409  0.00  0.00    +0.000 A 
ATOM     32  C   UNL     1      -6.982   4.020 120.355  0.00  0.00    +0.000 A 
ATOM     33  C   UNL     1      -8.317   3.789 120.524  0.00  0.00    +0.000 A 
ATOM     34  C   UNL     1      -8.727   3.257 121.748  0.00  0.00    +0.000 A 
BRANCH  32  35
ATOM     35  O   UNL     1      -6.450   4.682 119.285  0.00  0.00    +0.000 OA
ATOM     36  C   UNL     1      -5.359   5.583 119.535  0.00  0.00    +0.000 C 
ENDBRANCH  32  35
ENDBRANCH  26  29
ENDBRANCH  20  26
ENDBRANCH  19  20
ENDBRANCH   3  19
TORSDOF 12
ENDMDL
MODEL 2
REMARK VINA RESULT:      -8.4      4.082      7.483
REMARK  Name = CHEMBL1643584
REMARK  14 active torsions:
REMARK  status: ('A' for Active; 'I' for Inactive)
REMARK    1  A    between atoms: C_1  and  C_2
REMARK    2  A    between atoms: C_2  and  C_3
REMARK    3  A    between atoms: C_3  and  C_4
REMARK    4  A    between atoms: C_4  and  N_5
REMARK    5  A    between atoms: N_5  and  C_6
REMARK    6  A    between atoms: C_6  and  C_7
REMARK    7  A    between atoms: C_10  and  C_11
REMARK    8  A    between atoms: C_13  and  C_14
REMARK    9  A    between atoms: C_14  and  N_15
REMARK   10  A    between atoms: N_15  and  C_16
REMARK   11  A    between atoms: N_15  and  S_21
REMARK   12  A    between atoms: S_21  and  C_24
REMARK   13  A    between atoms: C_27  and  O_28
REMARK   14  A    between atoms: O_28  and  C_29
REMARK                            x       y       z     vdW  Elec       q    Type
REMARK                         _______ _______ _______ _____ _____    ______ ____
ROOT
ATOM      1  C   UNL     1      -7.068  -1.794 125.331  0.00  0.00    +0.000 A 
ATOM      2  N   UNL     1      -8.015  -1.034 124.799  0.00  0.00    +0.000 NA
ATOM      3  C   UNL     1      -7.582  -0.465 123.606  0.00  0.00    +0.000 A 
ATOM      4  C   UNL     1      -6.591  -1.232 123.016  0.00  0.00    +0.000 A 
ATOM      5  S   UNL     1      -5.907  -2.314 124.179  0.00  0.00    +0.000 S 
ENDROOT
BRANCH   1   9
ATOM      6  C   UNL     1      -6.911  -2.903 129.491  0.00  0.00    +0.000 A 
ATOM      7  C   UNL     1      -8.115  -3.061 128.794  0.00  0.00    +0.000 A 
ATOM      8  C   UNL     1      -8.171  -2.808 127.411  0.00  0.00    +0.000 A 
ATOM      9  C   UNL     1      -7.057  -2.272 126.732  0.00  0.00    +0.000 A 
ATOM     10  C   UNL     1      -5.853  -2.164 127.434  0.00  0.00    +0.000 A 
ATOM     11  C   UNL     1      -5.785  -2.447 128.797  0.00  0.00    +0.000 A 
BRANCH   6  12
ATOM     12  C   UNL     1      -6.742  -3.374 130.914  0.00  0.00    +0.000 C 
BRANCH  12  13
ATOM     13  N   UNL     1      -6.507  -2.207 131.765  0.00  0.00    +0.000 NA
ATOM     14  H   UNL     1      -5.807  -2.441 132.468  0.00  0.00    +0.000 HD
BRANCH  13  15
ATOM     15  C   UNL     1      -7.737  -1.757 132.397  0.00  0.00    +0.000 C 
BRANCH  15  16
ATOM     16  C   UNL     1      -7.842  -0.238 132.302  0.00  0.00    +0.000 C 
BRANCH  16  18
ATOM     17  C   UNL     1      -9.446   1.657 131.958  0.00  0.00    +0.000 C 
ATOM     18  C   UNL     1      -9.233   0.162 131.816  0.00  0.00    +0.000 C 
ENDBRANCH  16  18
ENDBRANCH  15  16
ENDBRANCH  13  15
ENDBRANCH  12  13
ENDBRANCH   6  12
ENDBRANCH   1   9
BRANCH   3  19
ATOM     19  C   UNL     1      -8.165   0.847 123.067  0.00  0.00    +0.000 C 
BRANCH  19  20
ATOM     20  N   UNL     1      -7.582   2.172 123.648  0.00  0.00    +0.000 NA
BRANCH  20  21
ATOM     21  C   UNL     1      -7.424   3.296 122.573  0.00  0.00    +0.000 C 
ATOM     22  C   UNL     1      -6.249   3.046 121.592  0.00  0.00    +0.000 C 
ATOM     23  C   UNL     1      -6.451   3.976 120.421  0.00  0.00    +0.000 C 
ATOM     24  C   UNL     1      -7.927   4.004 120.220  0.00  0.00    +0.000 C 
ATOM     25  C   UNL     1      -8.455   3.295 121.450  0.00  0.00    +0.000 C 
ENDBRANCH  20  21
BRANCH  20  26
ATOM     26  S   UNL     1      -8.672   2.587 125.073  0.00  0.00    +0.000 S 
ATOM     27  O   UNL     1      -8.692   4.049 125.132  0.00  0.00    +0.000 OA
ATOM     28  O   UNL     1      -9.894   1.848 124.920  0.00  0.00    +0.000 OA
BRANCH  26  29
ATOM     29  C   UNL     1      -7.894   2.050 126.596  0.00  0.00    +0.000 A 
ATOM     30  C   UNL     1      -8.356   1.145 127.533  0.00  0.00    +0.000 A 
ATOM     31  C   UNL     1      -7.615   0.978 128.749  0.00  0.00    +0.000 A 
ATOM     32  C   UNL     1      -6.343   1.547 128.950  0.00  0.00    +0.000 A 
ATOM     33  C   UNL     1      -5.926   2.451 128.017  0.00  0.00    +0.000 A 
ATOM     34  C   UNL     1      -6.820   2.786 126.999  0.00  0.00    +0.000 A 
BRANCH  32  35
ATOM     35  O   UNL     1      -5.650   1.243 130.087  0.00  0.00    +0.000 OA
ATOM     36  C   UNL     1      -4.306   0.756 129.937  0.00  0.00    +0.000 C 
ENDBRANCH  32  35
ENDBRANCH  26  29
ENDBRANCH  20  26
ENDBRANCH  19  20
ENDBRANCH   3  19
TORSDOF 12
ENDMDL
MODEL 3
REMARK VINA RESULT:      -8.3      2.383      4.689
REMARK  Name = CHEMBL1643584
REMARK  14 active torsions:
REMARK  status: ('A' for Active; 'I' for Inactive)
REMARK    1  A    between atoms: C_1  and  C_2
REMARK    2  A    between atoms: C_2  and  C_3
REMARK    3  A    between atoms: C_3  and  C_4
REMARK    4  A    between atoms: C_4  and  N_5
REMARK    5  A    between atoms: N_5  and  C_6
REMARK    6  A    between atoms: C_6  and  C_7
REMARK    7  A    between atoms: C_10  and  C_11
REMARK    8  A    between atoms: C_13  and  C_14
REMARK    9  A    between atoms: C_14  and  N_15
REMARK   10  A    between atoms: N_15  and  C_16
REMARK   11  A    between atoms: N_15  and  S_21
REMARK   12  A    between atoms: S_21  and  C_24
REMARK   13  A    between atoms: C_27  and  O_28
REMARK   14  A    between atoms: O_28  and  C_29
REMARK                            x       y       z     vdW  Elec       q    Type
REMARK                         _______ _______ _______ _____ _____    ______ ____
ROOT
ATOM      1  C   UNL     1      -8.687   3.325 129.551  0.00  0.00    +0.000 A 
ATOM      2  N   UNL     1      -8.976   2.401 128.646  0.00  0.00    +0.000 NA
ATOM      3  C   UNL     1      -7.829   1.719 128.250  0.00  0.00    +0.000 A 
ATOM      4  C   UNL     1      -6.860   1.754 129.240  0.00  0.00    +0.000 A 
ATOM      5  S   UNL     1      -7.208   3.017 130.368  0.00  0.00    +0.000 S 
ENDROOT
BRANCH   1   9
ATOM      6  C   UNL     1     -11.201   6.718 130.406  0.00  0.00    +0.000 A 
ATOM      7  C   UNL     1     -11.763   5.435 130.436  0.00  0.00    +0.000 A 
ATOM      8  C   UNL     1     -10.947   4.301 130.266  0.00  0.00    +0.000 A 
ATOM      9  C   UNL     1      -9.582   4.439 129.937  0.00  0.00    +0.000 A 
ATOM     10  C   UNL     1      -9.032   5.724 129.956  0.00  0.00    +0.000 A 
ATOM     11  C   UNL     1      -9.830   6.848 130.159  0.00  0.00    +0.000 A 
BRANCH   6  12
ATOM     12  C   UNL     1     -11.984   7.943 130.806  0.00  0.00    +0.000 C 
BRANCH  12  13
ATOM     13  N   UNL     1     -13.177   8.027 129.963  0.00  0.00    +0.000 NA
ATOM     14  H   UNL     1     -13.638   7.117 129.943  0.00  0.00    +0.000 HD
BRANCH  13  15
ATOM     15  C   UNL     1     -12.843   8.459 128.616  0.00  0.00    +0.000 C 
BRANCH  15  16
ATOM     16  C   UNL     1     -13.421   7.479 127.599  0.00  0.00    +0.000 C 
BRANCH  16  18
ATOM     17  C   UNL     1     -11.058   7.824 126.840  0.00  0.00    +0.000 C 
ATOM     18  C   UNL     1     -12.337   7.039 126.619  0.00  0.00    +0.000 C 
ENDBRANCH  16  18
ENDBRANCH  15  16
ENDBRANCH  13  15
ENDBRANCH  12  13
ENDBRANCH   6  12
ENDBRANCH   1   9
BRANCH   3  19
ATOM     19  C   UNL     1      -7.714   1.038 126.881  0.00  0.00    +0.000 C 
BRANCH  19  20
ATOM     20  N   UNL     1      -8.365   1.773 125.669  0.00  0.00    +0.000 NA
BRANCH  20  21
ATOM     21  C   UNL     1      -7.370   2.712 124.914  0.00  0.00    +0.000 C 
ATOM     22  C   UNL     1      -7.416   4.181 125.411  0.00  0.00    +0.000 C 
ATOM     23  C   UNL     1      -6.177   4.861 124.881  0.00  0.00    +0.000 C 
ATOM     24  C   UNL     1      -5.118   3.816 124.960  0.00  0.00    +0.000 C 
ATOM     25  C   UNL     1      -5.898   2.559 125.284  0.00  0.00    +0.000 C 
ENDBRANCH  20  21
BRANCH  20  26
ATOM     26  S   UNL     1      -9.119   0.436 124.651  0.00  0.00    +0.000 S 
ATOM     27  O   UNL     1     -10.171  -0.141 125.488  0.00  0.00    +0.000 OA
ATOM     28  O   UNL     1      -9.435   0.990 123.364  0.00  0.00    +0.000 OA
BRANCH  26  29
ATOM     29  C   UNL     1      -7.921  -0.874 124.404  0.00  0.00    +0.000 A 
ATOM     30  C   UNL     1      -6.696  -0.819 123.766  0.00  0.00    +0.000 A 
ATOM     31  C   UNL     1      -5.968  -2.039 123.572  0.00  0.00    +0.000 A 
ATOM     32  C   UNL     1      -6.350  -3.256 124.167  0.00  0.00    +0.000 A 
ATOM     33  C   UNL     1      -7.574  -3.283 124.770  0.00  0.00    +0.000 A 
ATOM     34  C   UNL     1      -8.362  -2.135 124.678  0.00  0.00    +0.000 A 
BRANCH  32  35
ATOM     35  O   UNL     1      -5.539  -4.347 124.031  0.00  0.00    +0.000 OA
ATOM     36  C   UNL     1      -4.208  -4.130 123.537  0.00  0.00    +0.000 C 
ENDBRANCH  32  35
ENDBRANCH  26  29
ENDBRANCH  20  26
ENDBRANCH  19  20
ENDBRANCH   3  19
TORSDOF 12
ENDMDL
MODEL 4
REMARK VINA RESULT:      -8.2      4.481      8.704
REMARK  Name = CHEMBL1643584
REMARK  14 active torsions:
REMARK  status: ('A' for Active; 'I' for Inactive)
REMARK    1  A    between atoms: C_1  and  C_2
REMARK    2  A    between atoms: C_2  and  C_3
REMARK    3  A    between atoms: C_3  and  C_4
REMARK    4  A    between atoms: C_4  and  N_5
REMARK    5  A    between atoms: N_5  and  C_6
REMARK    6  A    between atoms: C_6  and  C_7
REMARK    7  A    between atoms: C_10  and  C_11
REMARK    8  A    between atoms: C_13  and  C_14
REMARK    9  A    between atoms: C_14  and  N_15
REMARK   10  A    between atoms: N_15  and  C_16
REMARK   11  A    between atoms: N_15  and  S_21
REMARK   12  A    between atoms: S_21  and  C_24
REMARK   13  A    between atoms: C_27  and  O_28
REMARK   14  A    between atoms: O_28  and  C_29
REMARK                            x       y       z     vdW  Elec       q    Type
REMARK                         _______ _______ _______ _____ _____    ______ ____
ROOT
ATOM      1  C   UNL     1      -7.072  -1.642 125.285  0.00  0.00    +0.000 A 
ATOM      2  N   UNL     1      -7.887  -0.693 124.847  0.00  0.00    +0.000 NA
ATOM      3  C   UNL     1      -7.427  -0.159 123.647  0.00  0.00    +0.000 A 
ATOM      4  C   UNL     1      -6.638  -1.071 122.964  0.00  0.00    +0.000 A 
ATOM      5  S   UNL     1      -6.104  -2.316 124.038  0.00  0.00    +0.000 S 
ENDROOT
BRANCH   1   9
ATOM      6  C   UNL     1      -6.903  -2.941 129.390  0.00  0.00    +0.000 A 
ATOM      7  C   UNL     1      -8.136  -2.952 128.727  0.00  0.00    +0.000 A 
ATOM      8  C   UNL     1      -8.207  -2.635 127.358  0.00  0.00    +0.000 A 
ATOM      9  C   UNL     1      -7.066  -2.179 126.664  0.00  0.00    +0.000 A 
ATOM     10  C   UNL     1      -5.838  -2.219 127.330  0.00  0.00    +0.000 A 
ATOM     11  C   UNL     1      -5.758  -2.566 128.678  0.00  0.00    +0.000 A 
BRANCH   6  12
ATOM     12  C   UNL     1      -6.739  -3.488 130.785  0.00  0.00    +0.000 C 
BRANCH  12  13
ATOM     13  N   UNL     1      -5.702  -2.715 131.468  0.00  0.00    +0.000 NA
ATOM     14  H   UNL     1      -5.205  -2.144 130.785  0.00  0.00    +0.000 HD
BRANCH  13  15
ATOM     15  C   UNL     1      -4.775  -3.583 132.177  0.00  0.00    +0.000 C 
BRANCH  15  16
ATOM     16  C   UNL     1      -5.362  -4.987 132.286  0.00  0.00    +0.000 C 
BRANCH  16  18
ATOM     17  C   UNL     1      -6.690  -4.744 134.398  0.00  0.00    +0.000 C 
ATOM     18  C   UNL     1      -5.481  -5.394 133.752  0.00  0.00    +0.000 C 
ENDBRANCH  16  18
ENDBRANCH  15  16
ENDBRANCH  13  15
ENDBRANCH  12  13
ENDBRANCH   6  12
ENDBRANCH   1   9
BRANCH   3  19
ATOM     19  C   UNL     1      -7.780   1.263 123.196  0.00  0.00    +0.000 C 
BRANCH  19  20
ATOM     20  N   UNL     1      -6.969   2.431 123.838  0.00  0.00    +0.000 NA
BRANCH  20  21
ATOM     21  C   UNL     1      -6.555   3.530 122.806  0.00  0.00    +0.000 C 
ATOM     22  C   UNL     1      -5.159   4.143 123.091  0.00  0.00    +0.000 C 
ATOM     23  C   UNL     1      -4.743   4.882 121.842  0.00  0.00    +0.000 C 
ATOM     24  C   UNL     1      -5.249   4.036 120.725  0.00  0.00    +0.000 C 
ATOM     25  C   UNL     1      -6.131   3.027 121.430  0.00  0.00    +0.000 C 
ENDBRANCH  20  21
BRANCH  20  26
ATOM     26  S   UNL     1      -8.008   3.015 125.243  0.00  0.00    +0.000 S 
ATOM     27  O   UNL     1      -7.710   4.442 125.375  0.00  0.00    +0.000 OA
ATOM     28  O   UNL     1      -9.353   2.571 125.008  0.00  0.00    +0.000 OA
BRANCH  26  29
ATOM     29  C   UNL     1      -7.437   2.256 126.762  0.00  0.00    +0.000 A 
ATOM     30  C   UNL     1      -6.140   2.048 127.194  0.00  0.00    +0.000 A 
ATOM     31  C   UNL     1      -5.929   1.290 128.392  0.00  0.00    +0.000 A 
ATOM     32  C   UNL     1      -6.979   0.913 129.249  0.00  0.00    +0.000 A 
ATOM     33  C   UNL     1      -8.247   1.111 128.785  0.00  0.00    +0.000 A 
ATOM     34  C   UNL     1      -8.387   1.596 127.484  0.00  0.00    +0.000 A 
BRANCH  32  35
ATOM     35  O   UNL     1      -6.685   0.296 130.432  0.00  0.00    +0.000 OA
ATOM     36  C   UNL     1      -7.733   0.197 131.410  0.00  0.00    +0.000 C 
ENDBRANCH  32  35
ENDBRANCH  26  29
ENDBRANCH  20  26
ENDBRANCH  19  20
ENDBRANCH   3  19
TORSDOF 12
ENDMDL
MODEL 5
REMARK VINA RESULT:      -8.1      3.844      9.693
REMARK  Name = CHEMBL1643584
REMARK  14 active torsions:
REMARK  status: ('A' for Active; 'I' for Inactive)
REMARK    1  A    between atoms: C_1  and  C_2
REMARK    2  A    between atoms: C_2  and  C_3
REMARK    3  A    between atoms: C_3  and  C_4
REMARK    4  A    between atoms: C_4  and  N_5
REMARK    5  A    between atoms: N_5  and  C_6
REMARK    6  A    between atoms: C_6  and  C_7
REMARK    7  A    between atoms: C_10  and  C_11
REMARK    8  A    between atoms: C_13  and  C_14
REMARK    9  A    between atoms: C_14  and  N_15
REMARK   10  A    between atoms: N_15  and  C_16
REMARK   11  A    between atoms: N_15  and  S_21
REMARK   12  A    between atoms: S_21  and  C_24
REMARK   13  A    between atoms: C_27  and  O_28
REMARK   14  A    between atoms: O_28  and  C_29
REMARK                            x       y       z     vdW  Elec       q    Type
REMARK                         _______ _______ _______ _____ _____    ______ ____
ROOT
ATOM      1  C   UNL     1      -7.789   0.521 130.689  0.00  0.00    +0.000 A 
ATOM      2  N   UNL     1      -8.316   1.737 130.664  0.00  0.00    +0.000 NA
ATOM      3  C   UNL     1      -8.351   2.289 131.940  0.00  0.00    +0.000 A 
ATOM      4  C   UNL     1      -7.374   1.737 132.752  0.00  0.00    +0.000 A 
ATOM      5  S   UNL     1      -6.811   0.249 132.073  0.00  0.00    +0.000 S 
ENDROOT
BRANCH   1   9
ATOM      6  C   UNL     1      -7.869  -2.225 127.370  0.00  0.00    +0.000 A 
ATOM      7  C   UNL     1      -7.851  -2.739 128.672  0.00  0.00    +0.000 A 
ATOM      8  C   UNL     1      -7.931  -1.871 129.777  0.00  0.00    +0.000 A 
ATOM      9  C   UNL     1      -7.902  -0.472 129.597  0.00  0.00    +0.000 A 
ATOM     10  C   UNL     1      -7.966   0.020 128.291  0.00  0.00    +0.000 A 
ATOM     11  C   UNL     1      -7.922  -0.838 127.193  0.00  0.00    +0.000 A 
BRANCH   6  12
ATOM     12  C   UNL     1      -8.014  -3.114 126.161  0.00  0.00    +0.000 C 
BRANCH  12  13
ATOM     13  N   UNL     1      -8.997  -2.514 125.259  0.00  0.00    +0.000 NA
ATOM     14  H   UNL     1      -9.883  -3.011 125.351  0.00  0.00    +0.000 HD
BRANCH  13  15
ATOM     15  C   UNL     1      -8.537  -2.542 123.880  0.00  0.00    +0.000 C 
BRANCH  15  16
ATOM     16  C   UNL     1      -8.240  -1.122 123.405  0.00  0.00    +0.000 C 
BRANCH  16  18
ATOM     17  C   UNL     1      -6.018  -2.260 123.177  0.00  0.00    +0.000 C 
ATOM     18  C   UNL     1      -6.734  -0.924 123.253  0.00  0.00    +0.000 C 
ENDBRANCH  16  18
ENDBRANCH  15  16
ENDBRANCH  13  15
ENDBRANCH  12  13
ENDBRANCH   6  12
ENDBRANCH   1   9
BRANCH   3  19
ATOM     19  C   UNL     1      -9.367   3.367 132.337  0.00  0.00    +0.000 C 
BRANCH  19  20
ATOM     20  N   UNL     1      -9.192   4.777 131.691  0.00  0.00    +0.000 NA
BRANCH  20  21
ATOM     21  C   UNL     1      -7.696   5.161 131.454  0.00  0.00    +0.000 C 
ATOM     22  C   UNL     1      -7.505   6.632 131.000  0.00  0.00    +0.000 C 
ATOM     23  C   UNL     1      -6.042   6.958 131.178  0.00  0.00    +0.000 C 
ATOM     24  C   UNL     1      -5.652   6.243 132.426  0.00  0.00    +0.000 C 
ATOM     25  C   UNL     1      -6.853   5.365 132.709  0.00  0.00    +0.000 C 
ENDBRANCH  20  21
BRANCH  20  26
ATOM     26  S   UNL     1     -10.250   4.744 130.184  0.00  0.00    +0.000 S 
ATOM     27  O   UNL     1      -9.317   4.745 129.057  0.00  0.00    +0.000 OA
ATOM     28  O   UNL     1     -11.203   3.681 130.340  0.00  0.00    +0.000 OA
BRANCH  26  29
ATOM     29  C   UNL     1     -11.161   6.283 130.062  0.00  0.00    +0.000 A 
ATOM     30  C   UNL     1     -12.117   6.795 130.919  0.00  0.00    +0.000 A 
ATOM     31  C   UNL     1     -12.812   7.989 130.538  0.00  0.00    +0.000 A 
ATOM     32  C   UNL     1     -12.435   8.767 129.427  0.00  0.00    +0.000 A 
ATOM     33  C   UNL     1     -11.506   8.224 128.589  0.00  0.00    +0.000 A 
ATOM     34  C   UNL     1     -11.072   6.926 128.863  0.00  0.00    +0.000 A 
BRANCH  32  35
ATOM     35  O   UNL     1     -13.072   9.954 129.198  0.00  0.00    +0.000 OA
ATOM     36  C   UNL     1     -13.358  10.786 130.335  0.00  0.00    +0.000 C 
ENDBRANCH  32  35
ENDBRANCH  26  29
ENDBRANCH  20  26
ENDBRANCH  19  20
ENDBRANCH   3  19
TORSDOF 12
ENDMDL
MODEL 6
REMARK VINA RESULT:      -8.1      3.750      9.200
REMARK  Name = CHEMBL1643584
REMARK  14 active torsions:
REMARK  status: ('A' for Active; 'I' for Inactive)
REMARK    1  A    between atoms: C_1  and  C_2
REMARK    2  A    between atoms: C_2  and  C_3
REMARK    3  A    between atoms: C_3  and  C_4
REMARK    4  A    between atoms: C_4  and  N_5
REMARK    5  A    between atoms: N_5  and  C_6
REMARK    6  A    between atoms: C_6  and  C_7
REMARK    7  A    between atoms: C_10  and  C_11
REMARK    8  A    between atoms: C_13  and  C_14
REMARK    9  A    between atoms: C_14  and  N_15
REMARK   10  A    between atoms: N_15  and  C_16
REMARK   11  A    between atoms: N_15  and  S_21
REMARK   12  A    between atoms: S_21  and  C_24
REMARK   13  A    between atoms: C_27  and  O_28
REMARK   14  A    between atoms: O_28  and  C_29
REMARK                            x       y       z     vdW  Elec       q    Type
REMARK                         _______ _______ _______ _____ _____    ______ ____
ROOT
ATOM      1  C   UNL     1      -6.318   3.434 126.737  0.00  0.00    +0.000 A 
ATOM      2  N   UNL     1      -6.888   4.213 127.646  0.00  0.00    +0.000 NA
ATOM      3  C   UNL     1      -5.980   4.559 128.641  0.00  0.00    +0.000 A 
ATOM      4  C   UNL     1      -4.677   4.509 128.170  0.00  0.00    +0.000 A 
ATOM      5  S   UNL     1      -4.608   3.576 126.716  0.00  0.00    +0.000 S 
ENDROOT
BRANCH   1   9
ATOM      6  C   UNL     1      -8.723   1.218 123.932  0.00  0.00    +0.000 A 
ATOM      7  C   UNL     1      -7.563   1.854 123.473  0.00  0.00    +0.000 A 
ATOM      8  C   UNL     1      -6.702   2.496 124.382  0.00  0.00    +0.000 A 
ATOM      9  C   UNL     1      -7.053   2.620 125.743  0.00  0.00    +0.000 A 
ATOM     10  C   UNL     1      -8.190   1.940 126.188  0.00  0.00    +0.000 A 
ATOM     11  C   UNL     1      -9.028   1.273 125.296  0.00  0.00    +0.000 A 
BRANCH   6  12
ATOM     12  C   UNL     1      -9.554   0.329 123.040  0.00  0.00    +0.000 C 
BRANCH  12  13
ATOM     13  N   UNL     1      -9.424  -1.051 123.511  0.00  0.00    +0.000 NA
ATOM     14  H   UNL     1      -9.577  -1.076 124.519  0.00  0.00    +0.000 HD
BRANCH  13  15
ATOM     15  C   UNL     1      -8.121  -1.603 123.178  0.00  0.00    +0.000 C 
BRANCH  15  16
ATOM     16  C   UNL     1      -7.480  -2.204 124.425  0.00  0.00    +0.000 C 
BRANCH  16  18
ATOM     17  C   UNL     1      -5.595  -0.897 125.436  0.00  0.00    +0.000 C 
ATOM     18  C   UNL     1      -5.975  -1.952 124.414  0.00  0.00    +0.000 C 
ENDBRANCH  16  18
ENDBRANCH  15  16
ENDBRANCH  13  15
ENDBRANCH  12  13
ENDBRANCH   6  12
ENDBRANCH   1   9
BRANCH   3  19
ATOM     19  C   UNL     1      -6.425   4.935 130.060  0.00  0.00    +0.000 C 
BRANCH  19  20
ATOM     20  N   UNL     1      -7.953   4.860 130.365  0.00  0.00    +0.000 NA
BRANCH  20  21
ATOM     21  C   UNL     1      -8.345   3.621 131.233  0.00  0.00    +0.000 C 
ATOM     22  C   UNL     1      -9.857   3.280 131.170  0.00  0.00    +0.000 C 
ATOM     23  C   UNL     1     -10.015   1.885 131.725  0.00  0.00    +0.000 C 
ATOM     24  C   UNL     1      -8.809   1.155 131.242  0.00  0.00    +0.000 C 
ATOM     25  C   UNL     1      -7.943   2.260 130.674  0.00  0.00    +0.000 C 
ENDBRANCH  20  21
BRANCH  20  26
ATOM     26  S   UNL     1      -8.375   6.500 131.089  0.00  0.00    +0.000 S 
ATOM     27  O   UNL     1      -8.563   6.254 132.519  0.00  0.00    +0.000 OA
ATOM     28  O   UNL     1      -7.393   7.445 130.636  0.00  0.00    +0.000 OA
BRANCH  26  29
ATOM     29  C   UNL     1      -9.972   7.031 130.472  0.00  0.00    +0.000 A 
ATOM     30  C   UNL     1     -11.231   6.733 130.958  0.00  0.00    +0.000 A 
ATOM     31  C   UNL     1     -12.375   7.165 130.209  0.00  0.00    +0.000 A 
ATOM     32  C   UNL     1     -12.280   8.039 129.109  0.00  0.00    +0.000 A 
ATOM     33  C   UNL     1     -11.024   8.295 128.641  0.00  0.00    +0.000 A 
ATOM     34  C   UNL     1      -9.962   7.616 129.240  0.00  0.00    +0.000 A 
BRANCH  32  35
ATOM     35  O   UNL     1     -13.425   8.499 128.523  0.00  0.00    +0.000 OA
ATOM     36  C   UNL     1     -13.685   9.910 128.586  0.00  0.00    +0.000 C 
ENDBRANCH  32  35
ENDBRANCH  26  29
ENDBRANCH  20  26
ENDBRANCH  19  20
ENDBRANCH   3  19
TORSDOF 12
ENDMDL
MODEL 7
REMARK VINA RESULT:      -8.0      4.570      8.445
REMARK  Name = CHEMBL1643584
REMARK  14 active torsions:
REMARK  status: ('A' for Active; 'I' for Inactive)
REMARK    1  A    between atoms: C_1  and  C_2
REMARK    2  A    between atoms: C_2  and  C_3
REMARK    3  A    between atoms: C_3  and  C_4
REMARK    4  A    between atoms: C_4  and  N_5
REMARK    5  A    between atoms: N_5  and  C_6
REMARK    6  A    between atoms: C_6  and  C_7
REMARK    7  A    between atoms: C_10  and  C_11
REMARK    8  A    between atoms: C_13  and  C_14
REMARK    9  A    between atoms: C_14  and  N_15
REMARK   10  A    between atoms: N_15  and  C_16
REMARK   11  A    between atoms: N_15  and  S_21
REMARK   12  A    between atoms: S_21  and  C_24
REMARK   13  A    between atoms: C_27  and  O_28
REMARK   14  A    between atoms: O_28  and  C_29
REMARK                            x       y       z     vdW  Elec       q    Type
REMARK                         _______ _______ _______ _____ _____    ______ ____
ROOT
ATOM      1  C   UNL     1      -8.679  -1.497 125.256  0.00  0.00    +0.000 A 
ATOM      2  N   UNL     1      -9.281  -0.315 125.242  0.00  0.00    +0.000 NA
ATOM      3  C   UNL     1      -9.260   0.236 123.965  0.00  0.00    +0.000 A 
ATOM      4  C   UNL     1      -9.164  -0.749 122.995  0.00  0.00    +0.000 A 
ATOM      5  S   UNL     1      -8.608  -2.225 123.703  0.00  0.00    +0.000 S 
ENDROOT
BRANCH   1   9
ATOM      6  C   UNL     1      -7.330  -3.258 128.949  0.00  0.00    +0.000 A 
ATOM      7  C   UNL     1      -8.521  -3.718 128.376  0.00  0.00    +0.000 A 
ATOM      8  C   UNL     1      -8.934  -3.239 127.119  0.00  0.00    +0.000 A 
ATOM      9  C   UNL     1      -8.227  -2.200 126.477  0.00  0.00    +0.000 A 
ATOM     10  C   UNL     1      -7.018  -1.787 127.043  0.00  0.00    +0.000 A 
ATOM     11  C   UNL     1      -6.587  -2.284 128.272  0.00  0.00    +0.000 A 
BRANCH   6  12
ATOM     12  C   UNL     1      -6.731  -3.900 130.175  0.00  0.00    +0.000 C 
BRANCH  12  13
ATOM     13  N   UNL     1      -5.514  -3.171 130.533  0.00  0.00    +0.000 NA
ATOM     14  H   UNL     1      -5.094  -2.785 129.688  0.00  0.00    +0.000 HD
BRANCH  13  15
ATOM     15  C   UNL     1      -4.567  -4.030 131.227  0.00  0.00    +0.000 C 
BRANCH  15  16
ATOM     16  C   UNL     1      -5.304  -5.206 131.860  0.00  0.00    +0.000 C 
BRANCH  16  18
ATOM     17  C   UNL     1      -3.951  -4.240 133.735  0.00  0.00    +0.000 C 
ATOM     18  C   UNL     1      -4.931  -5.327 133.335  0.00  0.00    +0.000 C 
ENDBRANCH  16  18
ENDBRANCH  15  16
ENDBRANCH  13  15
ENDBRANCH  12  13
ENDBRANCH   6  12
ENDBRANCH   1   9
BRANCH   3  19
ATOM     19  C   UNL     1      -9.335   1.749 123.727  0.00  0.00    +0.000 C 
BRANCH  19  20
ATOM     20  N   UNL     1      -8.007   2.555 123.870  0.00  0.00    +0.000 NA
BRANCH  20  21
ATOM     21  C   UNL     1      -7.751   3.533 122.678  0.00  0.00    +0.000 C 
ATOM     22  C   UNL     1      -6.473   3.193 121.869  0.00  0.00    +0.000 C 
ATOM     23  C   UNL     1      -6.562   3.957 120.569  0.00  0.00    +0.000 C 
ATOM     24  C   UNL     1      -8.008   3.912 120.212  0.00  0.00    +0.000 C 
ATOM     25  C   UNL     1      -8.654   3.354 121.462  0.00  0.00    +0.000 C 
ENDBRANCH  20  21
BRANCH  20  26
ATOM     26  S   UNL     1      -8.104   3.340 125.533  0.00  0.00    +0.000 S 
ATOM     27  O   UNL     1      -8.760   4.630 125.313  0.00  0.00    +0.000 OA
ATOM     28  O   UNL     1      -8.669   2.380 126.439  0.00  0.00    +0.000 OA
BRANCH  26  29
ATOM     29  C   UNL     1      -6.451   3.728 126.107  0.00  0.00    +0.000 A 
ATOM     30  C   UNL     1      -5.266   3.736 125.395  0.00  0.00    +0.000 A 
ATOM     31  C   UNL     1      -4.039   3.946 126.107  0.00  0.00    +0.000 A 
ATOM     32  C   UNL     1      -4.001   4.333 127.460  0.00  0.00    +0.000 A 
ATOM     33  C   UNL     1      -5.183   4.294 128.139  0.00  0.00    +0.000 A 
ATOM     34  C   UNL     1      -6.300   3.806 127.460  0.00  0.00    +0.000 A 
BRANCH  32  35
ATOM     35  O   UNL     1      -2.797   4.630 128.034  0.00  0.00    +0.000 OA
ATOM     36  C   UNL     1      -2.444   6.017 128.160  0.00  0.00    +0.000 C 
ENDBRANCH  32  35
ENDBRANCH  26  29
ENDBRANCH  20  26
ENDBRANCH  19  20
ENDBRANCH   3  19
TORSDOF 12
ENDMDL
MODEL 8
REMARK VINA RESULT:      -8.0      4.583      9.417
REMARK  Name = CHEMBL1643584
REMARK  14 active torsions:
REMARK  status: ('A' for Active; 'I' for Inactive)
REMARK    1  A    between atoms: C_1  and  C_2
REMARK    2  A    between atoms: C_2  and  C_3
REMARK    3  A    between atoms: C_3  and  C_4
REMARK    4  A    between atoms: C_4  and  N_5
REMARK    5  A    between atoms: N_5  and  C_6
REMARK    6  A    between atoms: C_6  and  C_7
REMARK    7  A    between atoms: C_10  and  C_11
REMARK    8  A    between atoms: C_13  and  C_14
REMARK    9  A    between atoms: C_14  and  N_15
REMARK   10  A    between atoms: N_15  and  C_16
REMARK   11  A    between atoms: N_15  and  S_21
REMARK   12  A    between atoms: S_21  and  C_24
REMARK   13  A    between atoms: C_27  and  O_28
REMARK   14  A    between atoms: O_28  and  C_29
REMARK                            x       y       z     vdW  Elec       q    Type
REMARK                         _______ _______ _______ _____ _____    ______ ____
ROOT
ATOM      1  C   UNL     1      -4.516   4.629 126.871  0.00  0.00    +0.000 A 
ATOM      2  N   UNL     1      -4.478   5.797 127.497  0.00  0.00    +0.000 NA
ATOM      3  C   UNL     1      -3.378   5.868 128.347  0.00  0.00    +0.000 A 
ATOM      4  C   UNL     1      -2.361   5.029 127.921  0.00  0.00    +0.000 A 
ATOM      5  S   UNL     1      -2.986   3.852 126.818  0.00  0.00    +0.000 S 
ENDROOT
BRANCH   1   9
ATOM      6  C   UNL     1      -7.967   2.817 125.035  0.00  0.00    +0.000 A 
ATOM      7  C   UNL     1      -8.006   4.181 125.349  0.00  0.00    +0.000 A 
ATOM      8  C   UNL     1      -6.860   4.825 125.852  0.00  0.00    +0.000 A 
ATOM      9  C   UNL     1      -5.699   4.087 126.166  0.00  0.00    +0.000 A 
ATOM     10  C   UNL     1      -5.665   2.738 125.803  0.00  0.00    +0.000 A 
ATOM     11  C   UNL     1      -6.787   2.104 125.272  0.00  0.00    +0.000 A 
BRANCH   6  12
ATOM     12  C   UNL     1      -9.086   2.136 124.288  0.00  0.00    +0.000 C 
BRANCH  12  13
ATOM     13  N   UNL     1      -8.587   1.734 122.972  0.00  0.00    +0.000 NA
ATOM     14  H   UNL     1      -7.568   1.740 122.984  0.00  0.00    +0.000 HD
BRANCH  13  15
ATOM     15  C   UNL     1      -9.090   2.611 121.926  0.00  0.00    +0.000 C 
BRANCH  15  16
ATOM     16  C   UNL     1      -7.998   3.589 121.501  0.00  0.00    +0.000 C 
BRANCH  16  18
ATOM     17  C   UNL     1      -5.653   4.041 122.261  0.00  0.00    +0.000 C 
ATOM     18  C   UNL     1      -6.622   2.984 121.763  0.00  0.00    +0.000 C 
ENDBRANCH  16  18
ENDBRANCH  15  16
ENDBRANCH  13  15
ENDBRANCH  12  13
ENDBRANCH   6  12
ENDBRANCH   1   9
BRANCH   3  19
ATOM     19  C   UNL     1      -3.357   6.777 129.582  0.00  0.00    +0.000 C 
BRANCH  19  20
ATOM     20  N   UNL     1      -3.634   6.103 130.961  0.00  0.00    +0.000 NA
BRANCH  20  21
ATOM     21  C   UNL     1      -2.786   6.713 132.123  0.00  0.00    +0.000 C 
ATOM     22  C   UNL     1      -1.257   6.646 131.868  0.00  0.00    +0.000 C 
ATOM     23  C   UNL     1      -0.607   7.584 132.856  0.00  0.00    +0.000 C 
ATOM     24  C   UNL     1      -1.551   8.732 132.954  0.00  0.00    +0.000 C 
ATOM     25  C   UNL     1      -2.775   8.235 132.214  0.00  0.00    +0.000 C 
ENDBRANCH  20  21
BRANCH  20  26
ATOM     26  S   UNL     1      -5.461   6.199 131.179  0.00  0.00    +0.000 S 
ATOM     27  O   UNL     1      -5.687   6.044 132.616  0.00  0.00    +0.000 OA
ATOM     28  O   UNL     1      -5.923   7.373 130.492  0.00  0.00    +0.000 OA
BRANCH  26  29
ATOM     29  C   UNL     1      -6.229   4.775 130.409  0.00  0.00    +0.000 A 
ATOM     30  C   UNL     1      -5.711   3.508 130.218  0.00  0.00    +0.000 A 
ATOM     31  C   UNL     1      -6.468   2.566 129.448  0.00  0.00    +0.000 A 
ATOM     32  C   UNL     1      -7.794   2.806 129.041  0.00  0.00    +0.000 A 
ATOM     33  C   UNL     1      -8.268   4.072 129.224  0.00  0.00    +0.000 A 
ATOM     34  C   UNL     1      -7.380   5.026 129.723  0.00  0.00    +0.000 A 
BRANCH  32  35
ATOM     35  O   UNL     1      -8.489   1.811 128.413  0.00  0.00    +0.000 OA
ATOM     36  C   UNL     1      -7.901   0.500 128.391  0.00  0.00    +0.000 C 
ENDBRANCH  32  35
ENDBRANCH  26  29
ENDBRANCH  20  26
ENDBRANCH  19  20
ENDBRANCH   3  19
TORSDOF 12
ENDMDL
MODEL 9
REMARK VINA RESULT:      -8.0      3.684      9.589
REMARK  Name = CHEMBL1643584
REMARK  14 active torsions:
REMARK  status: ('A' for Active; 'I' for Inactive)
REMARK    1  A    between atoms: C_1  and  C_2
REMARK    2  A    between atoms: C_2  and  C_3
REMARK    3  A    between atoms: C_3  and  C_4
REMARK    4  A    between atoms: C_4  and  N_5
REMARK    5  A    between atoms: N_5  and  C_6
REMARK    6  A    between atoms: C_6  and  C_7
REMARK    7  A    between atoms: C_10  and  C_11
REMARK    8  A    between atoms: C_13  and  C_14
REMARK    9  A    between atoms: C_14  and  N_15
REMARK   10  A    between atoms: N_15  and  C_16
REMARK   11  A    between atoms: N_15  and  S_21
REMARK   12  A    between atoms: S_21  and  C_24
REMARK   13  A    between atoms: C_27  and  O_28
REMARK   14  A    between atoms: O_28  and  C_29
REMARK                            x       y       z     vdW  Elec       q    Type
REMARK                         _______ _______ _______ _____ _____    ______ ____
ROOT
ATOM      1  C   UNL     1      -7.279   1.019 129.158  0.00  0.00    +0.000 A 
ATOM      2  N   UNL     1      -7.772   2.163 129.612  0.00  0.00    +0.000 NA
ATOM      3  C   UNL     1      -7.854   2.152 131.000  0.00  0.00    +0.000 A 
ATOM      4  C   UNL     1      -6.931   1.276 131.549  0.00  0.00    +0.000 A 
ATOM      5  S   UNL     1      -6.376   0.168 130.343  0.00  0.00    +0.000 S 
ENDROOT
BRANCH   1   9
ATOM      6  C   UNL     1      -7.644  -0.028 124.995  0.00  0.00    +0.000 A 
ATOM      7  C   UNL     1      -6.423  -0.250 125.643  0.00  0.00    +0.000 A 
ATOM      8  C   UNL     1      -6.304  -0.018 127.026  0.00  0.00    +0.000 A 
ATOM      9  C   UNL     1      -7.366   0.560 127.754  0.00  0.00    +0.000 A 
ATOM     10  C   UNL     1      -8.589   0.731 127.099  0.00  0.00    +0.000 A 
ATOM     11  C   UNL     1      -8.722   0.469 125.736  0.00  0.00    +0.000 A 
BRANCH   6  12
ATOM     12  C   UNL     1      -7.889  -0.474 123.574  0.00  0.00    +0.000 C 
BRANCH  12  13
ATOM     13  N   UNL     1      -7.570  -1.898 123.474  0.00  0.00    +0.000 NA
ATOM     14  H   UNL     1      -7.274  -2.109 122.521  0.00  0.00    +0.000 HD
BRANCH  13  15
ATOM     15  C   UNL     1      -8.708  -2.722 123.848  0.00  0.00    +0.000 C 
BRANCH  15  16
ATOM     16  C   UNL     1      -8.370  -3.536 125.094  0.00  0.00    +0.000 C 
BRANCH  16  18
ATOM     17  C   UNL     1      -8.638  -3.327 127.577  0.00  0.00    +0.000 C 
ATOM     18  C   UNL     1      -9.321  -3.173 126.232  0.00  0.00    +0.000 C 
ENDBRANCH  16  18
ENDBRANCH  15  16
ENDBRANCH  13  15
ENDBRANCH  12  13
ENDBRANCH   6  12
ENDBRANCH   1   9
BRANCH   3  19
ATOM     19  C   UNL     1      -8.859   3.019 131.768  0.00  0.00    +0.000 C 
BRANCH  19  20
ATOM     20  N   UNL     1      -8.911   4.535 131.400  0.00  0.00    +0.000 NA
BRANCH  20  21
ATOM     21  C   UNL     1      -7.503   5.138 131.086  0.00  0.00    +0.000 C 
ATOM     22  C   UNL     1      -7.500   6.688 131.026  0.00  0.00    +0.000 C 
ATOM     23  C   UNL     1      -6.057   7.126 131.098  0.00  0.00    +0.000 C 
ATOM     24  C   UNL     1      -5.425   6.164 132.044  0.00  0.00    +0.000 C 
ATOM     25  C   UNL     1      -6.495   5.110 132.230  0.00  0.00    +0.000 C 
ENDBRANCH  20  21
BRANCH  20  26
ATOM     26  S   UNL     1     -10.145   4.652 130.037  0.00  0.00    +0.000 S 
ATOM     27  O   UNL     1      -9.357   4.830 128.817  0.00  0.00    +0.000 OA
ATOM     28  O   UNL     1     -11.046   3.541 130.166  0.00  0.00    +0.000 OA
BRANCH  26  29
ATOM     29  C   UNL     1     -11.099   6.157 130.225  0.00  0.00    +0.000 A 
ATOM     30  C   UNL     1     -12.013   6.487 131.208  0.00  0.00    +0.000 A 
ATOM     31  C   UNL     1     -12.759   7.703 131.070  0.00  0.00    +0.000 A 
ATOM     32  C   UNL     1     -12.470   8.667 130.086  0.00  0.00    +0.000 A 
ATOM     33  C   UNL     1     -11.580   8.302 129.118  0.00  0.00    +0.000 A 
ATOM     34  C   UNL     1     -11.098   6.992 129.147  0.00  0.00    +0.000 A 
BRANCH  32  35
ATOM     35  O   UNL     1     -13.148   9.853 130.094  0.00  0.00    +0.000 OA
ATOM     36  C   UNL     1     -13.689  10.319 128.848  0.00  0.00    +0.000 C 
ENDBRANCH  32  35
ENDBRANCH  26  29
ENDBRANCH  20  26
ENDBRANCH  19  20
ENDBRANCH   3  19
TORSDOF 12
ENDMDL
