MODEL 1
REMARK VINA RESULT:      -7.9      0.000      0.000
REMARK  Name = CHEMBL1643588
REMARK  13 active torsions:
REMARK  status: ('A' for Active; 'I' for Inactive)
REMARK    1  A    between atoms: C_1  and  C_2
REMARK    2  A    between atoms: C_2  and  C_3
REMARK    3  A    between atoms: C_3  and  N_4
REMARK    4  A    between atoms: N_4  and  C_5
REMARK    5  A    between atoms: C_5  and  C_6
REMARK    6  A    between atoms: C_9  and  C_10
REMARK    7  A    between atoms: C_12  and  C_13
REMARK    8  A    between atoms: C_13  and  N_14
REMARK    9  A    between atoms: N_14  and  C_15
REMARK   10  A    between atoms: N_14  and  S_20
REMARK   11  A    between atoms: S_20  and  C_23
REMARK   12  A    between atoms: C_26  and  O_27
REMARK   13  A    between atoms: O_27  and  C_28
REMARK                            x       y       z     vdW  Elec       q    Type
REMARK                         _______ _______ _______ _____ _____    ______ ____
ROOT
ATOM      1  C   UNL     1      -9.031  -0.048 125.363  0.00  0.00    +0.000 C 
ENDROOT
BRANCH   1   4
ATOM      2  C   UNL     1      -7.750  -2.436 127.822  0.00  0.00    +0.000 A 
ATOM      3  N   UNL     1      -8.006  -1.214 127.390  0.00  0.00    +0.000 NA
ATOM      4  C   UNL     1      -8.863  -1.250 126.283  0.00  0.00    +0.000 A 
ATOM      5  C   UNL     1      -9.391  -2.507 126.035  0.00  0.00    +0.000 A 
ATOM      6  S   UNL     1      -8.710  -3.668 127.094  0.00  0.00    +0.000 S 
BRANCH   2  10
ATOM      7  C   UNL     1      -4.990  -3.647 130.879  0.00  0.00    +0.000 A 
ATOM      8  C   UNL     1      -4.519  -3.167 129.649  0.00  0.00    +0.000 A 
ATOM      9  C   UNL     1      -5.400  -2.682 128.681  0.00  0.00    +0.000 A 
ATOM     10  C   UNL     1      -6.785  -2.782 128.872  0.00  0.00    +0.000 A 
ATOM     11  C   UNL     1      -7.258  -3.261 130.097  0.00  0.00    +0.000 A 
ATOM     12  C   UNL     1      -6.374  -3.701 131.086  0.00  0.00    +0.000 A 
BRANCH   7  13
ATOM     13  C   UNL     1      -4.064  -4.064 132.001  0.00  0.00    +0.000 C 
BRANCH  13  14
ATOM     14  N   UNL     1      -3.059  -3.044 132.292  0.00  0.00    +0.000 NA
ATOM     15  H   UNL     1      -2.246  -3.497 132.703  0.00  0.00    +0.000 HD
BRANCH  14  16
ATOM     16  C   UNL     1      -3.562  -2.057 133.231  0.00  0.00    +0.000 C 
BRANCH  16  18
ATOM     17  C   UNL     1      -4.926  -0.268 132.163  0.00  0.00    +0.000 C 
ATOM     18  C   UNL     1      -3.524  -0.688 132.559  0.00  0.00    +0.000 C 
ENDBRANCH  16  18
ENDBRANCH  14  16
ENDBRANCH  13  14
ENDBRANCH   7  13
ENDBRANCH   2  10
ENDBRANCH   1   4
BRANCH   1  19
ATOM     19  N   UNL     1      -7.737   0.568 124.898  0.00  0.00    +0.000 NA
BRANCH  19  20
ATOM     20  C   UNL     1      -7.040  -0.205 123.790  0.00  0.00    +0.000 C 
ATOM     21  C   UNL     1      -6.043  -1.291 124.221  0.00  0.00    +0.000 C 
ATOM     22  C   UNL     1      -5.869  -2.215 123.042  0.00  0.00    +0.000 C 
ATOM     23  C   UNL     1      -7.179  -2.172 122.306  0.00  0.00    +0.000 C 
ATOM     24  C   UNL     1      -7.967  -1.057 122.947  0.00  0.00    +0.000 C 
ENDBRANCH  19  20
BRANCH  19  25
ATOM     25  S   UNL     1      -7.907   2.286 124.791  0.00  0.00    +0.000 S 
ATOM     26  O   UNL     1      -9.293   2.605 125.041  0.00  0.00    +0.000 OA
ATOM     27  O   UNL     1      -6.895   2.891 125.648  0.00  0.00    +0.000 OA
BRANCH  25  28
ATOM     28  C   UNL     1      -7.513   2.785 123.109  0.00  0.00    +0.000 A 
ATOM     29  C   UNL     1      -6.209   3.116 122.745  0.00  0.00    +0.000 A 
ATOM     30  C   UNL     1      -5.979   3.749 121.509  0.00  0.00    +0.000 A 
ATOM     31  C   UNL     1      -7.017   3.947 120.585  0.00  0.00    +0.000 A 
ATOM     32  C   UNL     1      -8.307   3.568 120.938  0.00  0.00    +0.000 A 
ATOM     33  C   UNL     1      -8.559   3.043 122.207  0.00  0.00    +0.000 A 
BRANCH  31  34
ATOM     34  O   UNL     1      -6.670   4.513 119.387  0.00  0.00    +0.000 OA
ATOM     35  C   UNL     1      -5.565   5.418 119.410  0.00  0.00    +0.000 C 
ENDBRANCH  31  34
ENDBRANCH  25  28
ENDBRANCH  19  25
ENDBRANCH   1  19
TORSDOF 11
ENDMDL
MODEL 2
REMARK VINA RESULT:      -7.8      4.895      6.850
REMARK  Name = CHEMBL1643588
REMARK  13 active torsions:
REMARK  status: ('A' for Active; 'I' for Inactive)
REMARK    1  A    between atoms: C_1  and  C_2
REMARK    2  A    between atoms: C_2  and  C_3
REMARK    3  A    between atoms: C_3  and  N_4
REMARK    4  A    between atoms: N_4  and  C_5
REMARK    5  A    between atoms: C_5  and  C_6
REMARK    6  A    between atoms: C_9  and  C_10
REMARK    7  A    between atoms: C_12  and  C_13
REMARK    8  A    between atoms: C_13  and  N_14
REMARK    9  A    between atoms: N_14  and  C_15
REMARK   10  A    between atoms: N_14  and  S_20
REMARK   11  A    between atoms: S_20  and  C_23
REMARK   12  A    between atoms: C_26  and  O_27
REMARK   13  A    between atoms: O_27  and  C_28
REMARK                            x       y       z     vdW  Elec       q    Type
REMARK                         _______ _______ _______ _____ _____    ______ ____
ROOT
ATOM      1  C   UNL     1      -7.770   0.523 126.321  0.00  0.00    +0.000 C 
ENDROOT
BRANCH   1   4
ATOM      2  C   UNL     1      -8.378   2.984 128.961  0.00  0.00    +0.000 A 
ATOM      3  N   UNL     1      -8.761   2.037 128.123  0.00  0.00    +0.000 NA
ATOM      4  C   UNL     1      -7.651   1.386 127.570  0.00  0.00    +0.000 A 
ATOM      5  C   UNL     1      -6.451   1.737 128.168  0.00  0.00    +0.000 A 
ATOM      6  S   UNL     1      -6.692   2.981 129.321  0.00  0.00    +0.000 S 
BRANCH   2  10
ATOM      7  C   UNL     1     -11.016   5.904 130.675  0.00  0.00    +0.000 A 
ATOM      8  C   UNL     1     -11.331   4.539 130.741  0.00  0.00    +0.000 A 
ATOM      9  C   UNL     1     -10.440   3.572 130.272  0.00  0.00    +0.000 A 
ATOM     10  C   UNL     1      -9.265   3.954 129.611  0.00  0.00    +0.000 A 
ATOM     11  C   UNL     1      -8.949   5.315 129.543  0.00  0.00    +0.000 A 
ATOM     12  C   UNL     1      -9.818   6.281 130.056  0.00  0.00    +0.000 A 
BRANCH   7  13
ATOM     13  C   UNL     1     -11.896   6.975 131.283  0.00  0.00    +0.000 C 
BRANCH  13  14
ATOM     14  N   UNL     1     -12.107   8.097 130.371  0.00  0.00    +0.000 NA
ATOM     15  H   UNL     1     -12.492   8.877 130.898  0.00  0.00    +0.000 HD
BRANCH  14  16
ATOM     16  C   UNL     1     -13.037   7.751 129.311  0.00  0.00    +0.000 C 
BRANCH  16  18
ATOM     17  C   UNL     1     -12.229   7.056 127.061  0.00  0.00    +0.000 C 
ATOM     18  C   UNL     1     -12.461   8.236 127.984  0.00  0.00    +0.000 C 
ENDBRANCH  16  18
ENDBRANCH  14  16
ENDBRANCH  13  14
ENDBRANCH   7  13
ENDBRANCH   2  10
ENDBRANCH   1   4
BRANCH   1  19
ATOM     19  N   UNL     1      -7.167   1.132 125.082  0.00  0.00    +0.000 NA
BRANCH  19  20
ATOM     20  C   UNL     1      -6.814   0.124 124.000  0.00  0.00    +0.000 C 
ATOM     21  C   UNL     1      -6.023  -1.117 124.436  0.00  0.00    +0.000 C 
ATOM     22  C   UNL     1      -6.217  -2.158 123.363  0.00  0.00    +0.000 C 
ATOM     23  C   UNL     1      -7.577  -1.883 122.785  0.00  0.00    +0.000 C 
ATOM     24  C   UNL     1      -8.011  -0.565 123.377  0.00  0.00    +0.000 C 
ENDBRANCH  19  20
BRANCH  19  25
ATOM     25  S   UNL     1      -8.001   2.593 124.676  0.00  0.00    +0.000 S 
ATOM     26  O   UNL     1      -9.418   2.327 124.769  0.00  0.00    +0.000 OA
ATOM     27  O   UNL     1      -7.447   3.666 125.492  0.00  0.00    +0.000 OA
BRANCH  25  28
ATOM     28  C   UNL     1      -7.618   3.002 122.969  0.00  0.00    +0.000 A 
ATOM     29  C   UNL     1      -6.326   3.362 122.588  0.00  0.00    +0.000 A 
ATOM     30  C   UNL     1      -6.115   3.926 121.316  0.00  0.00    +0.000 A 
ATOM     31  C   UNL     1      -7.155   4.024 120.379  0.00  0.00    +0.000 A 
ATOM     32  C   UNL     1      -8.431   3.617 120.750  0.00  0.00    +0.000 A 
ATOM     33  C   UNL     1      -8.669   3.161 122.049  0.00  0.00    +0.000 A 
BRANCH  31  34
ATOM     34  O   UNL     1      -6.824   4.529 119.149  0.00  0.00    +0.000 OA
ATOM     35  C   UNL     1      -5.716   5.429 119.110  0.00  0.00    +0.000 C 
ENDBRANCH  31  34
ENDBRANCH  25  28
ENDBRANCH  19  25
ENDBRANCH   1  19
TORSDOF 11
ENDMDL
MODEL 3
REMARK VINA RESULT:      -7.8      2.326      5.085
REMARK  Name = CHEMBL1643588
REMARK  13 active torsions:
REMARK  status: ('A' for Active; 'I' for Inactive)
REMARK    1  A    between atoms: C_1  and  C_2
REMARK    2  A    between atoms: C_2  and  C_3
REMARK    3  A    between atoms: C_3  and  N_4
REMARK    4  A    between atoms: N_4  and  C_5
REMARK    5  A    between atoms: C_5  and  C_6
REMARK    6  A    between atoms: C_9  and  C_10
REMARK    7  A    between atoms: C_12  and  C_13
REMARK    8  A    between atoms: C_13  and  N_14
REMARK    9  A    between atoms: N_14  and  C_15
REMARK   10  A    between atoms: N_14  and  S_20
REMARK   11  A    between atoms: S_20  and  C_23
REMARK   12  A    between atoms: C_26  and  O_27
REMARK   13  A    between atoms: O_27  and  C_28
REMARK                            x       y       z     vdW  Elec       q    Type
REMARK                         _______ _______ _______ _____ _____    ______ ____
ROOT
ATOM      1  C   UNL     1      -7.909   0.996 123.245  0.00  0.00    +0.000 C 
ENDROOT
BRANCH   1   4
ATOM      2  C   UNL     1      -6.765  -1.579 125.579  0.00  0.00    +0.000 A 
ATOM      3  N   UNL     1      -7.600  -0.635 125.185  0.00  0.00    +0.000 NA
ATOM      4  C   UNL     1      -7.364  -0.292 123.848  0.00  0.00    +0.000 A 
ATOM      5  C   UNL     1      -6.476  -1.142 123.208  0.00  0.00    +0.000 A 
ATOM      6  S   UNL     1      -5.829  -2.280 124.312  0.00  0.00    +0.000 S 
BRANCH   2  10
ATOM      7  C   UNL     1      -6.448  -3.229 129.529  0.00  0.00    +0.000 A 
ATOM      8  C   UNL     1      -5.299  -2.820 128.838  0.00  0.00    +0.000 A 
ATOM      9  C   UNL     1      -5.393  -2.196 127.593  0.00  0.00    +0.000 A 
ATOM     10  C   UNL     1      -6.633  -2.080 126.952  0.00  0.00    +0.000 A 
ATOM     11  C   UNL     1      -7.781  -2.487 127.639  0.00  0.00    +0.000 A 
ATOM     12  C   UNL     1      -7.692  -3.067 128.907  0.00  0.00    +0.000 A 
BRANCH   7  13
ATOM     13  C   UNL     1      -6.399  -3.793 130.933  0.00  0.00    +0.000 C 
BRANCH  13  14
ATOM     14  N   UNL     1      -5.495  -4.937 131.034  0.00  0.00    +0.000 NA
ATOM     15  H   UNL     1      -6.007  -5.780 130.786  0.00  0.00    +0.000 HD
BRANCH  14  16
ATOM     16  C   UNL     1      -4.980  -5.088 132.383  0.00  0.00    +0.000 C 
BRANCH  16  18
ATOM     17  C   UNL     1      -6.317  -5.526 134.437  0.00  0.00    +0.000 C 
ATOM     18  C   UNL     1      -6.000  -4.509 133.358  0.00  0.00    +0.000 C 
ENDBRANCH  16  18
ENDBRANCH  14  16
ENDBRANCH  13  14
ENDBRANCH   7  13
ENDBRANCH   2  10
ENDBRANCH   1   4
BRANCH   1  19
ATOM     19  N   UNL     1      -7.405   2.255 123.902  0.00  0.00    +0.000 NA
BRANCH  19  20
ATOM     20  C   UNL     1      -6.849   3.286 122.933  0.00  0.00    +0.000 C 
ATOM     21  C   UNL     1      -5.608   4.068 123.386  0.00  0.00    +0.000 C 
ATOM     22  C   UNL     1      -4.969   4.632 122.142  0.00  0.00    +0.000 C 
ATOM     23  C   UNL     1      -5.299   3.654 121.048  0.00  0.00    +0.000 C 
ATOM     24  C   UNL     1      -6.303   2.700 121.647  0.00  0.00    +0.000 C 
ENDBRANCH  19  20
BRANCH  19  25
ATOM     25  S   UNL     1      -8.487   2.736 125.164  0.00  0.00    +0.000 S 
ATOM     26  O   UNL     1      -8.535   4.180 125.170  0.00  0.00    +0.000 OA
ATOM     27  O   UNL     1      -9.736   2.007 124.985  0.00  0.00    +0.000 OA
BRANCH  25  28
ATOM     28  C   UNL     1      -7.799   2.192 126.732  0.00  0.00    +0.000 A 
ATOM     29  C   UNL     1      -6.420   2.146 126.934  0.00  0.00    +0.000 A 
ATOM     30  C   UNL     1      -5.911   1.474 128.061  0.00  0.00    +0.000 A 
ATOM     31  C   UNL     1      -6.764   0.952 129.047  0.00  0.00    +0.000 A 
ATOM     32  C   UNL     1      -8.138   1.046 128.861  0.00  0.00    +0.000 A 
ATOM     33  C   UNL     1      -8.647   1.612 127.690  0.00  0.00    +0.000 A 
BRANCH  31  34
ATOM     34  O   UNL     1      -6.161   0.376 130.134  0.00  0.00    +0.000 OA
ATOM     35  C   UNL     1      -4.858   0.856 130.465  0.00  0.00    +0.000 C 
ENDBRANCH  31  34
ENDBRANCH  25  28
ENDBRANCH  19  25
ENDBRANCH   1  19
TORSDOF 11
ENDMDL
MODEL 4
REMARK VINA RESULT:      -7.6      6.057     10.310
REMARK  Name = CHEMBL1643588
REMARK  13 active torsions:
REMARK  status: ('A' for Active; 'I' for Inactive)
REMARK    1  A    between atoms: C_1  and  C_2
REMARK    2  A    between atoms: C_2  and  C_3
REMARK    3  A    between atoms: C_3  and  N_4
REMARK    4  A    between atoms: N_4  and  C_5
REMARK    5  A    between atoms: C_5  and  C_6
REMARK    6  A    between atoms: C_9  and  C_10
REMARK    7  A    between atoms: C_12  and  C_13
REMARK    8  A    between atoms: C_13  and  N_14
REMARK    9  A    between atoms: N_14  and  C_15
REMARK   10  A    between atoms: N_14  and  S_20
REMARK   11  A    between atoms: S_20  and  C_23
REMARK   12  A    between atoms: C_26  and  O_27
REMARK   13  A    between atoms: O_27  and  C_28
REMARK                            x       y       z     vdW  Elec       q    Type
REMARK                         _______ _______ _______ _____ _____    ______ ____
ROOT
ATOM      1  C   UNL     1     -10.085   4.152 130.426  0.00  0.00    +0.000 C 
ENDROOT
BRANCH   1   4
ATOM      2  C   UNL     1      -7.866   3.057 127.730  0.00  0.00    +0.000 A 
ATOM      3  N   UNL     1      -8.467   3.981 128.458  0.00  0.00    +0.000 NA
ATOM      4  C   UNL     1      -9.034   3.414 129.607  0.00  0.00    +0.000 A 
ATOM      5  C   UNL     1      -8.668   2.094 129.810  0.00  0.00    +0.000 A 
ATOM      6  S   UNL     1      -7.732   1.518 128.495  0.00  0.00    +0.000 S 
BRANCH   2  10
ATOM      7  C   UNL     1      -6.327   3.811 123.794  0.00  0.00    +0.000 A 
ATOM      8  C   UNL     1      -5.569   4.141 124.927  0.00  0.00    +0.000 A 
ATOM      9  C   UNL     1      -6.014   3.817 126.209  0.00  0.00    +0.000 A 
ATOM     10  C   UNL     1      -7.289   3.266 126.397  0.00  0.00    +0.000 A 
ATOM     11  C   UNL     1      -8.047   2.937 125.270  0.00  0.00    +0.000 A 
ATOM     12  C   UNL     1      -7.580   3.216 123.983  0.00  0.00    +0.000 A 
BRANCH   7  13
ATOM     13  C   UNL     1      -5.824   4.031 122.384  0.00  0.00    +0.000 C 
BRANCH  13  14
ATOM     14  N   UNL     1      -6.901   3.957 121.399  0.00  0.00    +0.000 NA
ATOM     15  H   UNL     1      -7.541   3.215 121.671  0.00  0.00    +0.000 HD
BRANCH  14  16
ATOM     16  C   UNL     1      -6.388   3.663 120.073  0.00  0.00    +0.000 C 
BRANCH  16  18
ATOM     17  C   UNL     1      -5.892   5.650 118.657  0.00  0.00    +0.000 C 
ATOM     18  C   UNL     1      -6.970   4.676 119.092  0.00  0.00    +0.000 C 
ENDBRANCH  16  18
ENDBRANCH  14  16
ENDBRANCH  13  14
ENDBRANCH   7  13
ENDBRANCH   2  10
ENDBRANCH   1   4
BRANCH   1  19
ATOM     19  N   UNL     1      -9.702   5.558 130.810  0.00  0.00    +0.000 NA
BRANCH  19  20
ATOM     20  C   UNL     1     -10.726   6.613 130.422  0.00  0.00    +0.000 C 
ATOM     21  C   UNL     1     -10.279   7.676 129.409  0.00  0.00    +0.000 C 
ATOM     22  C   UNL     1     -11.533   8.274 128.822  0.00  0.00    +0.000 C 
ATOM     23  C   UNL     1     -12.554   7.171 128.862  0.00  0.00    +0.000 C 
ATOM     24  C   UNL     1     -11.928   6.068 129.678  0.00  0.00    +0.000 C 
ENDBRANCH  19  20
BRANCH  19  25
ATOM     25  S   UNL     1      -8.996   5.567 132.390  0.00  0.00    +0.000 S 
ATOM     26  O   UNL     1      -9.729   6.519 133.191  0.00  0.00    +0.000 OA
ATOM     27  O   UNL     1      -8.923   4.188 132.855  0.00  0.00    +0.000 OA
BRANCH  25  28
ATOM     28  C   UNL     1      -7.301   6.146 132.244  0.00  0.00    +0.000 A 
ATOM     29  C   UNL     1      -6.882   6.868 131.127  0.00  0.00    +0.000 A 
ATOM     30  C   UNL     1      -5.506   7.076 130.918  0.00  0.00    +0.000 A 
ATOM     31  C   UNL     1      -4.554   6.676 131.869  0.00  0.00    +0.000 A 
ATOM     32  C   UNL     1      -4.985   5.999 133.003  0.00  0.00    +0.000 A 
ATOM     33  C   UNL     1      -6.338   5.692 133.161  0.00  0.00    +0.000 A 
BRANCH  31  34
ATOM     34  O   UNL     1      -3.248   6.986 131.594  0.00  0.00    +0.000 OA
ATOM     35  C   UNL     1      -2.437   5.925 131.089  0.00  0.00    +0.000 C 
ENDBRANCH  31  34
ENDBRANCH  25  28
ENDBRANCH  19  25
ENDBRANCH   1  19
TORSDOF 11
ENDMDL
MODEL 5
REMARK VINA RESULT:      -7.6      8.857     11.230
REMARK  Name = CHEMBL1643588
REMARK  13 active torsions:
REMARK  status: ('A' for Active; 'I' for Inactive)
REMARK    1  A    between atoms: C_1  and  C_2
REMARK    2  A    between atoms: C_2  and  C_3
REMARK    3  A    between atoms: C_3  and  N_4
REMARK    4  A    between atoms: N_4  and  C_5
REMARK    5  A    between atoms: C_5  and  C_6
REMARK    6  A    between atoms: C_9  and  C_10
REMARK    7  A    between atoms: C_12  and  C_13
REMARK    8  A    between atoms: C_13  and  N_14
REMARK    9  A    between atoms: N_14  and  C_15
REMARK   10  A    between atoms: N_14  and  S_20
REMARK   11  A    between atoms: S_20  and  C_23
REMARK   12  A    between atoms: C_26  and  O_27
REMARK   13  A    between atoms: O_27  and  C_28
REMARK                            x       y       z     vdW  Elec       q    Type
REMARK                         _______ _______ _______ _____ _____    ______ ____
ROOT
ATOM      1  C   UNL     1      -5.923   4.063 132.171  0.00  0.00    +0.000 C 
ENDROOT
BRANCH   1   4
ATOM      2  C   UNL     1      -2.966   6.204 131.922  0.00  0.00    +0.000 A 
ATOM      3  N   UNL     1      -3.868   5.517 132.600  0.00  0.00    +0.000 NA
ATOM      4  C   UNL     1      -4.599   4.683 131.744  0.00  0.00    +0.000 A 
ATOM      5  C   UNL     1      -4.084   4.622 130.459  0.00  0.00    +0.000 A 
ATOM      6  S   UNL     1      -2.774   5.712 130.282  0.00  0.00    +0.000 S 
BRANCH   2  10
ATOM      7  C   UNL     1      -0.379   9.315 133.357  0.00  0.00    +0.000 A 
ATOM      8  C   UNL     1      -1.714   9.597 133.033  0.00  0.00    +0.000 A 
ATOM      9  C   UNL     1      -2.592   8.580 132.656  0.00  0.00    +0.000 A 
ATOM     10  C   UNL     1      -2.123   7.273 132.471  0.00  0.00    +0.000 A 
ATOM     11  C   UNL     1      -0.792   6.988 132.792  0.00  0.00    +0.000 A 
ATOM     12  C   UNL     1       0.076   7.997 133.218  0.00  0.00    +0.000 A 
BRANCH   7  13
ATOM     13  C   UNL     1       0.571  10.365 133.891  0.00  0.00    +0.000 C 
BRANCH  13  14
ATOM     14  N   UNL     1       1.392  10.952 132.834  0.00  0.00    +0.000 NA
ATOM     15  H   UNL     1       2.368  10.737 133.023  0.00  0.00    +0.000 HD
BRANCH  14  16
ATOM     16  C   UNL     1       1.238  12.395 132.781  0.00  0.00    +0.000 C 
BRANCH  16  18
ATOM     17  C   UNL     1      -0.772  12.834 131.380  0.00  0.00    +0.000 C 
ATOM     18  C   UNL     1       0.743  12.778 131.391  0.00  0.00    +0.000 C 
ENDBRANCH  16  18
ENDBRANCH  14  16
ENDBRANCH  13  14
ENDBRANCH   7  13
ENDBRANCH   2  10
ENDBRANCH   1   4
BRANCH   1  19
ATOM     19  N   UNL     1      -7.114   4.523 131.370  0.00  0.00    +0.000 NA
BRANCH  19  20
ATOM     20  C   UNL     1      -8.122   3.427 131.065  0.00  0.00    +0.000 C 
ATOM     21  C   UNL     1      -7.583   2.150 130.405  0.00  0.00    +0.000 C 
ATOM     22  C   UNL     1      -8.605   1.068 130.648  0.00  0.00    +0.000 C 
ATOM     23  C   UNL     1      -9.257   1.425 131.955  0.00  0.00    +0.000 C 
ATOM     24  C   UNL     1      -8.758   2.808 132.293  0.00  0.00    +0.000 C 
ENDBRANCH  19  20
BRANCH  19  25
ATOM     25  S   UNL     1      -7.648   6.067 131.940  0.00  0.00    +0.000 S 
ATOM     26  O   UNL     1      -7.758   5.988 133.378  0.00  0.00    +0.000 OA
ATOM     27  O   UNL     1      -6.770   7.082 131.372  0.00  0.00    +0.000 OA
BRANCH  25  28
ATOM     28  C   UNL     1      -9.286   6.377 131.270  0.00  0.00    +0.000 A 
ATOM     29  C   UNL     1      -9.452   7.016 130.042  0.00  0.00    +0.000 A 
ATOM     30  C   UNL     1     -10.729   7.476 129.672  0.00  0.00    +0.000 A 
ATOM     31  C   UNL     1     -11.860   7.202 130.456  0.00  0.00    +0.000 A 
ATOM     32  C   UNL     1     -11.693   6.521 131.656  0.00  0.00    +0.000 A 
ATOM     33  C   UNL     1     -10.413   6.160 132.082  0.00  0.00    +0.000 A 
BRANCH  31  34
ATOM     34  O   UNL     1     -13.063   7.641 129.969  0.00  0.00    +0.000 OA
ATOM     35  C   UNL     1     -13.477   7.095 128.717  0.00  0.00    +0.000 C 
ENDBRANCH  31  34
ENDBRANCH  25  28
ENDBRANCH  19  25
ENDBRANCH   1  19
TORSDOF 11
ENDMDL
MODEL 6
REMARK VINA RESULT:      -7.6      5.097      6.321
REMARK  Name = CHEMBL1643588
REMARK  13 active torsions:
REMARK  status: ('A' for Active; 'I' for Inactive)
REMARK    1  A    between atoms: C_1  and  C_2
REMARK    2  A    between atoms: C_2  and  C_3
REMARK    3  A    between atoms: C_3  and  N_4
REMARK    4  A    between atoms: N_4  and  C_5
REMARK    5  A    between atoms: C_5  and  C_6
REMARK    6  A    between atoms: C_9  and  C_10
REMARK    7  A    between atoms: C_12  and  C_13
REMARK    8  A    between atoms: C_13  and  N_14
REMARK    9  A    between atoms: N_14  and  C_15
REMARK   10  A    between atoms: N_14  and  S_20
REMARK   11  A    between atoms: S_20  and  C_23
REMARK   12  A    between atoms: C_26  and  O_27
REMARK   13  A    between atoms: O_27  and  C_28
REMARK                            x       y       z     vdW  Elec       q    Type
REMARK                         _______ _______ _______ _____ _____    ______ ____
ROOT
ATOM      1  C   UNL     1      -6.443   1.363 126.791  0.00  0.00    +0.000 C 
ENDROOT
BRANCH   1   4
ATOM      2  C   UNL     1      -3.786   3.505 128.110  0.00  0.00    +0.000 A 
ATOM      3  N   UNL     1      -4.830   2.708 128.244  0.00  0.00    +0.000 NA
ATOM      4  C   UNL     1      -5.105   2.046 127.040  0.00  0.00    +0.000 A 
ATOM      5  C   UNL     1      -4.123   2.218 126.079  0.00  0.00    +0.000 A 
ATOM      6  S   UNL     1      -2.929   3.319 126.625  0.00  0.00    +0.000 S 
BRANCH   2  10
ATOM      7  C   UNL     1      -2.251   6.128 131.142  0.00  0.00    +0.000 A 
ATOM      8  C   UNL     1      -2.006   6.392 129.787  0.00  0.00    +0.000 A 
ATOM      9  C   UNL     1      -2.576   5.603 128.786  0.00  0.00    +0.000 A 
ATOM     10  C   UNL     1      -3.304   4.453 129.121  0.00  0.00    +0.000 A 
ATOM     11  C   UNL     1      -3.549   4.187 130.471  0.00  0.00    +0.000 A 
ATOM     12  C   UNL     1      -3.019   5.005 131.473  0.00  0.00    +0.000 A 
BRANCH   7  13
ATOM     13  C   UNL     1      -1.756   7.030 132.252  0.00  0.00    +0.000 C 
BRANCH  13  14
ATOM     14  N   UNL     1      -0.374   6.736 132.625  0.00  0.00    +0.000 NA
ATOM     15  H   UNL     1      -0.375   5.984 133.310  0.00  0.00    +0.000 HD
BRANCH  14  16
ATOM     16  C   UNL     1       0.275   7.895 133.211  0.00  0.00    +0.000 C 
BRANCH  16  18
ATOM     17  C   UNL     1      -0.037  10.360 133.371  0.00  0.00    +0.000 C 
ATOM     18  C   UNL     1      -0.748   9.022 133.314  0.00  0.00    +0.000 C 
ENDBRANCH  16  18
ENDBRANCH  14  16
ENDBRANCH  13  14
ENDBRANCH   7  13
ENDBRANCH   2  10
ENDBRANCH   1   4
BRANCH   1  19
ATOM     19  N   UNL     1      -6.752   1.107 125.339  0.00  0.00    +0.000 NA
BRANCH  19  20
ATOM     20  C   UNL     1      -6.798  -0.365 124.961  0.00  0.00    +0.000 C 
ATOM     21  C   UNL     1      -6.658  -0.705 123.470  0.00  0.00    +0.000 C 
ATOM     22  C   UNL     1      -6.243  -2.153 123.390  0.00  0.00    +0.000 C 
ATOM     23  C   UNL     1      -5.453  -2.410 124.643  0.00  0.00    +0.000 C 
ATOM     24  C   UNL     1      -5.641  -1.183 125.500  0.00  0.00    +0.000 C 
ENDBRANCH  19  20
BRANCH  19  25
ATOM     25  S   UNL     1      -7.992   2.186 124.799  0.00  0.00    +0.000 S 
ATOM     26  O   UNL     1      -9.226   1.438 124.739  0.00  0.00    +0.000 OA
ATOM     27  O   UNL     1      -7.948   3.374 125.641  0.00  0.00    +0.000 OA
BRANCH  25  28
ATOM     28  C   UNL     1      -7.582   2.725 123.135  0.00  0.00    +0.000 A 
ATOM     29  C   UNL     1      -6.275   3.071 122.793  0.00  0.00    +0.000 A 
ATOM     30  C   UNL     1      -6.034   3.733 121.575  0.00  0.00    +0.000 A 
ATOM     31  C   UNL     1      -7.063   3.947 120.644  0.00  0.00    +0.000 A 
ATOM     32  C   UNL     1      -8.355   3.554 120.972  0.00  0.00    +0.000 A 
ATOM     33  C   UNL     1      -8.618   2.998 122.226  0.00  0.00    +0.000 A 
BRANCH  31  34
ATOM     34  O   UNL     1      -6.705   4.542 119.463  0.00  0.00    +0.000 OA
ATOM     35  C   UNL     1      -5.511   5.325 119.485  0.00  0.00    +0.000 C 
ENDBRANCH  31  34
ENDBRANCH  25  28
ENDBRANCH  19  25
ENDBRANCH   1  19
TORSDOF 11
ENDMDL
MODEL 7
REMARK VINA RESULT:      -7.6      6.146      9.258
REMARK  Name = CHEMBL1643588
REMARK  13 active torsions:
REMARK  status: ('A' for Active; 'I' for Inactive)
REMARK    1  A    between atoms: C_1  and  C_2
REMARK    2  A    between atoms: C_2  and  C_3
REMARK    3  A    between atoms: C_3  and  N_4
REMARK    4  A    between atoms: N_4  and  C_5
REMARK    5  A    between atoms: C_5  and  C_6
REMARK    6  A    between atoms: C_9  and  C_10
REMARK    7  A    between atoms: C_12  and  C_13
REMARK    8  A    between atoms: C_13  and  N_14
REMARK    9  A    between atoms: N_14  and  C_15
REMARK   10  A    between atoms: N_14  and  S_20
REMARK   11  A    between atoms: S_20  and  C_23
REMARK   12  A    between atoms: C_26  and  O_27
REMARK   13  A    between atoms: O_27  and  C_28
REMARK                            x       y       z     vdW  Elec       q    Type
REMARK                         _______ _______ _______ _____ _____    ______ ____
ROOT
ATOM      1  C   UNL     1      -9.391   4.245 130.810  0.00  0.00    +0.000 C 
ENDROOT
BRANCH   1   4
ATOM      2  C   UNL     1      -8.321   2.048 128.086  0.00  0.00    +0.000 A 
ATOM      3  N   UNL     1      -9.231   2.569 128.890  0.00  0.00    +0.000 NA
ATOM      4  C   UNL     1      -8.713   3.679 129.569  0.00  0.00    +0.000 A 
ATOM      5  C   UNL     1      -7.474   4.085 129.101  0.00  0.00    +0.000 A 
ATOM      6  S   UNL     1      -6.893   2.997 127.911  0.00  0.00    +0.000 S 
BRANCH   2  10
ATOM      7  C   UNL     1      -8.645  -1.518 125.719  0.00  0.00    +0.000 A 
ATOM      8  C   UNL     1      -7.935  -1.532 126.928  0.00  0.00    +0.000 A 
ATOM      9  C   UNL     1      -7.899  -0.408 127.754  0.00  0.00    +0.000 A 
ATOM     10  C   UNL     1      -8.470   0.800 127.330  0.00  0.00    +0.000 A 
ATOM     11  C   UNL     1      -9.178   0.817 126.124  0.00  0.00    +0.000 A 
ATOM     12  C   UNL     1      -9.256  -0.322 125.320  0.00  0.00    +0.000 A 
BRANCH   7  13
ATOM     13  C   UNL     1      -8.813  -2.750 124.856  0.00  0.00    +0.000 C 
BRANCH  13  14
ATOM     14  N   UNL     1      -7.573  -3.515 124.743  0.00  0.00    +0.000 NA
ATOM     15  H   UNL     1      -7.094  -3.493 125.639  0.00  0.00    +0.000 HD
BRANCH  14  16
ATOM     16  C   UNL     1      -6.693  -2.952 123.734  0.00  0.00    +0.000 C 
BRANCH  16  18
ATOM     17  C   UNL     1      -4.379  -3.853 123.559  0.00  0.00    +0.000 C 
ATOM     18  C   UNL     1      -5.280  -2.889 124.305  0.00  0.00    +0.000 C 
ENDBRANCH  16  18
ENDBRANCH  14  16
ENDBRANCH  13  14
ENDBRANCH   7  13
ENDBRANCH   2  10
ENDBRANCH   1   4
BRANCH   1  19
ATOM     19  N   UNL     1      -8.901   5.610 131.221  0.00  0.00    +0.000 NA
BRANCH  19  20
ATOM     20  C   UNL     1      -9.939   6.713 131.086  0.00  0.00    +0.000 C 
ATOM     21  C   UNL     1     -10.195   7.258 129.674  0.00  0.00    +0.000 C 
ATOM     22  C   UNL     1     -11.541   7.938 129.706  0.00  0.00    +0.000 C 
ATOM     23  C   UNL     1     -12.334   7.199 130.747  0.00  0.00    +0.000 C 
ATOM     24  C   UNL     1     -11.350   6.285 131.434  0.00  0.00    +0.000 C 
ENDBRANCH  19  20
BRANCH  19  25
ATOM     25  S   UNL     1      -7.941   5.485 132.655  0.00  0.00    +0.000 S 
ATOM     26  O   UNL     1      -8.589   6.265 133.684  0.00  0.00    +0.000 OA
ATOM     27  O   UNL     1      -7.702   4.071 132.912  0.00  0.00    +0.000 OA
BRANCH  25  28
ATOM     28  C   UNL     1      -6.336   6.222 132.322  0.00  0.00    +0.000 A 
ATOM     29  C   UNL     1      -6.083   6.880 131.119  0.00  0.00    +0.000 A 
ATOM     30  C   UNL     1      -4.758   7.210 130.780  0.00  0.00    +0.000 A 
ATOM     31  C   UNL     1      -3.700   6.999 131.679  0.00  0.00    +0.000 A 
ATOM     32  C   UNL     1      -3.969   6.386 132.897  0.00  0.00    +0.000 A 
ATOM     33  C   UNL     1      -5.264   5.955 133.191  0.00  0.00    +0.000 A 
BRANCH  31  34
ATOM     34  O   UNL     1      -2.461   7.417 131.272  0.00  0.00    +0.000 OA
ATOM     35  C   UNL     1      -1.363   6.567 131.608  0.00  0.00    +0.000 C 
ENDBRANCH  31  34
ENDBRANCH  25  28
ENDBRANCH  19  25
ENDBRANCH   1  19
TORSDOF 11
ENDMDL
MODEL 8
REMARK VINA RESULT:      -7.5      5.878      8.594
REMARK  Name = CHEMBL1643588
REMARK  13 active torsions:
REMARK  status: ('A' for Active; 'I' for Inactive)
REMARK    1  A    between atoms: C_1  and  C_2
REMARK    2  A    between atoms: C_2  and  C_3
REMARK    3  A    between atoms: C_3  and  N_4
REMARK    4  A    between atoms: N_4  and  C_5
REMARK    5  A    between atoms: C_5  and  C_6
REMARK    6  A    between atoms: C_9  and  C_10
REMARK    7  A    between atoms: C_12  and  C_13
REMARK    8  A    between atoms: C_13  and  N_14
REMARK    9  A    between atoms: N_14  and  C_15
REMARK   10  A    between atoms: N_14  and  S_20
REMARK   11  A    between atoms: S_20  and  C_23
REMARK   12  A    between atoms: C_26  and  O_27
REMARK   13  A    between atoms: O_27  and  C_28
REMARK                            x       y       z     vdW  Elec       q    Type
REMARK                         _______ _______ _______ _____ _____    ______ ____
ROOT
ATOM      1  C   UNL     1      -8.891   2.891 131.990  0.00  0.00    +0.000 C 
ENDROOT
BRANCH   1   4
ATOM      2  C   UNL     1      -7.624   0.212 129.845  0.00  0.00    +0.000 A 
ATOM      3  N   UNL     1      -8.405   1.246 130.099  0.00  0.00    +0.000 NA
ATOM      4  C   UNL     1      -7.985   1.909 131.259  0.00  0.00    +0.000 A 
ATOM      5  C   UNL     1      -6.764   1.464 131.739  0.00  0.00    +0.000 A 
ATOM      6  S   UNL     1      -6.209   0.124 130.826  0.00  0.00    +0.000 S 
BRANCH   2  10
ATOM      7  C   UNL     1      -8.100  -2.656 126.686  0.00  0.00    +0.000 A 
ATOM      8  C   UNL     1      -7.978  -3.082 128.017  0.00  0.00    +0.000 A 
ATOM      9  C   UNL     1      -7.917  -2.160 129.063  0.00  0.00    +0.000 A 
ATOM     10  C   UNL     1      -7.850  -0.787 128.793  0.00  0.00    +0.000 A 
ATOM     11  C   UNL     1      -7.970  -0.360 127.467  0.00  0.00    +0.000 A 
ATOM     12  C   UNL     1      -8.081  -1.281 126.423  0.00  0.00    +0.000 A 
BRANCH   7  13
ATOM     13  C   UNL     1      -8.295  -3.621 125.536  0.00  0.00    +0.000 C 
BRANCH  13  14
ATOM     14  N   UNL     1      -7.670  -3.142 124.305  0.00  0.00    +0.000 NA
ATOM     15  H   UNL     1      -8.200  -3.495 123.512  0.00  0.00    +0.000 HD
BRANCH  14  16
ATOM     16  C   UNL     1      -6.299  -3.608 124.190  0.00  0.00    +0.000 C 
BRANCH  16  18
ATOM     17  C   UNL     1      -6.480  -1.597 122.733  0.00  0.00    +0.000 C 
ATOM     18  C   UNL     1      -5.534  -2.643 123.291  0.00  0.00    +0.000 C 
ENDBRANCH  16  18
ENDBRANCH  14  16
ENDBRANCH  13  14
ENDBRANCH   7  13
ENDBRANCH   2  10
ENDBRANCH   1   4
BRANCH   1  19
ATOM     19  N   UNL     1      -8.873   4.291 131.432  0.00  0.00    +0.000 NA
BRANCH  19  20
ATOM     20  C   UNL     1      -7.486   4.906 131.336  0.00  0.00    +0.000 C 
ATOM     21  C   UNL     1      -7.408   6.386 130.934  0.00  0.00    +0.000 C 
ATOM     22  C   UNL     1      -6.055   6.887 131.373  0.00  0.00    +0.000 C 
ATOM     23  C   UNL     1      -5.703   6.069 132.584  0.00  0.00    +0.000 C 
ATOM     24  C   UNL     1      -6.744   4.980 132.655  0.00  0.00    +0.000 C 
ENDBRANCH  19  20
BRANCH  19  25
ATOM     25  S   UNL     1      -9.976   4.412 130.105  0.00  0.00    +0.000 S 
ATOM     26  O   UNL     1      -9.201   4.363 128.887  0.00  0.00    +0.000 OA
ATOM     27  O   UNL     1     -11.019   3.413 130.297  0.00  0.00    +0.000 OA
BRANCH  25  28
ATOM     28  C   UNL     1     -10.783   6.015 130.191  0.00  0.00    +0.000 A 
ATOM     29  C   UNL     1     -11.744   6.285 131.164  0.00  0.00    +0.000 A 
ATOM     30  C   UNL     1     -12.540   7.439 131.045  0.00  0.00    +0.000 A 
ATOM     31  C   UNL     1     -12.308   8.385 130.035  0.00  0.00    +0.000 A 
ATOM     32  C   UNL     1     -11.314   8.132 129.097  0.00  0.00    +0.000 A 
ATOM     33  C   UNL     1     -10.597   6.935 129.144  0.00  0.00    +0.000 A 
BRANCH  31  34
ATOM     34  O   UNL     1     -13.099   9.504 130.051  0.00  0.00    +0.000 OA
ATOM     35  C   UNL     1     -13.518  10.002 128.780  0.00  0.00    +0.000 C 
ENDBRANCH  31  34
ENDBRANCH  25  28
ENDBRANCH  19  25
ENDBRANCH   1  19
TORSDOF 11
ENDMDL
MODEL 9
REMARK VINA RESULT:      -7.5      8.947     11.399
REMARK  Name = CHEMBL1643588
REMARK  13 active torsions:
REMARK  status: ('A' for Active; 'I' for Inactive)
REMARK    1  A    between atoms: C_1  and  C_2
REMARK    2  A    between atoms: C_2  and  C_3
REMARK    3  A    between atoms: C_3  and  N_4
REMARK    4  A    between atoms: N_4  and  C_5
REMARK    5  A    between atoms: C_5  and  C_6
REMARK    6  A    between atoms: C_9  and  C_10
REMARK    7  A    between atoms: C_12  and  C_13
REMARK    8  A    between atoms: C_13  and  N_14
REMARK    9  A    between atoms: N_14  and  C_15
REMARK   10  A    between atoms: N_14  and  S_20
REMARK   11  A    between atoms: S_20  and  C_23
REMARK   12  A    between atoms: C_26  and  O_27
REMARK   13  A    between atoms: O_27  and  C_28
REMARK                            x       y       z     vdW  Elec       q    Type
REMARK                         _______ _______ _______ _____ _____    ______ ____
ROOT
ATOM      1  C   UNL     1      -6.997   6.082 130.734  0.00  0.00    +0.000 C 
ENDROOT
BRANCH   1   4
ATOM      2  C   UNL     1      -3.447   6.635 131.429  0.00  0.00    +0.000 A 
ATOM      3  N   UNL     1      -4.732   6.721 131.725  0.00  0.00    +0.000 NA
ATOM      4  C   UNL     1      -5.490   5.908 130.873  0.00  0.00    +0.000 A 
ATOM      5  C   UNL     1      -4.722   5.071 130.080  0.00  0.00    +0.000 A 
ATOM      6  S   UNL     1      -3.054   5.399 130.294  0.00  0.00    +0.000 S 
BRANCH   2  10
ATOM      7  C   UNL     1      -0.446   9.042 133.335  0.00  0.00    +0.000 A 
ATOM      8  C   UNL     1      -0.176   7.707 132.999  0.00  0.00    +0.000 A 
ATOM      9  C   UNL     1      -1.106   6.941 132.296  0.00  0.00    +0.000 A 
ATOM     10  C   UNL     1      -2.382   7.453 132.021  0.00  0.00    +0.000 A 
ATOM     11  C   UNL     1      -2.654   8.783 132.356  0.00  0.00    +0.000 A 
ATOM     12  C   UNL     1      -1.705   9.567 133.016  0.00  0.00    +0.000 A 
BRANCH   7  13
ATOM     13  C   UNL     1       0.581   9.944 133.985  0.00  0.00    +0.000 C 
BRANCH  13  14
ATOM     14  N   UNL     1       1.298  10.756 133.004  0.00  0.00    +0.000 NA
ATOM     15  H   UNL     1       2.263  10.437 132.961  0.00  0.00    +0.000 HD
BRANCH  14  16
ATOM     16  C   UNL     1       1.291  12.161 133.372  0.00  0.00    +0.000 C 
BRANCH  16  18
ATOM     17  C   UNL     1       0.365  12.797 131.150  0.00  0.00    +0.000 C 
ATOM     18  C   UNL     1       0.135  12.844 132.648  0.00  0.00    +0.000 C 
ENDBRANCH  16  18
ENDBRANCH  14  16
ENDBRANCH  13  14
ENDBRANCH   7  13
ENDBRANCH   2  10
ENDBRANCH   1   4
BRANCH   1  19
ATOM     19  N   UNL     1      -7.787   4.807 130.866  0.00  0.00    +0.000 NA
BRANCH  19  20
ATOM     20  C   UNL     1      -8.101   4.412 132.301  0.00  0.00    +0.000 C 
ATOM     21  C   UNL     1      -7.023   3.621 133.056  0.00  0.00    +0.000 C 
ATOM     22  C   UNL     1      -7.320   3.774 134.527  0.00  0.00    +0.000 C 
ATOM     23  C   UNL     1      -7.976   5.120 134.661  0.00  0.00    +0.000 C 
ATOM     24  C   UNL     1      -8.244   5.583 133.251  0.00  0.00    +0.000 C 
ENDBRANCH  19  20
BRANCH  19  25
ATOM     25  S   UNL     1      -9.021   4.749 129.655  0.00  0.00    +0.000 S 
ATOM     26  O   UNL     1      -8.389   4.973 128.376  0.00  0.00    +0.000 OA
ATOM     27  O   UNL     1      -9.776   3.517 129.843  0.00  0.00    +0.000 OA
BRANCH  25  28
ATOM     28  C   UNL     1     -10.168   6.100 129.957  0.00  0.00    +0.000 A 
ATOM     29  C   UNL     1     -11.158   5.997 130.933  0.00  0.00    +0.000 A 
ATOM     30  C   UNL     1     -12.194   6.949 130.965  0.00  0.00    +0.000 A 
ATOM     31  C   UNL     1     -12.187   8.066 130.115  0.00  0.00    +0.000 A 
ATOM     32  C   UNL     1     -11.168   8.186 129.177  0.00  0.00    +0.000 A 
ATOM     33  C   UNL     1     -10.200   7.185 129.065  0.00  0.00    +0.000 A 
BRANCH  31  34
ATOM     34  O   UNL     1     -13.208   8.964 130.275  0.00  0.00    +0.000 OA
ATOM     35  C   UNL     1     -13.187  10.108 129.422  0.00  0.00    +0.000 C 
ENDBRANCH  31  34
ENDBRANCH  25  28
ENDBRANCH  19  25
ENDBRANCH   1  19
TORSDOF 11
ENDMDL
