MODEL 1
REMARK VINA RESULT:      -7.6      0.000      0.000
REMARK  Name = CHEMBL4213812
REMARK  1 active torsions:
REMARK  status: ('A' for Active; 'I' for Inactive)
REMARK    1  A    between atoms: C_2  and  C_3
REMARK                            x       y       z     vdW  Elec       q    Type
REMARK                         _______ _______ _______ _____ _____    ______ ____
ROOT
ATOM      1  O   UNL     1      -7.516   2.915 125.513  0.00  0.00    +0.000 OA
ATOM      2  C   UNL     1      -7.500   2.068 124.611  0.00  0.00    +0.000 C 
ATOM      3  N   UNL     1      -7.713   0.689 124.875  0.00  0.00    +0.000 N 
ATOM      4  C   UNL     1      -8.532   0.286 126.051  0.00  0.00    +0.000 C 
ATOM      5  C   UNL     1      -7.861   0.048 127.413  0.00  0.00    +0.000 C 
ATOM      6  C   UNL     1      -6.863  -1.101 127.408  0.00  0.00    +0.000 C 
ATOM      7  C   UNL     1      -5.673  -0.710 126.552  0.00  0.00    +0.000 C 
ATOM      8  C   UNL     1      -5.955  -1.063 125.117  0.00  0.00    +0.000 A 
ATOM      9  C   UNL     1      -5.288  -2.196 124.608  0.00  0.00    +0.000 A 
ATOM     10  C   UNL     1      -5.515  -2.627 123.312  0.00  0.00    +0.000 A 
ATOM     11  C   UNL     1      -6.407  -1.919 122.513  0.00  0.00    +0.000 A 
ATOM     12  C   UNL     1      -7.077  -0.786 123.009  0.00  0.00    +0.000 A 
ATOM     13  C   UNL     1      -6.873  -0.340 124.318  0.00  0.00    +0.000 A 
ENDROOT
BRANCH   2  14
ATOM     14  C   UNL     1      -7.415   2.604 123.201  0.00  0.00    +0.000 A 
ATOM     15  C   UNL     1      -6.197   3.071 122.666  0.00  0.00    +0.000 A 
ATOM     16  C   UNL     1      -6.139   3.662 121.385  0.00  0.00    +0.000 A 
ATOM     17  C   UNL     1      -7.306   3.830 120.644  0.00  0.00    +0.000 A 
ATOM     18  I   UNL     1      -7.223   4.641 118.725  0.00  0.00    +0.000 I 
ATOM     19  C   UNL     1      -8.531   3.458 121.193  0.00  0.00    +0.000 A 
ATOM     20  C   UNL     1      -8.584   2.866 122.470  0.00  0.00    +0.000 A 
ENDBRANCH   2  14
TORSDOF 1
ENDMDL
MODEL 2
REMARK VINA RESULT:      -7.3      4.297      5.679
REMARK  Name = CHEMBL4213812
REMARK  1 active torsions:
REMARK  status: ('A' for Active; 'I' for Inactive)
REMARK    1  A    between atoms: C_2  and  C_3
REMARK                            x       y       z     vdW  Elec       q    Type
REMARK                         _______ _______ _______ _____ _____    ______ ____
ROOT
ATOM      1  O   UNL     1      -8.358   0.080 126.678  0.00  0.00    +0.000 OA
ATOM      2  C   UNL     1      -7.260  -0.376 127.022  0.00  0.00    +0.000 C 
ATOM      3  N   UNL     1      -7.012  -1.773 127.078  0.00  0.00    +0.000 N 
ATOM      4  C   UNL     1      -7.781  -2.688 126.190  0.00  0.00    +0.000 C 
ATOM      5  C   UNL     1      -9.108  -3.295 126.672  0.00  0.00    +0.000 C 
ATOM      6  C   UNL     1      -8.959  -4.201 127.886  0.00  0.00    +0.000 C 
ATOM      7  C   UNL     1      -8.564  -3.355 129.082  0.00  0.00    +0.000 C 
ATOM      8  C   UNL     1      -7.068  -3.209 129.115  0.00  0.00    +0.000 A 
ATOM      9  C   UNL     1      -6.386  -3.970 130.086  0.00  0.00    +0.000 A 
ATOM     10  C   UNL     1      -5.004  -3.937 130.168  0.00  0.00    +0.000 A 
ATOM     11  C   UNL     1      -4.296  -3.133 129.281  0.00  0.00    +0.000 A 
ATOM     12  C   UNL     1      -4.965  -2.368 128.309  0.00  0.00    +0.000 A 
ATOM     13  C   UNL     1      -6.358  -2.395 128.200  0.00  0.00    +0.000 A 
ENDROOT
BRANCH   2  14
ATOM     14  C   UNL     1      -6.153   0.636 127.211  0.00  0.00    +0.000 A 
ATOM     15  C   UNL     1      -5.979   1.312 128.435  0.00  0.00    +0.000 A 
ATOM     16  C   UNL     1      -5.008   2.328 128.578  0.00  0.00    +0.000 A 
ATOM     17  C   UNL     1      -4.231   2.706 127.486  0.00  0.00    +0.000 A 
ATOM     18  I   UNL     1      -2.750   4.157 127.702  0.00  0.00    +0.000 I 
ATOM     19  C   UNL     1      -4.451   2.112 126.244  0.00  0.00    +0.000 A 
ATOM     20  C   UNL     1      -5.419   1.098 126.107  0.00  0.00    +0.000 A 
ENDBRANCH   2  14
TORSDOF 1
ENDMDL
MODEL 3
REMARK VINA RESULT:      -7.1      3.714      5.523
REMARK  Name = CHEMBL4213812
REMARK  1 active torsions:
REMARK  status: ('A' for Active; 'I' for Inactive)
REMARK    1  A    between atoms: C_2  and  C_3
REMARK                            x       y       z     vdW  Elec       q    Type
REMARK                         _______ _______ _______ _____ _____    ______ ____
ROOT
ATOM      1  O   UNL     1      -5.770  -2.370 126.016  0.00  0.00    +0.000 OA
ATOM      2  C   UNL     1      -6.520  -1.386 126.048  0.00  0.00    +0.000 C 
ATOM      3  N   UNL     1      -7.893  -1.479 125.697  0.00  0.00    +0.000 N 
ATOM      4  C   UNL     1      -8.607  -2.774 125.869  0.00  0.00    +0.000 C 
ATOM      5  C   UNL     1      -8.641  -3.795 124.720  0.00  0.00    +0.000 C 
ATOM      6  C   UNL     1      -9.354  -3.287 123.475  0.00  0.00    +0.000 C 
ATOM      7  C   UNL     1      -8.531  -2.171 122.861  0.00  0.00    +0.000 C 
ATOM      8  C   UNL     1      -8.906  -0.865 123.503  0.00  0.00    +0.000 A 
ATOM      9  C   UNL     1      -9.705   0.005 122.732  0.00  0.00    +0.000 A 
ATOM     10  C   UNL     1     -10.139   1.213 123.253  0.00  0.00    +0.000 A 
ATOM     11  C   UNL     1      -9.768   1.562 124.546  0.00  0.00    +0.000 A 
ATOM     12  C   UNL     1      -8.970   0.704 125.324  0.00  0.00    +0.000 A 
ATOM     13  C   UNL     1      -8.531  -0.526 124.824  0.00  0.00    +0.000 A 
ENDROOT
BRANCH   2  14
ATOM     14  C   UNL     1      -5.936  -0.127 126.646  0.00  0.00    +0.000 A 
ATOM     15  C   UNL     1      -5.261   0.819 125.849  0.00  0.00    +0.000 A 
ATOM     16  C   UNL     1      -4.631   1.944 126.423  0.00  0.00    +0.000 A 
ATOM     17  C   UNL     1      -4.633   2.111 127.806  0.00  0.00    +0.000 A 
ATOM     18  I   UNL     1      -3.763   3.802 128.661  0.00  0.00    +0.000 I 
ATOM     19  C   UNL     1      -5.217   1.140 128.617  0.00  0.00    +0.000 A 
ATOM     20  C   UNL     1      -5.846   0.021 128.039  0.00  0.00    +0.000 A 
ENDBRANCH   2  14
TORSDOF 1
ENDMDL
MODEL 4
REMARK VINA RESULT:      -7.0      3.967      5.475
REMARK  Name = CHEMBL4213812
REMARK  1 active torsions:
REMARK  status: ('A' for Active; 'I' for Inactive)
REMARK    1  A    between atoms: C_2  and  C_3
REMARK                            x       y       z     vdW  Elec       q    Type
REMARK                         _______ _______ _______ _____ _____    ______ ____
ROOT
ATOM      1  O   UNL     1      -7.283   0.565 124.345  0.00  0.00    +0.000 OA
ATOM      2  C   UNL     1      -6.844   0.037 125.374  0.00  0.00    +0.000 C 
ATOM      3  N   UNL     1      -6.787  -1.373 125.528  0.00  0.00    +0.000 N 
ATOM      4  C   UNL     1      -6.664  -2.236 124.321  0.00  0.00    +0.000 C 
ATOM      5  C   UNL     1      -7.924  -2.751 123.608  0.00  0.00    +0.000 C 
ATOM      6  C   UNL     1      -8.783  -3.663 124.472  0.00  0.00    +0.000 C 
ATOM      7  C   UNL     1      -9.388  -2.844 125.597  0.00  0.00    +0.000 C 
ATOM      8  C   UNL     1      -8.426  -2.799 126.752  0.00  0.00    +0.000 A 
ATOM      9  C   UNL     1      -8.747  -3.602 127.865  0.00  0.00    +0.000 A 
ATOM     10  C   UNL     1      -7.901  -3.662 128.960  0.00  0.00    +0.000 A 
ATOM     11  C   UNL     1      -6.732  -2.910 128.951  0.00  0.00    +0.000 A 
ATOM     12  C   UNL     1      -6.402  -2.102 127.848  0.00  0.00    +0.000 A 
ATOM     13  C   UNL     1      -7.234  -2.036 126.726  0.00  0.00    +0.000 A 
ENDROOT
BRANCH   2  14
ATOM     14  C   UNL     1      -6.216   0.973 126.381  0.00  0.00    +0.000 A 
ATOM     15  C   UNL     1      -6.992   1.624 127.361  0.00  0.00    +0.000 A 
ATOM     16  C   UNL     1      -6.419   2.572 128.237  0.00  0.00    +0.000 A 
ATOM     17  C   UNL     1      -5.074   2.910 128.113  0.00  0.00    +0.000 A 
ATOM     18  I   UNL     1      -4.202   4.259 129.442  0.00  0.00    +0.000 I 
ATOM     19  C   UNL     1      -4.312   2.344 127.092  0.00  0.00    +0.000 A 
ATOM     20  C   UNL     1      -4.887   1.397 126.222  0.00  0.00    +0.000 A 
ENDBRANCH   2  14
TORSDOF 1
ENDMDL
MODEL 5
REMARK VINA RESULT:      -6.9      4.736      6.651
REMARK  Name = CHEMBL4213812
REMARK  1 active torsions:
REMARK  status: ('A' for Active; 'I' for Inactive)
REMARK    1  A    between atoms: C_2  and  C_3
REMARK                            x       y       z     vdW  Elec       q    Type
REMARK                         _______ _______ _______ _____ _____    ______ ____
ROOT
ATOM      1  O   UNL     1      -6.806   1.626 126.555  0.00  0.00    +0.000 OA
ATOM      2  C   UNL     1      -7.015   0.764 127.418  0.00  0.00    +0.000 C 
ATOM      3  N   UNL     1      -6.669  -0.599 127.217  0.00  0.00    +0.000 N 
ATOM      4  C   UNL     1      -5.549  -0.941 126.297  0.00  0.00    +0.000 C 
ATOM      5  C   UNL     1      -5.825  -1.190 124.805  0.00  0.00    +0.000 C 
ATOM      6  C   UNL     1      -6.728  -2.386 124.544  0.00  0.00    +0.000 C 
ATOM      7  C   UNL     1      -8.120  -2.069 125.057  0.00  0.00    +0.000 C 
ATOM      8  C   UNL     1      -8.207  -2.430 126.514  0.00  0.00    +0.000 A 
ATOM      9  C   UNL     1      -8.925  -3.603 126.826  0.00  0.00    +0.000 A 
ATOM     10  C   UNL     1      -9.025  -4.043 128.135  0.00  0.00    +0.000 A 
ATOM     11  C   UNL     1      -8.414  -3.306 129.143  0.00  0.00    +0.000 A 
ATOM     12  C   UNL     1      -7.697  -2.133 128.845  0.00  0.00    +0.000 A 
ATOM     13  C   UNL     1      -7.572  -1.677 127.529  0.00  0.00    +0.000 A 
ENDROOT
BRANCH   2  14
ATOM     14  C   UNL     1      -7.496   1.272 128.758  0.00  0.00    +0.000 A 
ATOM     15  C   UNL     1      -8.681   2.027 128.873  0.00  0.00    +0.000 A 
ATOM     16  C   UNL     1      -9.076   2.584 130.108  0.00  0.00    +0.000 A 
ATOM     17  C   UNL     1      -8.268   2.427 131.232  0.00  0.00    +0.000 A 
ATOM     18  I   UNL     1      -8.874   3.188 133.076  0.00  0.00    +0.000 I 
ATOM     19  C   UNL     1      -7.049   1.761 131.117  0.00  0.00    +0.000 A 
ATOM     20  C   UNL     1      -6.660   1.205 129.883  0.00  0.00    +0.000 A 
ENDBRANCH   2  14
TORSDOF 1
ENDMDL
MODEL 6
REMARK VINA RESULT:      -6.8      8.083     10.264
REMARK  Name = CHEMBL4213812
REMARK  1 active torsions:
REMARK  status: ('A' for Active; 'I' for Inactive)
REMARK    1  A    between atoms: C_2  and  C_3
REMARK                            x       y       z     vdW  Elec       q    Type
REMARK                         _______ _______ _______ _____ _____    ______ ____
ROOT
ATOM      1  O   UNL     1      -4.130   3.644 133.738  0.00  0.00    +0.000 OA
ATOM      2  C   UNL     1      -4.677   4.382 132.909  0.00  0.00    +0.000 C 
ATOM      3  N   UNL     1      -5.532   5.446 133.302  0.00  0.00    +0.000 N 
ATOM      4  C   UNL     1      -5.336   6.090 134.630  0.00  0.00    +0.000 C 
ATOM      5  C   UNL     1      -6.076   5.552 135.865  0.00  0.00    +0.000 C 
ATOM      6  C   UNL     1      -7.590   5.661 135.763  0.00  0.00    +0.000 C 
ATOM      7  C   UNL     1      -8.077   4.713 134.684  0.00  0.00    +0.000 C 
ATOM      8  C   UNL     1      -8.024   5.406 133.351  0.00  0.00    +0.000 A 
ATOM      9  C   UNL     1      -9.258   5.822 132.812  0.00  0.00    +0.000 A 
ATOM     10  C   UNL     1      -9.309   6.509 131.610  0.00  0.00    +0.000 A 
ATOM     11  C   UNL     1      -8.123   6.774 130.934  0.00  0.00    +0.000 A 
ATOM     12  C   UNL     1      -6.886   6.361 131.460  0.00  0.00    +0.000 A 
ATOM     13  C   UNL     1      -6.809   5.679 132.678  0.00  0.00    +0.000 A 
ENDROOT
BRANCH   2  14
ATOM     14  C   UNL     1      -4.249   4.196 131.472  0.00  0.00    +0.000 A 
ATOM     15  C   UNL     1      -4.530   3.006 130.771  0.00  0.00    +0.000 A 
ATOM     16  C   UNL     1      -4.043   2.794 129.463  0.00  0.00    +0.000 A 
ATOM     17  C   UNL     1      -3.235   3.754 128.858  0.00  0.00    +0.000 A 
ATOM     18  I   UNL     1      -2.566   3.483 126.903  0.00  0.00    +0.000 I 
ATOM     19  C   UNL     1      -2.872   4.897 129.569  0.00  0.00    +0.000 A 
ATOM     20  C   UNL     1      -3.362   5.104 130.873  0.00  0.00    +0.000 A 
ENDBRANCH   2  14
TORSDOF 1
ENDMDL
MODEL 7
REMARK VINA RESULT:      -6.5      7.345     10.014
REMARK  Name = CHEMBL4213812
REMARK  1 active torsions:
REMARK  status: ('A' for Active; 'I' for Inactive)
REMARK    1  A    between atoms: C_2  and  C_3
REMARK                            x       y       z     vdW  Elec       q    Type
REMARK                         _______ _______ _______ _____ _____    ______ ____
ROOT
ATOM      1  O   UNL     1      -9.195   2.878 128.883  0.00  0.00    +0.000 OA
ATOM      2  C   UNL     1      -9.112   2.749 130.111  0.00  0.00    +0.000 C 
ATOM      3  N   UNL     1      -9.694   3.687 131.005  0.00  0.00    +0.000 N 
ATOM      4  C   UNL     1     -10.883   4.470 130.570  0.00  0.00    +0.000 C 
ATOM      5  C   UNL     1     -10.700   5.828 129.874  0.00  0.00    +0.000 C 
ATOM      6  C   UNL     1     -10.025   6.875 130.748  0.00  0.00    +0.000 C 
ATOM      7  C   UNL     1      -8.585   6.462 130.982  0.00  0.00    +0.000 C 
ATOM      8  C   UNL     1      -8.517   5.547 132.174  0.00  0.00    +0.000 A 
ATOM      9  C   UNL     1      -8.003   6.106 133.363  0.00  0.00    +0.000 A 
ATOM     10  C   UNL     1      -7.941   5.357 134.526  0.00  0.00    +0.000 A 
ATOM     11  C   UNL     1      -8.385   4.039 134.504  0.00  0.00    +0.000 A 
ATOM     12  C   UNL     1      -8.898   3.471 133.324  0.00  0.00    +0.000 A 
ATOM     13  C   UNL     1      -8.982   4.212 132.142  0.00  0.00    +0.000 A 
ENDROOT
BRANCH   2  14
ATOM     14  C   UNL     1      -8.509   1.452 130.601  0.00  0.00    +0.000 A 
ATOM     15  C   UNL     1      -7.372   0.894 129.985  0.00  0.00    +0.000 A 
ATOM     16  C   UNL     1      -6.870  -0.366 130.379  0.00  0.00    +0.000 A 
ATOM     17  C   UNL     1      -7.527  -1.098 131.366  0.00  0.00    +0.000 A 
ATOM     18  I   UNL     1      -6.758  -2.927 132.003  0.00  0.00    +0.000 I 
ATOM     19  C   UNL     1      -8.704  -0.602 131.922  0.00  0.00    +0.000 A 
ATOM     20  C   UNL     1      -9.200   0.655 131.527  0.00  0.00    +0.000 A 
ENDBRANCH   2  14
TORSDOF 1
ENDMDL
MODEL 8
REMARK VINA RESULT:      -6.5      3.414      6.421
REMARK  Name = CHEMBL4213812
REMARK  1 active torsions:
REMARK  status: ('A' for Active; 'I' for Inactive)
REMARK    1  A    between atoms: C_2  and  C_3
REMARK                            x       y       z     vdW  Elec       q    Type
REMARK                         _______ _______ _______ _____ _____    ______ ____
ROOT
ATOM      1  O   UNL     1      -8.384  -0.709 123.382  0.00  0.00    +0.000 OA
ATOM      2  C   UNL     1      -7.972  -0.003 124.311  0.00  0.00    +0.000 C 
ATOM      3  N   UNL     1      -8.136   1.407 124.311  0.00  0.00    +0.000 N 
ATOM      4  C   UNL     1      -9.276   2.011 123.568  0.00  0.00    +0.000 C 
ATOM      5  C   UNL     1      -9.110   2.416 122.095  0.00  0.00    +0.000 C 
ATOM      6  C   UNL     1      -8.073   3.507 121.876  0.00  0.00    +0.000 C 
ATOM      7  C   UNL     1      -6.699   2.946 122.190  0.00  0.00    +0.000 C 
ATOM      8  C   UNL     1      -6.423   3.098 123.660  0.00  0.00    +0.000 A 
ATOM      9  C   UNL     1      -5.517   4.115 124.025  0.00  0.00    +0.000 A 
ATOM     10  C   UNL     1      -5.232   4.363 125.357  0.00  0.00    +0.000 A 
ATOM     11  C   UNL     1      -5.845   3.586 126.333  0.00  0.00    +0.000 A 
ATOM     12  C   UNL     1      -6.749   2.567 125.982  0.00  0.00    +0.000 A 
ATOM     13  C   UNL     1      -7.062   2.308 124.644  0.00  0.00    +0.000 A 
ENDROOT
BRANCH   2  14
ATOM     14  C   UNL     1      -7.445  -0.742 125.520  0.00  0.00    +0.000 A 
ATOM     15  C   UNL     1      -8.192  -0.828 126.711  0.00  0.00    +0.000 A 
ATOM     16  C   UNL     1      -7.657  -1.433 127.869  0.00  0.00    +0.000 A 
ATOM     17  C   UNL     1      -6.352  -1.920 127.859  0.00  0.00    +0.000 A 
ATOM     18  I   UNL     1      -5.574  -2.874 129.541  0.00  0.00    +0.000 I 
ATOM     19  C   UNL     1      -5.566  -1.762 126.719  0.00  0.00    +0.000 A 
ATOM     20  C   UNL     1      -6.106  -1.161 125.565  0.00  0.00    +0.000 A 
ENDBRANCH   2  14
TORSDOF 1
ENDMDL
MODEL 9
REMARK VINA RESULT:      -6.4      3.862      6.482
REMARK  Name = CHEMBL4213812
REMARK  1 active torsions:
REMARK  status: ('A' for Active; 'I' for Inactive)
REMARK    1  A    between atoms: C_2  and  C_3
REMARK                            x       y       z     vdW  Elec       q    Type
REMARK                         _______ _______ _______ _____ _____    ______ ____
ROOT
ATOM      1  O   UNL     1      -7.694   1.510 127.599  0.00  0.00    +0.000 OA
ATOM      2  C   UNL     1      -7.353   0.504 126.963  0.00  0.00    +0.000 C 
ATOM      3  N   UNL     1      -7.213   0.523 125.550  0.00  0.00    +0.000 N 
ATOM      4  C   UNL     1      -6.872   1.800 124.866  0.00  0.00    +0.000 C 
ATOM      5  C   UNL     1      -7.990   2.738 124.381  0.00  0.00    +0.000 C 
ATOM      6  C   UNL     1      -8.883   2.122 123.315  0.00  0.00    +0.000 C 
ATOM      7  C   UNL     1      -9.685   0.997 123.940  0.00  0.00    +0.000 C 
ATOM      8  C   UNL     1      -8.886  -0.276 123.883  0.00  0.00    +0.000 A 
ATOM      9  C   UNL     1      -9.287  -1.224 122.920  0.00  0.00    +0.000 A 
ATOM     10  C   UNL     1      -8.587  -2.409 122.761  0.00  0.00    +0.000 A 
ATOM     11  C   UNL     1      -7.485  -2.655 123.572  0.00  0.00    +0.000 A 
ATOM     12  C   UNL     1      -7.077  -1.718 124.538  0.00  0.00    +0.000 A 
ATOM     13  C   UNL     1      -7.760  -0.510 124.708  0.00  0.00    +0.000 A 
ENDROOT
BRANCH   2  14
ATOM     14  C   UNL     1      -6.930  -0.689 127.789  0.00  0.00    +0.000 A 
ATOM     15  C   UNL     1      -7.822  -1.317 128.681  0.00  0.00    +0.000 A 
ATOM     16  C   UNL     1      -7.396  -2.368 129.523  0.00  0.00    +0.000 A 
ATOM     17  C   UNL     1      -6.063  -2.773 129.509  0.00  0.00    +0.000 A 
ATOM     18  I   UNL     1      -5.438  -4.366 130.698  0.00  0.00    +0.000 I 
ATOM     19  C   UNL     1      -5.148  -2.104 128.699  0.00  0.00    +0.000 A 
ATOM     20  C   UNL     1      -5.578  -1.058 127.860  0.00  0.00    +0.000 A 
ENDBRANCH   2  14
TORSDOF 1
ENDMDL
