MODEL 1
REMARK VINA RESULT:      -8.5      0.000      0.000
REMARK  Name = CHEMBL3814633
REMARK  24 active torsions:
REMARK  status: ('A' for Active; 'I' for Inactive)
REMARK    1  A    between atoms: C_1  and  C_2
REMARK    2  A    between atoms: C_2  and  C_3
REMARK    3  A    between atoms: C_3  and  C_4
REMARK    4  A    between atoms: C_3  and  C_5
REMARK    5  A    between atoms: C_9  and  C_10
REMARK    6  A    between atoms: C_10  and  C_11
REMARK    7  A    between atoms: C_14  and  O_15
REMARK    8  A    between atoms: C_21  and  N_22
REMARK    9  A    between atoms: C_27  and  C_28
REMARK   10  A    between atoms: C_34  and  C_35
REMARK   11  A    between atoms: N_37  and  C_38
REMARK   12  A    between atoms: C_38  and  C_39
REMARK   13  A    between atoms: C_38  and  C_43
REMARK   14  A    between atoms: C_39  and  C_40
REMARK   15  A    between atoms: C_40  and  C_41
REMARK   16  A    between atoms: C_40  and  C_42
REMARK   17  A    between atoms: N_45  and  C_46
REMARK   18  A    between atoms: N_45  and  C_47
REMARK   19  A    between atoms: C_47  and  C_48
REMARK   20  A    between atoms: C_54  and  C_55
REMARK   21  A    between atoms: C_55  and  C_56
REMARK   22  A    between atoms: C_62  and  C_63
REMARK   23  A    between atoms: C_63  and  C_64
REMARK   24  A    between atoms: C_64  and  C_65
REMARK                            x       y       z     vdW  Elec       q    Type
REMARK                         _______ _______ _______ _____ _____    ______ ____
ROOT
ATOM      1  C   UNL     1      -3.911   3.876 129.713  0.00  0.00    +0.000 C 
ATOM      2  N   UNL     1      -4.365   1.733 129.690  0.00  0.00    +0.000 N 
ATOM      3  C   UNL     1      -4.670  -0.327 129.896  0.00  0.00    +0.000 C 
ATOM      4  O   UNL     1      -4.049  -1.599 130.483  0.00  0.00    +0.000 OA
ATOM      5  C   UNL     1      -6.269  -1.535 130.581  0.00  0.00    +0.000 C 
ATOM      6  N   UNL     1      -7.021  -1.620 132.069  0.00  0.00    +0.000 N 
ATOM      7  C   UNL     1      -6.511  -0.906 133.106  0.00  0.00    +0.000 C 
ATOM      8  O   UNL     1      -7.060  -0.729 134.184  0.00  0.00    +0.000 OA
ATOM      9  C   UNL     1      -5.225  -0.214 133.032  0.00  0.00    +0.000 C 
ATOM     10  C   UNL     1      -5.321   1.204 132.916  0.00  0.00    +0.000 C 
ATOM     11  S   UNL     1      -5.647   1.625 134.633  0.00  0.00    +0.000 S 
ATOM     12  S   UNL     1      -6.157   3.474 134.732  0.00  0.00    +0.000 S 
ATOM     13  C   UNL     1      -6.202   4.468 136.125  0.00  0.00    +0.000 C 
ATOM     14  C   UNL     1      -6.380   5.960 136.029  0.00  0.00    +0.000 C 
ATOM     15  N   UNL     1      -5.148   6.596 135.521  0.00  0.00    +0.000 N 
ATOM     16  C   UNL     1      -4.604   6.393 134.300  0.00  0.00    +0.000 C 
ATOM     17  O   UNL     1      -3.552   6.956 134.038  0.00  0.00    +0.000 OA
ATOM     18  C   UNL     1      -5.359   5.522 133.308  0.00  0.00    +0.000 C 
ATOM     19  N   UNL     1      -6.137   6.158 132.373  0.00  0.00    +0.000 N 
ATOM     20  C   UNL     1      -5.526   6.515 131.386  0.00  0.00    +0.000 C 
ATOM     21  O   UNL     1      -6.324   7.313 130.514  0.00  0.00    +0.000 OA
ATOM     22  C   UNL     1      -3.229   6.580 131.699  0.00  0.00    +0.000 C 
ATOM     23  N   UNL     1      -2.139   5.704 130.610  0.00  0.00    +0.000 N 
ATOM     24  C   UNL     1      -2.495   5.111 129.390  0.00  0.00    +0.000 C 
ATOM     25  O   UNL     1      -2.004   5.604 128.354  0.00  0.00    +0.000 OA
ATOM     26  H   UNL     1      -3.864   0.433 129.632  0.00  0.00    +0.000 HD
ATOM     27  H   UNL     1      -7.937  -2.114 132.357  0.00  0.00    +0.000 HD
ATOM     28  H   UNL     1      -4.630   7.214 136.151  0.00  0.00    +0.000 HD
ATOM     29  H   UNL     1      -7.017   6.170 131.915  0.00  0.00    +0.000 HD
ATOM     30  H   UNL     1      -1.957   4.813 130.953  0.00  0.00    +0.000 HD
ENDROOT
BRANCH  14  31
ATOM     31  C   UNL     1      -6.724   6.436 137.454  0.00  0.00    +0.000 C 
ATOM     32  O   UNL     1      -7.923   6.672 137.605  0.00  0.00    +0.000 OA
ATOM     33  N   UNL     1      -5.711   6.445 138.445  0.00  0.00    +0.000 N 
ATOM     34  C   UNL     1      -4.364   6.987 138.348  0.00  0.00    +0.000 C 
ATOM     35  C   UNL     1      -3.545   6.004 139.145  0.00  0.00    +0.000 C 
ATOM     36  C   UNL     1      -4.400   5.771 140.365  0.00  0.00    +0.000 C 
ATOM     37  C   UNL     1      -5.824   5.945 139.868  0.00  0.00    +0.000 C 
BRANCH  37  38
ATOM     38  C   UNL     1      -6.210   7.060 140.891  0.00  0.00    +0.000 C 
ATOM     39  O   UNL     1      -5.508   7.164 141.912  0.00  0.00    +0.000 OA
ATOM     40  N   UNL     1      -7.026   8.133 140.376  0.00  0.00    +0.000 N 
ATOM     41  H   UNL     1      -7.648   8.027 139.577  0.00  0.00    +0.000 HD
BRANCH  40  42
ATOM     42  C   UNL     1      -7.026   9.500 140.993  0.00  0.00    +0.000 C 
BRANCH  42  43
ATOM     43  C   UNL     1      -8.369  10.237 140.689  0.00  0.00    +0.000 C 
ATOM     44  O   UNL     1      -8.999   9.952 139.668  0.00  0.00    +0.000 OA
ATOM     45  N   UNL     1      -8.812  11.192 141.594  0.00  0.00    +0.000 N 
ATOM     46  C   UNL     1      -8.059  11.485 142.775  0.00  0.00    +0.000 C 
BRANCH  45  47
ATOM     47  C   UNL     1     -10.078  11.934 141.377  0.00  0.00    +0.000 C 
BRANCH  47  48
ATOM     48  C   UNL     1     -10.056  13.038 140.274  0.00  0.00    +0.000 C 
ATOM     49  N   UNL     1      -8.960  13.835 140.084  0.00  0.00    +0.000 N 
ATOM     50  O   UNL     1     -11.022  13.229 139.541  0.00  0.00    +0.000 OA
ATOM     51  H   UNL     1      -8.092  13.856 140.547  0.00  0.00    +0.000 HD
ATOM     52  H   UNL     1      -8.837  14.564 139.419  0.00  0.00    +0.000 HD
ENDBRANCH  47  48
ENDBRANCH  45  47
ENDBRANCH  42  43
BRANCH  42  53
ATOM     53  C   UNL     1      -5.848  10.386 140.524  0.00  0.00    +0.000 C 
BRANCH  53  54
ATOM     54  C   UNL     1      -6.080  11.038 139.183  0.00  0.00    +0.000 C 
ATOM     55  C   UNL     1      -5.637  12.442 139.207  0.00  0.00    +0.000 C 
ATOM     56  C   UNL     1      -5.132  10.612 138.138  0.00  0.00    +0.000 C 
ENDBRANCH  53  54
ENDBRANCH  42  53
ENDBRANCH  40  42
ENDBRANCH  37  38
ENDBRANCH  14  31
BRANCH   9  57
ATOM     57  N   UNL     1      -4.660  -0.265 131.837  0.00  0.00    +0.000 NA
ATOM     58  H   UNL     1      -4.737   0.706 131.596  0.00  0.00    +0.000 HD
ATOM     59  H   UNL     1      -5.437  -0.651 131.280  0.00  0.00    +0.000 HD
ENDBRANCH   9  57
BRANCH   1  60
ATOM     60  C   UNL     1      -3.993   6.227 129.661  0.00  0.00    +0.000 C 
ATOM     61  C   UNL     1      -3.746   8.384 129.611  0.00  0.00    +0.000 C 
BRANCH  60  63
ATOM     62  C   UNL     1      -5.029   5.535 128.903  0.00  0.00    +0.000 C 
ATOM     63  C   UNL     1      -4.055   7.243 128.647  0.00  0.00    +0.000 C 
ENDBRANCH  60  63
ENDBRANCH   1  60
BRANCH  18  64
ATOM     64  C   UNL     1      -4.506   4.298 132.891  0.00  0.00    +0.000 C 
BRANCH  64  65
ATOM     65  C   UNL     1      -3.294   4.360 133.752  0.00  0.00    +0.000 C 
ATOM     66  N   UNL     1      -3.219   4.380 135.102  0.00  0.00    +0.000 N 
ATOM     67  O   UNL     1      -2.268   4.422 133.142  0.00  0.00    +0.000 OA
ATOM     68  H   UNL     1      -4.017   4.131 135.634  0.00  0.00    +0.000 HD
ATOM     69  H   UNL     1      -2.417   4.726 135.629  0.00  0.00    +0.000 HD
ENDBRANCH  64  65
ENDBRANCH  18  64
BRANCH   5  70
ATOM     70  C   UNL     1      -6.843  -0.581 129.748  0.00  0.00    +0.000 C 
BRANCH  70  71
ATOM     71  C   UNL     1      -7.471  -1.530 128.767  0.00  0.00    +0.000 A 
ATOM     72  C   UNL     1      -7.961  -2.836 129.057  0.00  0.00    +0.000 A 
ATOM     73  C   UNL     1      -8.470  -3.621 128.047  0.00  0.00    +0.000 A 
ATOM     74  C   UNL     1      -8.418  -3.132 126.759  0.00  0.00    +0.000 A 
ATOM     75  C   UNL     1      -7.773  -1.939 126.474  0.00  0.00    +0.000 A 
ATOM     76  C   UNL     1      -7.257  -1.160 127.467  0.00  0.00    +0.000 A 
BRANCH  74  77
ATOM     77  O   UNL     1      -8.975  -3.761 125.693  0.00  0.00    +0.000 OA
ATOM     78  H   UNL     1      -9.343  -3.146 125.040  0.00  0.00    +0.000 HD
ENDBRANCH  74  77
ENDBRANCH  70  71
ENDBRANCH   5  70
BRANCH  22  79
ATOM     79  C   UNL     1      -2.490   7.979 131.850  0.00  0.00    +0.000 C 
BRANCH  79  80
ATOM     80  C   UNL     1      -1.123   7.842 132.594  0.00  0.00    +0.000 C 
BRANCH  80  81
ATOM     81  C   UNL     1      -0.824   9.040 133.391  0.00  0.00    +0.000 C 
ATOM     82  N   UNL     1      -1.860   9.584 134.102  0.00  0.00    +0.000 N 
ATOM     83  O   UNL     1       0.309   9.504 133.382  0.00  0.00    +0.000 OA
ATOM     84  H   UNL     1      -2.815   9.242 134.101  0.00  0.00    +0.000 HD
ATOM     85  H   UNL     1      -1.686  10.375 134.697  0.00  0.00    +0.000 HD
ENDBRANCH  80  81
ENDBRANCH  79  80
ENDBRANCH  22  79
TORSDOF 19
ENDMDL
MODEL 2
REMARK VINA RESULT:      -8.3      4.544      8.702
REMARK  Name = CHEMBL3814633
REMARK  24 active torsions:
REMARK  status: ('A' for Active; 'I' for Inactive)
REMARK    1  A    between atoms: C_1  and  C_2
REMARK    2  A    between atoms: C_2  and  C_3
REMARK    3  A    between atoms: C_3  and  C_4
REMARK    4  A    between atoms: C_3  and  C_5
REMARK    5  A    between atoms: C_9  and  C_10
REMARK    6  A    between atoms: C_10  and  C_11
REMARK    7  A    between atoms: C_14  and  O_15
REMARK    8  A    between atoms: C_21  and  N_22
REMARK    9  A    between atoms: C_27  and  C_28
REMARK   10  A    between atoms: C_34  and  C_35
REMARK   11  A    between atoms: N_37  and  C_38
REMARK   12  A    between atoms: C_38  and  C_39
REMARK   13  A    between atoms: C_38  and  C_43
REMARK   14  A    between atoms: C_39  and  C_40
REMARK   15  A    between atoms: C_40  and  C_41
REMARK   16  A    between atoms: C_40  and  C_42
REMARK   17  A    between atoms: N_45  and  C_46
REMARK   18  A    between atoms: N_45  and  C_47
REMARK   19  A    between atoms: C_47  and  C_48
REMARK   20  A    between atoms: C_54  and  C_55
REMARK   21  A    between atoms: C_55  and  C_56
REMARK   22  A    between atoms: C_62  and  C_63
REMARK   23  A    between atoms: C_63  and  C_64
REMARK   24  A    between atoms: C_64  and  C_65
REMARK                            x       y       z     vdW  Elec       q    Type
REMARK                         _______ _______ _______ _____ _____    ______ ____
ROOT
ATOM      1  C   UNL     1      -6.903  -1.413 127.804  0.00  0.00    +0.000 C 
ATOM      2  N   UNL     1      -7.848  -0.306 126.167  0.00  0.00    +0.000 N 
ATOM      3  C   UNL     1      -8.887   0.877 124.789  0.00  0.00    +0.000 C 
ATOM      4  O   UNL     1     -10.219   1.602 124.563  0.00  0.00    +0.000 OA
ATOM      5  C   UNL     1      -8.450   2.655 123.724  0.00  0.00    +0.000 C 
ATOM      6  N   UNL     1      -8.089   4.194 124.257  0.00  0.00    +0.000 N 
ATOM      7  C   UNL     1      -8.178   4.468 125.585  0.00  0.00    +0.000 C 
ATOM      8  O   UNL     1      -7.769   5.483 126.130  0.00  0.00    +0.000 OA
ATOM      9  C   UNL     1      -8.757   3.532 126.547  0.00  0.00    +0.000 C 
ATOM     10  C   UNL     1      -7.806   2.876 127.382  0.00  0.00    +0.000 C 
ATOM     11  S   UNL     1      -7.499   4.185 128.575  0.00  0.00    +0.000 S 
ATOM     12  S   UNL     1      -5.985   3.699 129.653  0.00  0.00    +0.000 S 
ATOM     13  C   UNL     1      -5.512   4.382 131.150  0.00  0.00    +0.000 C 
ATOM     14  C   UNL     1      -4.452   3.747 132.011  0.00  0.00    +0.000 C 
ATOM     15  N   UNL     1      -4.971   2.520 132.648  0.00  0.00    +0.000 N 
ATOM     16  C   UNL     1      -5.376   1.406 131.997  0.00  0.00    +0.000 C 
ATOM     17  O   UNL     1      -5.827   0.484 132.658  0.00  0.00    +0.000 OA
ATOM     18  C   UNL     1      -5.195   1.346 130.488  0.00  0.00    +0.000 C 
ATOM     19  N   UNL     1      -4.086   0.693 130.009  0.00  0.00    +0.000 N 
ATOM     20  C   UNL     1      -4.231  -0.508 129.903  0.00  0.00    +0.000 C 
ATOM     21  O   UNL     1      -3.015  -1.172 129.564  0.00  0.00    +0.000 OA
ATOM     22  C   UNL     1      -6.031  -1.330 131.113  0.00  0.00    +0.000 C 
ATOM     23  N   UNL     1      -7.289  -2.297 130.325  0.00  0.00    +0.000 N 
ATOM     24  C   UNL     1      -7.224  -2.836 129.032  0.00  0.00    +0.000 C 
ATOM     25  O   UNL     1      -7.186  -4.080 128.936  0.00  0.00    +0.000 OA
ATOM     26  H   UNL     1      -9.025  -0.020 125.477  0.00  0.00    +0.000 HD
ATOM     27  H   UNL     1      -7.706   5.046 123.715  0.00  0.00    +0.000 HD
ATOM     28  H   UNL     1      -5.077   2.513 133.666  0.00  0.00    +0.000 HD
ATOM     29  H   UNL     1      -3.334   0.728 129.364  0.00  0.00    +0.000 HD
ATOM     30  H   UNL     1      -8.014  -1.729 130.018  0.00  0.00    +0.000 HD
ENDROOT
BRANCH  14  31
ATOM     31  C   UNL     1      -4.062   4.812 133.055  0.00  0.00    +0.000 C 
ATOM     32  O   UNL     1      -4.725   4.735 134.089  0.00  0.00    +0.000 OA
ATOM     33  N   UNL     1      -2.956   5.661 132.798  0.00  0.00    +0.000 N 
ATOM     34  C   UNL     1      -2.665   6.417 131.589  0.00  0.00    +0.000 C 
ATOM     35  C   UNL     1      -1.164   6.328 131.487  0.00  0.00    +0.000 C 
ATOM     36  C   UNL     1      -0.720   6.580 132.905  0.00  0.00    +0.000 C 
ATOM     37  C   UNL     1      -1.849   6.029 133.759  0.00  0.00    +0.000 C 
BRANCH  37  38
ATOM     38  C   UNL     1      -2.116   7.358 134.537  0.00  0.00    +0.000 C 
ATOM     39  O   UNL     1      -2.842   7.293 135.544  0.00  0.00    +0.000 OA
ATOM     40  N   UNL     1      -1.170   8.423 134.308  0.00  0.00    +0.000 N 
ATOM     41  H   UNL     1      -0.622   8.509 133.453  0.00  0.00    +0.000 HD
BRANCH  40  42
ATOM     42  C   UNL     1      -0.926   9.503 135.319  0.00  0.00    +0.000 C 
BRANCH  42  43
ATOM     43  C   UNL     1      -0.262  10.745 134.644  0.00  0.00    +0.000 C 
ATOM     44  O   UNL     1       0.963  10.776 134.504  0.00  0.00    +0.000 OA
ATOM     45  N   UNL     1      -1.087  11.776 134.215  0.00  0.00    +0.000 N 
ATOM     46  C   UNL     1      -2.505  11.698 134.383  0.00  0.00    +0.000 C 
BRANCH  45  47
ATOM     47  C   UNL     1      -0.532  12.988 133.563  0.00  0.00    +0.000 C 
BRANCH  47  48
ATOM     48  C   UNL     1      -0.335  12.917 132.016  0.00  0.00    +0.000 C 
ATOM     49  N   UNL     1      -1.398  12.990 131.157  0.00  0.00    +0.000 N 
ATOM     50  O   UNL     1       0.780  12.791 131.518  0.00  0.00    +0.000 OA
ATOM     51  H   UNL     1      -2.362  13.090 131.333  0.00  0.00    +0.000 HD
ATOM     52  H   UNL     1      -1.391  12.954 130.164  0.00  0.00    +0.000 HD
ENDBRANCH  47  48
ENDBRANCH  45  47
ENDBRANCH  42  43
BRANCH  42  53
ATOM     53  C   UNL     1      -0.048   9.046 136.507  0.00  0.00    +0.000 C 
BRANCH  53  54
ATOM     54  C   UNL     1      -0.639   9.376 137.855  0.00  0.00    +0.000 C 
ATOM     55  C   UNL     1      -0.037  10.607 138.397  0.00  0.00    +0.000 C 
ATOM     56  C   UNL     1      -2.012   9.907 137.795  0.00  0.00    +0.000 C 
ENDBRANCH  53  54
ENDBRANCH  42  53
ENDBRANCH  40  42
ENDBRANCH  37  38
ENDBRANCH  14  31
BRANCH   9  57
ATOM     57  N   UNL     1      -9.089   2.364 126.022  0.00  0.00    +0.000 NA
ATOM     58  H   UNL     1      -9.319   2.678 125.098  0.00  0.00    +0.000 HD
ATOM     59  H   UNL     1     -10.035   2.245 126.414  0.00  0.00    +0.000 HD
ENDBRANCH   9  57
BRANCH   1  60
ATOM     60  C   UNL     1      -5.402  -2.426 129.306  0.00  0.00    +0.000 C 
ATOM     61  C   UNL     1      -4.263  -3.554 130.771  0.00  0.00    +0.000 C 
BRANCH  60  63
ATOM     62  C   UNL     1      -5.012  -2.140 127.931  0.00  0.00    +0.000 C 
ATOM     63  C   UNL     1      -4.450  -3.500 129.258  0.00  0.00    +0.000 C 
ENDBRANCH  60  63
ENDBRANCH   1  60
BRANCH  18  64
ATOM     64  C   UNL     1      -6.559   1.159 129.778  0.00  0.00    +0.000 C 
BRANCH  64  65
ATOM     65  C   UNL     1      -7.574   1.247 130.862  0.00  0.00    +0.000 C 
ATOM     66  N   UNL     1      -7.789   2.255 131.737  0.00  0.00    +0.000 N 
ATOM     67  O   UNL     1      -8.261   0.273 130.964  0.00  0.00    +0.000 OA
ATOM     68  H   UNL     1      -7.385   3.143 131.560  0.00  0.00    +0.000 HD
ATOM     69  H   UNL     1      -8.268   2.150 132.631  0.00  0.00    +0.000 HD
ENDBRANCH  64  65
ENDBRANCH  18  64
BRANCH   5  70
ATOM     70  C   UNL     1      -7.320   1.853 123.606  0.00  0.00    +0.000 C 
BRANCH  70  71
ATOM     71  C   UNL     1      -6.462   2.831 122.855  0.00  0.00    +0.000 A 
ATOM     72  C   UNL     1      -6.214   2.826 121.453  0.00  0.00    +0.000 A 
ATOM     73  C   UNL     1      -5.363   3.758 120.900  0.00  0.00    +0.000 A 
ATOM     74  C   UNL     1      -4.717   4.629 121.751  0.00  0.00    +0.000 A 
ATOM     75  C   UNL     1      -4.831   4.499 123.126  0.00  0.00    +0.000 A 
ATOM     76  C   UNL     1      -5.664   3.573 123.682  0.00  0.00    +0.000 A 
BRANCH  74  77
ATOM     77  O   UNL     1      -3.936   5.654 121.327  0.00  0.00    +0.000 OA
ATOM     78  H   UNL     1      -3.340   5.403 120.605  0.00  0.00    +0.000 HD
ENDBRANCH  74  77
ENDBRANCH  70  71
ENDBRANCH   5  70
BRANCH  22  79
ATOM     79  C   UNL     1      -5.776  -2.146 132.453  0.00  0.00    +0.000 C 
BRANCH  79  80
ATOM     80  C   UNL     1      -7.104  -2.430 133.226  0.00  0.00    +0.000 C 
BRANCH  80  81
ATOM     81  C   UNL     1      -6.945  -2.198 134.669  0.00  0.00    +0.000 C 
ATOM     82  N   UNL     1      -5.855  -1.467 135.060  0.00  0.00    +0.000 N 
ATOM     83  O   UNL     1      -7.765  -2.665 135.449  0.00  0.00    +0.000 OA
ATOM     84  H   UNL     1      -5.144  -1.098 134.440  0.00  0.00    +0.000 HD
ATOM     85  H   UNL     1      -5.737  -1.245 136.033  0.00  0.00    +0.000 HD
ENDBRANCH  80  81
ENDBRANCH  79  80
ENDBRANCH  22  79
TORSDOF 19
ENDMDL
MODEL 3
REMARK VINA RESULT:      -8.3      3.478      7.673
REMARK  Name = CHEMBL3814633
REMARK  24 active torsions:
REMARK  status: ('A' for Active; 'I' for Inactive)
REMARK    1  A    between atoms: C_1  and  C_2
REMARK    2  A    between atoms: C_2  and  C_3
REMARK    3  A    between atoms: C_3  and  C_4
REMARK    4  A    between atoms: C_3  and  C_5
REMARK    5  A    between atoms: C_9  and  C_10
REMARK    6  A    between atoms: C_10  and  C_11
REMARK    7  A    between atoms: C_14  and  O_15
REMARK    8  A    between atoms: C_21  and  N_22
REMARK    9  A    between atoms: C_27  and  C_28
REMARK   10  A    between atoms: C_34  and  C_35
REMARK   11  A    between atoms: N_37  and  C_38
REMARK   12  A    between atoms: C_38  and  C_39
REMARK   13  A    between atoms: C_38  and  C_43
REMARK   14  A    between atoms: C_39  and  C_40
REMARK   15  A    between atoms: C_40  and  C_41
REMARK   16  A    between atoms: C_40  and  C_42
REMARK   17  A    between atoms: N_45  and  C_46
REMARK   18  A    between atoms: N_45  and  C_47
REMARK   19  A    between atoms: C_47  and  C_48
REMARK   20  A    between atoms: C_54  and  C_55
REMARK   21  A    between atoms: C_55  and  C_56
REMARK   22  A    between atoms: C_62  and  C_63
REMARK   23  A    between atoms: C_63  and  C_64
REMARK   24  A    between atoms: C_64  and  C_65
REMARK                            x       y       z     vdW  Elec       q    Type
REMARK                         _______ _______ _______ _____ _____    ______ ____
ROOT
ATOM      1  C   UNL     1      -6.601  -1.682 128.853  0.00  0.00    +0.000 C 
ATOM      2  N   UNL     1      -7.427  -0.412 127.270  0.00  0.00    +0.000 N 
ATOM      3  C   UNL     1      -8.389   0.884 125.939  0.00  0.00    +0.000 C 
ATOM      4  O   UNL     1      -9.746   1.524 125.625  0.00  0.00    +0.000 OA
ATOM      5  C   UNL     1      -7.998   2.837 125.217  0.00  0.00    +0.000 C 
ATOM      6  N   UNL     1      -7.873   4.298 126.014  0.00  0.00    +0.000 N 
ATOM      7  C   UNL     1      -8.167   4.351 127.340  0.00  0.00    +0.000 C 
ATOM      8  O   UNL     1      -7.941   5.297 128.079  0.00  0.00    +0.000 OA
ATOM      9  C   UNL     1      -8.770   3.231 128.061  0.00  0.00    +0.000 C 
ATOM     10  C   UNL     1      -7.876   2.533 128.924  0.00  0.00    +0.000 C 
ATOM     11  S   UNL     1      -7.868   3.658 130.325  0.00  0.00    +0.000 S 
ATOM     12  S   UNL     1      -6.471   3.134 131.534  0.00  0.00    +0.000 S 
ATOM     13  C   UNL     1      -6.275   3.610 133.167  0.00  0.00    +0.000 C 
ATOM     14  C   UNL     1      -5.281   2.936 134.074  0.00  0.00    +0.000 C 
ATOM     15  N   UNL     1      -5.751   1.586 134.444  0.00  0.00    +0.000 N 
ATOM     16  C   UNL     1      -5.947   0.559 133.587  0.00  0.00    +0.000 C 
ATOM     17  O   UNL     1      -6.386  -0.490 134.035  0.00  0.00    +0.000 OA
ATOM     18  C   UNL     1      -5.561   0.751 132.129  0.00  0.00    +0.000 C 
ATOM     19  N   UNL     1      -4.337   0.274 131.731  0.00  0.00    +0.000 N 
ATOM     20  C   UNL     1      -4.341  -0.903 131.432  0.00  0.00    +0.000 C 
ATOM     21  O   UNL     1      -3.029  -1.403 131.185  0.00  0.00    +0.000 OA
ATOM     22  C   UNL     1      -6.193  -2.048 132.232  0.00  0.00    +0.000 C 
ATOM     23  N   UNL     1      -7.227  -2.979 131.136  0.00  0.00    +0.000 N 
ATOM     24  C   UNL     1      -6.935  -3.301 129.802  0.00  0.00    +0.000 C 
ATOM     25  O   UNL     1      -6.756  -4.507 129.535  0.00  0.00    +0.000 OA
ATOM     26  H   UNL     1      -8.525  -0.118 126.463  0.00  0.00    +0.000 HD
ATOM     27  H   UNL     1      -7.510   5.252 125.663  0.00  0.00    +0.000 HD
ATOM     28  H   UNL     1      -5.991   1.411 135.424  0.00  0.00    +0.000 HD
ATOM     29  H   UNL     1      -3.513   0.472 131.216  0.00  0.00    +0.000 HD
ATOM     30  H   UNL     1      -7.960  -2.431 130.809  0.00  0.00    +0.000 HD
ENDROOT
BRANCH  14  31
ATOM     31  C   UNL     1      -5.146   3.852 135.307  0.00  0.00    +0.000 C 
ATOM     32  O   UNL     1      -5.542   3.322 136.345  0.00  0.00    +0.000 OA
ATOM     33  N   UNL     1      -4.502   5.108 135.169  0.00  0.00    +0.000 N 
ATOM     34  C   UNL     1      -4.730   6.128 134.157  0.00  0.00    +0.000 C 
ATOM     35  C   UNL     1      -3.348   6.676 133.911  0.00  0.00    +0.000 C 
ATOM     36  C   UNL     1      -2.793   6.816 135.305  0.00  0.00    +0.000 C 
ATOM     37  C   UNL     1      -3.467   5.706 136.094  0.00  0.00    +0.000 C 
BRANCH  37  38
ATOM     38  C   UNL     1      -4.075   6.642 137.187  0.00  0.00    +0.000 C 
ATOM     39  O   UNL     1      -3.720   7.834 137.179  0.00  0.00    +0.000 OA
ATOM     40  N   UNL     1      -5.295   6.182 137.804  0.00  0.00    +0.000 N 
ATOM     41  H   UNL     1      -5.552   5.198 137.865  0.00  0.00    +0.000 HD
BRANCH  40  42
ATOM     42  C   UNL     1      -6.285   7.127 138.416  0.00  0.00    +0.000 C 
BRANCH  42  43
ATOM     43  C   UNL     1      -6.678   6.654 139.852  0.00  0.00    +0.000 C 
ATOM     44  O   UNL     1      -7.357   5.634 139.989  0.00  0.00    +0.000 OA
ATOM     45  N   UNL     1      -6.236   7.405 140.933  0.00  0.00    +0.000 N 
ATOM     46  C   UNL     1      -5.437   8.575 140.733  0.00  0.00    +0.000 C 
BRANCH  45  47
ATOM     47  C   UNL     1      -6.565   7.020 142.327  0.00  0.00    +0.000 C 
BRANCH  47  48
ATOM     48  C   UNL     1      -5.722   5.862 142.946  0.00  0.00    +0.000 C 
ATOM     49  N   UNL     1      -6.049   4.550 142.736  0.00  0.00    +0.000 N 
ATOM     50  O   UNL     1      -4.737   6.089 143.642  0.00  0.00    +0.000 OA
ATOM     51  H   UNL     1      -6.783   4.145 142.220  0.00  0.00    +0.000 HD
ATOM     52  H   UNL     1      -5.589   3.738 143.079  0.00  0.00    +0.000 HD
ENDBRANCH  47  48
ENDBRANCH  45  47
ENDBRANCH  42  43
BRANCH  42  53
ATOM     53  C   UNL     1      -7.571   7.301 137.574  0.00  0.00    +0.000 C 
BRANCH  53  54
ATOM     54  C   UNL     1      -8.455   8.427 138.050  0.00  0.00    +0.000 C 
ATOM     55  C   UNL     1      -7.752   9.717 137.944  0.00  0.00    +0.000 C 
ATOM     56  C   UNL     1      -9.534   8.780 137.111  0.00  0.00    +0.000 C 
ENDBRANCH  53  54
ENDBRANCH  42  53
ENDBRANCH  40  42
ENDBRANCH  37  38
ENDBRANCH  14  31
BRANCH   9  57
ATOM     57  N   UNL     1      -8.906   2.137 127.330  0.00  0.00    +0.000 NA
ATOM     58  H   UNL     1      -9.293   1.537 128.034  0.00  0.00    +0.000 HD
ATOM     59  H   UNL     1      -7.933   1.798 127.319  0.00  0.00    +0.000 HD
ENDBRANCH   9  57
BRANCH   1  60
ATOM     60  C   UNL     1      -5.218  -2.792 130.399  0.00  0.00    +0.000 C 
ATOM     61  C   UNL     1      -4.193  -4.014 131.873  0.00  0.00    +0.000 C 
BRANCH  60  63
ATOM     62  C   UNL     1      -4.565  -2.282 129.199  0.00  0.00    +0.000 C 
ATOM     63  C   UNL     1      -4.261  -3.862 130.357  0.00  0.00    +0.000 C 
ENDBRANCH  60  63
ENDBRANCH   1  60
BRANCH  18  64
ATOM     64  C   UNL     1      -6.792   0.568 131.205  0.00  0.00    +0.000 C 
BRANCH  64  65
ATOM     65  C   UNL     1      -7.958   0.496 132.125  0.00  0.00    +0.000 C 
ATOM     66  N   UNL     1      -8.421   1.440 132.976  0.00  0.00    +0.000 N 
ATOM     67  O   UNL     1      -8.529  -0.554 132.106  0.00  0.00    +0.000 OA
ATOM     68  H   UNL     1      -8.106   2.376 132.878  0.00  0.00    +0.000 HD
ATOM     69  H   UNL     1      -9.010   1.247 133.786  0.00  0.00    +0.000 HD
ENDBRANCH  64  65
ENDBRANCH  18  64
BRANCH   5  70
ATOM     70  C   UNL     1      -6.786   2.158 125.154  0.00  0.00    +0.000 C 
BRANCH  70  71
ATOM     71  C   UNL     1      -6.235   2.854 123.942  0.00  0.00    +0.000 A 
ATOM     72  C   UNL     1      -5.335   3.958 123.943  0.00  0.00    +0.000 A 
ATOM     73  C   UNL     1      -4.946   4.532 122.754  0.00  0.00    +0.000 A 
ATOM     74  C   UNL     1      -5.510   4.054 121.590  0.00  0.00    +0.000 A 
ATOM     75  C   UNL     1      -6.519   3.104 121.624  0.00  0.00    +0.000 A 
ATOM     76  C   UNL     1      -6.917   2.537 122.799  0.00  0.00    +0.000 A 
BRANCH  74  77
ATOM     77  O   UNL     1      -5.139   4.464 120.351  0.00  0.00    +0.000 OA
ATOM     78  H   UNL     1      -4.429   5.124 120.367  0.00  0.00    +0.000 HD
ENDBRANCH  74  77
ENDBRANCH  70  71
ENDBRANCH   5  70
BRANCH  22  79
ATOM     79  C   UNL     1      -6.037  -3.041 133.463  0.00  0.00    +0.000 C 
BRANCH  79  80
ATOM     80  C   UNL     1      -7.422  -3.529 134.000  0.00  0.00    +0.000 C 
BRANCH  80  81
ATOM     81  C   UNL     1      -7.436  -3.587 135.469  0.00  0.00    +0.000 C 
ATOM     82  N   UNL     1      -6.795  -2.576 136.134  0.00  0.00    +0.000 N 
ATOM     83  O   UNL     1      -7.997  -4.520 136.030  0.00  0.00    +0.000 OA
ATOM     84  H   UNL     1      -6.295  -1.811 135.695  0.00  0.00    +0.000 HD
ATOM     85  H   UNL     1      -6.825  -2.553 137.138  0.00  0.00    +0.000 HD
ENDBRANCH  80  81
ENDBRANCH  79  80
ENDBRANCH  22  79
TORSDOF 19
ENDMDL
MODEL 4
REMARK VINA RESULT:      -8.1      4.369      7.715
REMARK  Name = CHEMBL3814633
REMARK  24 active torsions:
REMARK  status: ('A' for Active; 'I' for Inactive)
REMARK    1  A    between atoms: C_1  and  C_2
REMARK    2  A    between atoms: C_2  and  C_3
REMARK    3  A    between atoms: C_3  and  C_4
REMARK    4  A    between atoms: C_3  and  C_5
REMARK    5  A    between atoms: C_9  and  C_10
REMARK    6  A    between atoms: C_10  and  C_11
REMARK    7  A    between atoms: C_14  and  O_15
REMARK    8  A    between atoms: C_21  and  N_22
REMARK    9  A    between atoms: C_27  and  C_28
REMARK   10  A    between atoms: C_34  and  C_35
REMARK   11  A    between atoms: N_37  and  C_38
REMARK   12  A    between atoms: C_38  and  C_39
REMARK   13  A    between atoms: C_38  and  C_43
REMARK   14  A    between atoms: C_39  and  C_40
REMARK   15  A    between atoms: C_40  and  C_41
REMARK   16  A    between atoms: C_40  and  C_42
REMARK   17  A    between atoms: N_45  and  C_46
REMARK   18  A    between atoms: N_45  and  C_47
REMARK   19  A    between atoms: C_47  and  C_48
REMARK   20  A    between atoms: C_54  and  C_55
REMARK   21  A    between atoms: C_55  and  C_56
REMARK   22  A    between atoms: C_62  and  C_63
REMARK   23  A    between atoms: C_63  and  C_64
REMARK   24  A    between atoms: C_64  and  C_65
REMARK                            x       y       z     vdW  Elec       q    Type
REMARK                         _______ _______ _______ _____ _____    ______ ____
ROOT
ATOM      1  C   UNL     1      -6.604  -0.573 127.043  0.00  0.00    +0.000 C 
ATOM      2  N   UNL     1      -5.796  -2.194 128.276  0.00  0.00    +0.000 N 
ATOM      3  C   UNL     1      -4.797  -3.609 129.449  0.00  0.00    +0.000 C 
ATOM      4  O   UNL     1      -3.417  -4.224 129.707  0.00  0.00    +0.000 OA
ATOM      5  C   UNL     1      -4.676  -4.004 131.526  0.00  0.00    +0.000 C 
ATOM      6  N   UNL     1      -4.123  -3.068 132.792  0.00  0.00    +0.000 N 
ATOM      7  C   UNL     1      -3.528  -1.877 132.518  0.00  0.00    +0.000 C 
ATOM      8  O   UNL     1      -3.250  -1.017 133.340  0.00  0.00    +0.000 OA
ATOM      9  C   UNL     1      -3.180  -1.462 131.160  0.00  0.00    +0.000 C 
ATOM     10  C   UNL     1      -4.028  -0.456 130.613  0.00  0.00    +0.000 C 
ATOM     11  S   UNL     1      -3.337   0.994 131.420  0.00  0.00    +0.000 S 
ATOM     12  S   UNL     1      -4.508   2.487 131.122  0.00  0.00    +0.000 S 
ATOM     13  C   UNL     1      -4.151   4.148 131.334  0.00  0.00    +0.000 C 
ATOM     14  C   UNL     1      -5.072   5.227 130.831  0.00  0.00    +0.000 C 
ATOM     15  N   UNL     1      -5.003   5.321 129.359  0.00  0.00    +0.000 N 
ATOM     16  C   UNL     1      -5.362   4.348 128.491  0.00  0.00    +0.000 C 
ATOM     17  O   UNL     1      -5.203   4.555 127.297  0.00  0.00    +0.000 OA
ATOM     18  C   UNL     1      -5.990   3.080 129.046  0.00  0.00    +0.000 C 
ATOM     19  N   UNL     1      -7.360   2.993 129.029  0.00  0.00    +0.000 N 
ATOM     20  C   UNL     1      -7.815   2.594 127.977  0.00  0.00    +0.000 C 
ATOM     21  O   UNL     1      -9.238   2.674 127.937  0.00  0.00    +0.000 OA
ATOM     22  C   UNL     1      -6.314   2.736 126.214  0.00  0.00    +0.000 C 
ATOM     23  N   UNL     1      -5.930   1.312 125.232  0.00  0.00    +0.000 N 
ATOM     24  C   UNL     1      -6.614   0.087 125.254  0.00  0.00    +0.000 C 
ATOM     25  O   UNL     1      -7.238  -0.234 124.223  0.00  0.00    +0.000 OA
ATOM     26  H   UNL     1      -4.882  -3.242 128.374  0.00  0.00    +0.000 HD
ATOM     27  H   UNL     1      -4.220  -3.212 133.857  0.00  0.00    +0.000 HD
ATOM     28  H   UNL     1      -4.614   6.174 128.948  0.00  0.00    +0.000 HD
ATOM     29  H   UNL     1      -8.168   2.748 129.549  0.00  0.00    +0.000 HD
ATOM     30  H   UNL     1      -5.155   0.849 125.590  0.00  0.00    +0.000 HD
ENDROOT
BRANCH  14  31
ATOM     31  C   UNL     1      -4.606   6.530 131.510  0.00  0.00    +0.000 C 
ATOM     32  O   UNL     1      -5.542   7.246 131.867  0.00  0.00    +0.000 OA
ATOM     33  N   UNL     1      -3.224   6.724 131.762  0.00  0.00    +0.000 N 
ATOM     34  C   UNL     1      -2.110   6.540 130.845  0.00  0.00    +0.000 C 
ATOM     35  C   UNL     1      -1.028   5.984 131.735  0.00  0.00    +0.000 C 
ATOM     36  C   UNL     1      -1.127   6.855 132.961  0.00  0.00    +0.000 C 
ATOM     37  C   UNL     1      -2.595   7.237 133.037  0.00  0.00    +0.000 C 
BRANCH  37  38
ATOM     38  C   UNL     1      -2.353   8.780 133.035  0.00  0.00    +0.000 C 
ATOM     39  O   UNL     1      -2.821   9.429 132.083  0.00  0.00    +0.000 OA
ATOM     40  N   UNL     1      -2.023   9.368 134.311  0.00  0.00    +0.000 N 
ATOM     41  H   UNL     1      -1.581   8.848 135.067  0.00  0.00    +0.000 HD
BRANCH  40  42
ATOM     42  C   UNL     1      -2.301  10.809 134.620  0.00  0.00    +0.000 C 
BRANCH  42  43
ATOM     43  C   UNL     1      -0.972  11.569 134.926  0.00  0.00    +0.000 C 
ATOM     44  O   UNL     1      -0.137  11.053 135.673  0.00  0.00    +0.000 OA
ATOM     45  N   UNL     1      -0.775  12.809 134.334  0.00  0.00    +0.000 N 
ATOM     46  C   UNL     1      -1.761  13.369 133.463  0.00  0.00    +0.000 C 
BRANCH  45  47
ATOM     47  C   UNL     1       0.462  13.592 134.574  0.00  0.00    +0.000 C 
BRANCH  47  48
ATOM     48  C   UNL     1       1.687  13.251 133.669  0.00  0.00    +0.000 C 
ATOM     49  N   UNL     1       1.867  11.996 133.153  0.00  0.00    +0.000 N 
ATOM     50  O   UNL     1       2.532  14.097 133.390  0.00  0.00    +0.000 OA
ATOM     51  H   UNL     1       1.324  11.180 133.244  0.00  0.00    +0.000 HD
ATOM     52  H   UNL     1       2.603  11.669 132.571  0.00  0.00    +0.000 HD
ENDBRANCH  47  48
ENDBRANCH  45  47
ENDBRANCH  42  43
BRANCH  42  53
ATOM     53  C   UNL     1      -3.278  11.007 135.802  0.00  0.00    +0.000 C 
BRANCH  53  54
ATOM     54  C   UNL     1      -3.555   9.741 136.575  0.00  0.00    +0.000 C 
ATOM     55  C   UNL     1      -2.827   9.747 137.856  0.00  0.00    +0.000 C 
ATOM     56  C   UNL     1      -4.898   9.688 137.179  0.00  0.00    +0.000 C 
ENDBRANCH  53  54
ENDBRANCH  42  53
ENDBRANCH  40  42
ENDBRANCH  37  38
ENDBRANCH  14  31
BRANCH   9  57
ATOM     57  N   UNL     1      -3.587  -2.303 130.224  0.00  0.00    +0.000 NA
ATOM     58  H   UNL     1      -2.965  -3.064 130.429  0.00  0.00    +0.000 HD
ATOM     59  H   UNL     1      -3.117  -1.904 129.398  0.00  0.00    +0.000 HD
ENDBRANCH   9  57
BRANCH   1  60
ATOM     60  C   UNL     1      -7.878   1.182 126.130  0.00  0.00    +0.000 C 
ATOM     61  C   UNL     1      -8.882   2.753 125.017  0.00  0.00    +0.000 C 
BRANCH  60  63
ATOM     62  C   UNL     1      -8.568   0.257 127.021  0.00  0.00    +0.000 C 
ATOM     63  C   UNL     1      -9.129   1.307 125.436  0.00  0.00    +0.000 C 
ENDBRANCH  60  63
ENDBRANCH   1  60
BRANCH  18  64
ATOM     64  C   UNL     1      -5.140   1.838 128.678  0.00  0.00    +0.000 C 
BRANCH  64  65
ATOM     65  C   UNL     1      -3.931   2.384 128.005  0.00  0.00    +0.000 C 
ATOM     66  N   UNL     1      -3.019   3.258 128.487  0.00  0.00    +0.000 N 
ATOM     67  O   UNL     1      -3.784   1.999 126.882  0.00  0.00    +0.000 OA
ATOM     68  H   UNL     1      -2.993   3.441 129.462  0.00  0.00    +0.000 HD
ATOM     69  H   UNL     1      -2.402   3.826 127.907  0.00  0.00    +0.000 HD
ENDBRANCH  64  65
ENDBRANCH  18  64
BRANCH   5  70
ATOM     70  C   UNL     1      -6.024  -3.794 131.257  0.00  0.00    +0.000 C 
BRANCH  70  71
ATOM     71  C   UNL     1      -6.539  -4.006 132.652  0.00  0.00    +0.000 A 
ATOM     72  C   UNL     1      -6.243  -5.112 133.498  0.00  0.00    +0.000 A 
ATOM     73  C   UNL     1      -6.825  -5.204 134.742  0.00  0.00    +0.000 A 
ATOM     74  C   UNL     1      -7.746  -4.242 135.098  0.00  0.00    +0.000 A 
ATOM     75  C   UNL     1      -8.156  -3.277 134.192  0.00  0.00    +0.000 A 
ATOM     76  C   UNL     1      -7.591  -3.184 132.954  0.00  0.00    +0.000 A 
BRANCH  74  77
ATOM     77  O   UNL     1      -8.313  -4.162 136.329  0.00  0.00    +0.000 OA
ATOM     78  H   UNL     1      -7.823  -3.586 136.935  0.00  0.00    +0.000 HD
ENDBRANCH  74  77
ENDBRANCH  70  71
ENDBRANCH   5  70
BRANCH  22  79
ATOM     79  C   UNL     1      -6.499   3.861 125.106  0.00  0.00    +0.000 C 
BRANCH  79  80
ATOM     80  C   UNL     1      -5.227   4.016 124.211  0.00  0.00    +0.000 C 
BRANCH  80  81
ATOM     81  C   UNL     1      -5.586   4.272 122.809  0.00  0.00    +0.000 C 
ATOM     82  N   UNL     1      -6.762   3.732 122.364  0.00  0.00    +0.000 N 
ATOM     83  O   UNL     1      -4.833   4.934 122.105  0.00  0.00    +0.000 OA
ATOM     84  H   UNL     1      -7.387   3.153 122.914  0.00  0.00    +0.000 HD
ATOM     85  H   UNL     1      -7.067   3.925 121.426  0.00  0.00    +0.000 HD
ENDBRANCH  80  81
ENDBRANCH  79  80
ENDBRANCH  22  79
TORSDOF 19
ENDMDL
MODEL 5
REMARK VINA RESULT:      -8.0      3.783      8.251
REMARK  Name = CHEMBL3814633
REMARK  24 active torsions:
REMARK  status: ('A' for Active; 'I' for Inactive)
REMARK    1  A    between atoms: C_1  and  C_2
REMARK    2  A    between atoms: C_2  and  C_3
REMARK    3  A    between atoms: C_3  and  C_4
REMARK    4  A    between atoms: C_3  and  C_5
REMARK    5  A    between atoms: C_9  and  C_10
REMARK    6  A    between atoms: C_10  and  C_11
REMARK    7  A    between atoms: C_14  and  O_15
REMARK    8  A    between atoms: C_21  and  N_22
REMARK    9  A    between atoms: C_27  and  C_28
REMARK   10  A    between atoms: C_34  and  C_35
REMARK   11  A    between atoms: N_37  and  C_38
REMARK   12  A    between atoms: C_38  and  C_39
REMARK   13  A    between atoms: C_38  and  C_43
REMARK   14  A    between atoms: C_39  and  C_40
REMARK   15  A    between atoms: C_40  and  C_41
REMARK   16  A    between atoms: C_40  and  C_42
REMARK   17  A    between atoms: N_45  and  C_46
REMARK   18  A    between atoms: N_45  and  C_47
REMARK   19  A    between atoms: C_47  and  C_48
REMARK   20  A    between atoms: C_54  and  C_55
REMARK   21  A    between atoms: C_55  and  C_56
REMARK   22  A    between atoms: C_62  and  C_63
REMARK   23  A    between atoms: C_63  and  C_64
REMARK   24  A    between atoms: C_64  and  C_65
REMARK                            x       y       z     vdW  Elec       q    Type
REMARK                         _______ _______ _______ _____ _____    ______ ____
ROOT
ATOM      1  C   UNL     1      -6.936  -1.349 127.926  0.00  0.00    +0.000 C 
ATOM      2  N   UNL     1      -7.848  -0.203 126.296  0.00  0.00    +0.000 N 
ATOM      3  C   UNL     1      -8.852   1.019 124.927  0.00  0.00    +0.000 C 
ATOM      4  O   UNL     1     -10.163   1.780 124.705  0.00  0.00    +0.000 OA
ATOM      5  C   UNL     1      -8.365   2.793 123.877  0.00  0.00    +0.000 C 
ATOM      6  N   UNL     1      -7.965   4.318 124.425  0.00  0.00    +0.000 N 
ATOM      7  C   UNL     1      -8.050   4.583 125.755  0.00  0.00    +0.000 C 
ATOM      8  O   UNL     1      -7.615   5.581 126.309  0.00  0.00    +0.000 OA
ATOM      9  C   UNL     1      -8.655   3.654 126.708  0.00  0.00    +0.000 C 
ATOM     10  C   UNL     1      -7.723   2.967 127.539  0.00  0.00    +0.000 C 
ATOM     11  S   UNL     1      -7.384   4.256 128.744  0.00  0.00    +0.000 S 
ATOM     12  S   UNL     1      -5.887   3.721 129.821  0.00  0.00    +0.000 S 
ATOM     13  C   UNL     1      -5.398   4.378 131.324  0.00  0.00    +0.000 C 
ATOM     14  C   UNL     1      -4.358   3.708 132.181  0.00  0.00    +0.000 C 
ATOM     15  N   UNL     1      -4.911   2.490 132.807  0.00  0.00    +0.000 N 
ATOM     16  C   UNL     1      -5.343   1.393 132.146  0.00  0.00    +0.000 C 
ATOM     17  O   UNL     1      -5.820   0.477 132.799  0.00  0.00    +0.000 OA
ATOM     18  C   UNL     1      -5.161   1.341 130.637  0.00  0.00    +0.000 C 
ATOM     19  N   UNL     1      -4.069   0.663 130.155  0.00  0.00    +0.000 N 
ATOM     20  C   UNL     1      -4.245  -0.533 130.038  0.00  0.00    +0.000 C 
ATOM     21  O   UNL     1      -3.046  -1.226 129.695  0.00  0.00    +0.000 OA
ATOM     22  C   UNL     1      -6.069  -1.317 131.238  0.00  0.00    +0.000 C 
ATOM     23  N   UNL     1      -7.350  -2.244 130.439  0.00  0.00    +0.000 N 
ATOM     24  C   UNL     1      -7.297  -2.773 129.142  0.00  0.00    +0.000 C 
ATOM     25  O   UNL     1      -7.292  -4.017 129.035  0.00  0.00    +0.000 OA
ATOM     26  H   UNL     1      -9.015   0.120 125.607  0.00  0.00    +0.000 HD
ATOM     27  H   UNL     1      -7.558   5.163 123.891  0.00  0.00    +0.000 HD
ATOM     28  H   UNL     1      -5.019   2.478 133.825  0.00  0.00    +0.000 HD
ATOM     29  H   UNL     1      -3.315   0.683 129.511  0.00  0.00    +0.000 HD
ATOM     30  H   UNL     1      -8.060  -1.654 130.135  0.00  0.00    +0.000 HD
ENDROOT
BRANCH  14  31
ATOM     31  C   UNL     1      -3.942   4.754 133.235  0.00  0.00    +0.000 C 
ATOM     32  O   UNL     1      -4.492   4.583 134.323  0.00  0.00    +0.000 OA
ATOM     33  N   UNL     1      -2.929   5.693 132.916  0.00  0.00    +0.000 N 
ATOM     34  C   UNL     1      -2.814   6.520 131.724  0.00  0.00    +0.000 C 
ATOM     35  C   UNL     1      -1.328   6.549 131.475  0.00  0.00    +0.000 C 
ATOM     36  C   UNL     1      -0.764   6.772 132.854  0.00  0.00    +0.000 C 
ATOM     37  C   UNL     1      -1.761   6.102 133.784  0.00  0.00    +0.000 C 
BRANCH  37  38
ATOM     38  C   UNL     1      -2.042   7.372 134.649  0.00  0.00    +0.000 C 
ATOM     39  O   UNL     1      -2.626   7.205 135.735  0.00  0.00    +0.000 OA
ATOM     40  N   UNL     1      -1.230   8.528 134.354  0.00  0.00    +0.000 N 
ATOM     41  H   UNL     1      -0.805   8.694 133.443  0.00  0.00    +0.000 HD
BRANCH  40  42
ATOM     42  C   UNL     1      -0.955   9.590 135.376  0.00  0.00    +0.000 C 
BRANCH  42  43
ATOM     43  C   UNL     1      -2.284  10.278 135.822  0.00  0.00    +0.000 C 
ATOM     44  O   UNL     1      -3.009  10.805 134.975  0.00  0.00    +0.000 OA
ATOM     45  N   UNL     1      -2.607  10.264 137.173  0.00  0.00    +0.000 N 
ATOM     46  C   UNL     1      -1.747   9.631 138.125  0.00  0.00    +0.000 C 
BRANCH  45  47
ATOM     47  C   UNL     1      -3.853  10.894 137.675  0.00  0.00    +0.000 C 
BRANCH  47  48
ATOM     48  C   UNL     1      -5.120   9.985 137.726  0.00  0.00    +0.000 C 
ATOM     49  N   UNL     1      -5.121   8.730 137.179  0.00  0.00    +0.000 N 
ATOM     50  O   UNL     1      -6.160  10.365 138.257  0.00  0.00    +0.000 OA
ATOM     51  H   UNL     1      -4.411   8.231 136.713  0.00  0.00    +0.000 HD
ATOM     52  H   UNL     1      -5.864   8.071 137.152  0.00  0.00    +0.000 HD
ENDBRANCH  47  48
ENDBRANCH  45  47
ENDBRANCH  42  43
BRANCH  42  53
ATOM     53  C   UNL     1       0.032  10.675 134.885  0.00  0.00    +0.000 C 
BRANCH  53  54
ATOM     54  C   UNL     1       0.217  10.689 133.387  0.00  0.00    +0.000 C 
ATOM     55  C   UNL     1      -0.575  11.771 132.778  0.00  0.00    +0.000 C 
ATOM     56  C   UNL     1       1.524  11.210 132.949  0.00  0.00    +0.000 C 
ENDBRANCH  53  54
ENDBRANCH  42  53
ENDBRANCH  40  42
ENDBRANCH  37  38
ENDBRANCH  14  31
BRANCH   9  57
ATOM     57  N   UNL     1      -9.017   2.500 126.172  0.00  0.00    +0.000 NA
ATOM     58  H   UNL     1      -8.108   2.081 126.098  0.00  0.00    +0.000 HD
ATOM     59  H   UNL     1      -9.164   2.786 125.193  0.00  0.00    +0.000 HD
ENDBRANCH   9  57
BRANCH   1  60
ATOM     60  C   UNL     1      -5.465  -2.414 129.422  0.00  0.00    +0.000 C 
ATOM     61  C   UNL     1      -4.364  -3.575 130.890  0.00  0.00    +0.000 C 
BRANCH  60  63
ATOM     62  C   UNL     1      -5.059  -2.155 128.046  0.00  0.00    +0.000 C 
ATOM     63  C   UNL     1      -4.574  -3.539 129.380  0.00  0.00    +0.000 C 
ENDBRANCH  60  63
ENDBRANCH   1  60
BRANCH  18  64
ATOM     64  C   UNL     1      -6.528   1.197 129.922  0.00  0.00    +0.000 C 
BRANCH  64  65
ATOM     65  C   UNL     1      -7.543   1.310 131.004  0.00  0.00    +0.000 C 
ATOM     66  N   UNL     1      -7.733   2.323 131.879  0.00  0.00    +0.000 N 
ATOM     67  O   UNL     1      -8.256   0.355 131.104  0.00  0.00    +0.000 OA
ATOM     68  H   UNL     1      -7.305   3.201 131.703  0.00  0.00    +0.000 HD
ATOM     69  H   UNL     1      -8.217   2.231 132.772  0.00  0.00    +0.000 HD
ENDBRANCH  64  65
ENDBRANCH  18  64
BRANCH   5  70
ATOM     70  C   UNL     1      -7.257   1.962 123.755  0.00  0.00    +0.000 C 
BRANCH  70  71
ATOM     71  C   UNL     1      -6.481   2.810 122.788  0.00  0.00    +0.000 A 
ATOM     72  C   UNL     1      -5.433   3.716 123.117  0.00  0.00    +0.000 A 
ATOM     73  C   UNL     1      -4.838   4.470 122.131  0.00  0.00    +0.000 A 
ATOM     74  C   UNL     1      -5.339   4.372 120.850  0.00  0.00    +0.000 A 
ATOM     75  C   UNL     1      -6.476   3.625 120.584  0.00  0.00    +0.000 A 
ATOM     76  C   UNL     1      -7.077   2.882 121.558  0.00  0.00    +0.000 A 
BRANCH  74  77
ATOM     77  O   UNL     1      -4.780   4.983 119.775  0.00  0.00    +0.000 OA
ATOM     78  H   UNL     1      -5.027   5.917 119.700  0.00  0.00    +0.000 HD
ENDBRANCH  74  77
ENDBRANCH  70  71
ENDBRANCH   5  70
BRANCH  22  79
ATOM     79  C   UNL     1      -5.839  -2.151 132.571  0.00  0.00    +0.000 C 
BRANCH  79  80
ATOM     80  C   UNL     1      -7.182  -2.449 133.313  0.00  0.00    +0.000 C 
BRANCH  80  81
ATOM     81  C   UNL     1      -6.992  -2.488 134.770  0.00  0.00    +0.000 C 
ATOM     82  N   UNL     1      -5.760  -2.121 135.243  0.00  0.00    +0.000 N 
ATOM     83  O   UNL     1      -7.915  -2.848 135.490  0.00  0.00    +0.000 OA
ATOM     84  H   UNL     1      -4.969  -1.852 134.669  0.00  0.00    +0.000 HD
ATOM     85  H   UNL     1      -5.605  -2.087 136.235  0.00  0.00    +0.000 HD
ENDBRANCH  80  81
ENDBRANCH  79  80
ENDBRANCH  22  79
TORSDOF 19
ENDMDL
MODEL 6
REMARK VINA RESULT:      -8.0      4.025      8.333
REMARK  Name = CHEMBL3814633
REMARK  24 active torsions:
REMARK  status: ('A' for Active; 'I' for Inactive)
REMARK    1  A    between atoms: C_1  and  C_2
REMARK    2  A    between atoms: C_2  and  C_3
REMARK    3  A    between atoms: C_3  and  C_4
REMARK    4  A    between atoms: C_3  and  C_5
REMARK    5  A    between atoms: C_9  and  C_10
REMARK    6  A    between atoms: C_10  and  C_11
REMARK    7  A    between atoms: C_14  and  O_15
REMARK    8  A    between atoms: C_21  and  N_22
REMARK    9  A    between atoms: C_27  and  C_28
REMARK   10  A    between atoms: C_34  and  C_35
REMARK   11  A    between atoms: N_37  and  C_38
REMARK   12  A    between atoms: C_38  and  C_39
REMARK   13  A    between atoms: C_38  and  C_43
REMARK   14  A    between atoms: C_39  and  C_40
REMARK   15  A    between atoms: C_40  and  C_41
REMARK   16  A    between atoms: C_40  and  C_42
REMARK   17  A    between atoms: N_45  and  C_46
REMARK   18  A    between atoms: N_45  and  C_47
REMARK   19  A    between atoms: C_47  and  C_48
REMARK   20  A    between atoms: C_54  and  C_55
REMARK   21  A    between atoms: C_55  and  C_56
REMARK   22  A    between atoms: C_62  and  C_63
REMARK   23  A    between atoms: C_63  and  C_64
REMARK   24  A    between atoms: C_64  and  C_65
REMARK                            x       y       z     vdW  Elec       q    Type
REMARK                         _______ _______ _______ _____ _____    ______ ____
ROOT
ATOM      1  C   UNL     1      -6.949  -1.410 127.769  0.00  0.00    +0.000 C 
ATOM      2  N   UNL     1      -7.774  -0.297 126.071  0.00  0.00    +0.000 N 
ATOM      3  C   UNL     1      -8.725   0.876 124.624  0.00  0.00    +0.000 C 
ATOM      4  O   UNL     1     -10.066   1.529 124.272  0.00  0.00    +0.000 OA
ATOM      5  C   UNL     1      -8.284   2.716 123.672  0.00  0.00    +0.000 C 
ATOM      6  N   UNL     1      -8.082   4.252 124.292  0.00  0.00    +0.000 N 
ATOM      7  C   UNL     1      -8.335   4.468 125.609  0.00  0.00    +0.000 C 
ATOM      8  O   UNL     1      -8.053   5.483 126.229  0.00  0.00    +0.000 OA
ATOM      9  C   UNL     1      -8.957   3.463 126.469  0.00  0.00    +0.000 C 
ATOM     10  C   UNL     1      -8.065   2.833 127.385  0.00  0.00    +0.000 C 
ATOM     11  S   UNL     1      -7.975   4.110 128.647  0.00  0.00    +0.000 S 
ATOM     12  S   UNL     1      -6.563   3.671 129.873  0.00  0.00    +0.000 S 
ATOM     13  C   UNL     1      -6.301   4.322 131.435  0.00  0.00    +0.000 C 
ATOM     14  C   UNL     1      -5.307   3.717 132.389  0.00  0.00    +0.000 C 
ATOM     15  N   UNL     1      -5.815   2.438 132.924  0.00  0.00    +0.000 N 
ATOM     16  C   UNL     1      -6.075   1.329 132.195  0.00  0.00    +0.000 C 
ATOM     17  O   UNL     1      -6.538   0.356 132.772  0.00  0.00    +0.000 OA
ATOM     18  C   UNL     1      -5.724   1.338 130.716  0.00  0.00    +0.000 C 
ATOM     19  N   UNL     1      -4.531   0.770 130.345  0.00  0.00    +0.000 N 
ATOM     20  C   UNL     1      -4.587  -0.433 130.184  0.00  0.00    +0.000 C 
ATOM     21  O   UNL     1      -3.302  -1.010 129.964  0.00  0.00    +0.000 OA
ATOM     22  C   UNL     1      -6.455  -1.404 131.157  0.00  0.00    +0.000 C 
ATOM     23  N   UNL     1      -7.555  -2.412 130.201  0.00  0.00    +0.000 N 
ATOM     24  C   UNL     1      -7.314  -2.896 128.907  0.00  0.00    +0.000 C 
ATOM     25  O   UNL     1      -7.188  -4.131 128.775  0.00  0.00    +0.000 OA
ATOM     26  H   UNL     1      -8.883  -0.054 125.263  0.00  0.00    +0.000 HD
ATOM     27  H   UNL     1      -7.694   5.145 123.824  0.00  0.00    +0.000 HD
ATOM     28  H   UNL     1      -6.033   2.385 133.922  0.00  0.00    +0.000 HD
ATOM     29  H   UNL     1      -3.715   0.874 129.790  0.00  0.00    +0.000 HD
ATOM     30  H   UNL     1      -8.276  -1.876 129.832  0.00  0.00    +0.000 HD
ENDROOT
BRANCH  14  31
ATOM     31  C   UNL     1      -5.102   4.762 133.504  0.00  0.00    +0.000 C 
ATOM     32  O   UNL     1      -5.378   5.907 133.145  0.00  0.00    +0.000 OA
ATOM     33  N   UNL     1      -4.753   4.325 134.807  0.00  0.00    +0.000 N 
ATOM     34  C   UNL     1      -3.711   3.384 135.190  0.00  0.00    +0.000 C 
ATOM     35  C   UNL     1      -4.333   2.642 136.344  0.00  0.00    +0.000 C 
ATOM     36  C   UNL     1      -4.968   3.748 137.147  0.00  0.00    +0.000 C 
ATOM     37  C   UNL     1      -5.348   4.796 136.115  0.00  0.00    +0.000 C 
BRANCH  37  38
ATOM     38  C   UNL     1      -4.550   5.963 136.778  0.00  0.00    +0.000 C 
ATOM     39  O   UNL     1      -4.076   5.759 137.909  0.00  0.00    +0.000 OA
ATOM     40  N   UNL     1      -4.051   6.976 135.880  0.00  0.00    +0.000 N 
ATOM     41  H   UNL     1      -4.481   7.184 134.980  0.00  0.00    +0.000 HD
BRANCH  40  42
ATOM     42  C   UNL     1      -2.854   7.816 136.211  0.00  0.00    +0.000 C 
BRANCH  42  43
ATOM     43  C   UNL     1      -2.685   8.964 135.165  0.00  0.00    +0.000 C 
ATOM     44  O   UNL     1      -2.549   8.682 133.973  0.00  0.00    +0.000 OA
ATOM     45  N   UNL     1      -2.700  10.275 135.623  0.00  0.00    +0.000 N 
ATOM     46  C   UNL     1      -2.873  10.562 137.014  0.00  0.00    +0.000 C 
BRANCH  45  47
ATOM     47  C   UNL     1      -2.547  11.420 134.693  0.00  0.00    +0.000 C 
BRANCH  47  48
ATOM     48  C   UNL     1      -1.087  11.887 134.401  0.00  0.00    +0.000 C 
ATOM     49  N   UNL     1      -0.587  13.044 134.933  0.00  0.00    +0.000 N 
ATOM     50  O   UNL     1      -0.337  11.232 133.682  0.00  0.00    +0.000 OA
ATOM     51  H   UNL     1      -1.003  13.711 135.525  0.00  0.00    +0.000 HD
ATOM     52  H   UNL     1       0.318  13.436 134.814  0.00  0.00    +0.000 HD
ENDBRANCH  47  48
ENDBRANCH  45  47
ENDBRANCH  42  43
BRANCH  42  53
ATOM     53  C   UNL     1      -1.538   7.008 136.288  0.00  0.00    +0.000 C 
BRANCH  53  54
ATOM     54  C   UNL     1      -0.302   7.871 136.337  0.00  0.00    +0.000 C 
ATOM     55  C   UNL     1       0.509   7.546 137.523  0.00  0.00    +0.000 C 
ATOM     56  C   UNL     1       0.731   7.495 135.356  0.00  0.00    +0.000 C 
ENDBRANCH  53  54
ENDBRANCH  42  53
ENDBRANCH  40  42
ENDBRANCH  37  38
ENDBRANCH  14  31
BRANCH   9  57
ATOM     57  N   UNL     1      -9.155   2.299 125.873  0.00  0.00    +0.000 NA
ATOM     58  H   UNL     1      -9.698   1.856 126.591  0.00  0.00    +0.000 HD
ATOM     59  H   UNL     1      -8.242   1.849 126.035  0.00  0.00    +0.000 HD
ENDBRANCH   9  57
BRANCH   1  60
ATOM     60  C   UNL     1      -5.563  -2.391 129.398  0.00  0.00    +0.000 C 
ATOM     61  C   UNL     1      -4.532  -3.496 130.957  0.00  0.00    +0.000 C 
BRANCH  60  63
ATOM     62  C   UNL     1      -5.004  -2.035 128.099  0.00  0.00    +0.000 C 
ATOM     63  C   UNL     1      -4.581  -3.439 129.433  0.00  0.00    +0.000 C 
ENDBRANCH  60  63
ENDBRANCH   1  60
BRANCH  18  64
ATOM     64  C   UNL     1      -6.987   1.100 129.850  0.00  0.00    +0.000 C 
BRANCH  64  65
ATOM     65  C   UNL     1      -8.119   1.085 130.815  0.00  0.00    +0.000 C 
ATOM     66  N   UNL     1      -8.523   2.063 131.657  0.00  0.00    +0.000 N 
ATOM     67  O   UNL     1      -8.719   0.051 130.844  0.00  0.00    +0.000 OA
ATOM     68  H   UNL     1      -8.187   2.986 131.522  0.00  0.00    +0.000 HD
ATOM     69  H   UNL     1      -9.087   1.908 132.492  0.00  0.00    +0.000 HD
ENDBRANCH  64  65
ENDBRANCH  18  64
BRANCH   5  70
ATOM     70  C   UNL     1      -7.100   1.986 123.657  0.00  0.00    +0.000 C 
BRANCH  70  71
ATOM     71  C   UNL     1      -6.284   2.952 122.847  0.00  0.00    +0.000 A 
ATOM     72  C   UNL     1      -6.028   2.870 121.448  0.00  0.00    +0.000 A 
ATOM     73  C   UNL     1      -5.219   3.803 120.839  0.00  0.00    +0.000 A 
ATOM     74  C   UNL     1      -4.617   4.755 121.634  0.00  0.00    +0.000 A 
ATOM     75  C   UNL     1      -4.733   4.709 123.015  0.00  0.00    +0.000 A 
ATOM     76  C   UNL     1      -5.525   3.782 123.627  0.00  0.00    +0.000 A 
BRANCH  74  77
ATOM     77  O   UNL     1      -3.881   5.786 121.147  0.00  0.00    +0.000 OA
ATOM     78  H   UNL     1      -3.181   5.498 120.542  0.00  0.00    +0.000 HD
ENDBRANCH  74  77
ENDBRANCH  70  71
ENDBRANCH   5  70
BRANCH  22  79
ATOM     79  C   UNL     1      -6.301  -2.256 132.489  0.00  0.00    +0.000 C 
BRANCH  79  80
ATOM     80  C   UNL     1      -7.635  -2.965 132.889  0.00  0.00    +0.000 C 
BRANCH  80  81
ATOM     81  C   UNL     1      -7.875  -2.878 134.337  0.00  0.00    +0.000 C 
ATOM     82  N   UNL     1      -8.829  -3.713 134.856  0.00  0.00    +0.000 N 
ATOM     83  O   UNL     1      -7.239  -2.075 135.007  0.00  0.00    +0.000 OA
ATOM     84  H   UNL     1      -9.394  -4.362 134.320  0.00  0.00    +0.000 HD
ATOM     85  H   UNL     1      -8.988  -3.719 135.848  0.00  0.00    +0.000 HD
ENDBRANCH  80  81
ENDBRANCH  79  80
ENDBRANCH  22  79
TORSDOF 19
ENDMDL
MODEL 7
REMARK VINA RESULT:      -8.0      3.690      8.131
REMARK  Name = CHEMBL3814633
REMARK  24 active torsions:
REMARK  status: ('A' for Active; 'I' for Inactive)
REMARK    1  A    between atoms: C_1  and  C_2
REMARK    2  A    between atoms: C_2  and  C_3
REMARK    3  A    between atoms: C_3  and  C_4
REMARK    4  A    between atoms: C_3  and  C_5
REMARK    5  A    between atoms: C_9  and  C_10
REMARK    6  A    between atoms: C_10  and  C_11
REMARK    7  A    between atoms: C_14  and  O_15
REMARK    8  A    between atoms: C_21  and  N_22
REMARK    9  A    between atoms: C_27  and  C_28
REMARK   10  A    between atoms: C_34  and  C_35
REMARK   11  A    between atoms: N_37  and  C_38
REMARK   12  A    between atoms: C_38  and  C_39
REMARK   13  A    between atoms: C_38  and  C_43
REMARK   14  A    between atoms: C_39  and  C_40
REMARK   15  A    between atoms: C_40  and  C_41
REMARK   16  A    between atoms: C_40  and  C_42
REMARK   17  A    between atoms: N_45  and  C_46
REMARK   18  A    between atoms: N_45  and  C_47
REMARK   19  A    between atoms: C_47  and  C_48
REMARK   20  A    between atoms: C_54  and  C_55
REMARK   21  A    between atoms: C_55  and  C_56
REMARK   22  A    between atoms: C_62  and  C_63
REMARK   23  A    between atoms: C_63  and  C_64
REMARK   24  A    between atoms: C_64  and  C_65
REMARK                            x       y       z     vdW  Elec       q    Type
REMARK                         _______ _______ _______ _____ _____    ______ ____
ROOT
ATOM      1  C   UNL     1      -6.916  -1.515 127.662  0.00  0.00    +0.000 C 
ATOM      2  N   UNL     1      -7.753  -0.318 126.030  0.00  0.00    +0.000 N 
ATOM      3  C   UNL     1      -8.709   0.932 124.652  0.00  0.00    +0.000 C 
ATOM      4  O   UNL     1     -10.041   1.631 124.358  0.00  0.00    +0.000 OA
ATOM      5  C   UNL     1      -8.245   2.796 123.759  0.00  0.00    +0.000 C 
ATOM      6  N   UNL     1      -7.989   4.302 124.431  0.00  0.00    +0.000 N 
ATOM      7  C   UNL     1      -8.205   4.474 125.762  0.00  0.00    +0.000 C 
ATOM      8  O   UNL     1      -7.882   5.457 126.412  0.00  0.00    +0.000 OA
ATOM      9  C   UNL     1      -8.831   3.452 126.599  0.00  0.00    +0.000 C 
ATOM     10  C   UNL     1      -7.933   2.765 127.467  0.00  0.00    +0.000 C 
ATOM     11  S   UNL     1      -7.781   3.991 128.773  0.00  0.00    +0.000 S 
ATOM     12  S   UNL     1      -6.351   3.471 129.946  0.00  0.00    +0.000 S 
ATOM     13  C   UNL     1      -6.036   4.055 131.524  0.00  0.00    +0.000 C 
ATOM     14  C   UNL     1      -5.034   3.390 132.430  0.00  0.00    +0.000 C 
ATOM     15  N   UNL     1      -5.562   2.105 132.929  0.00  0.00    +0.000 N 
ATOM     16  C   UNL     1      -5.866   1.031 132.166  0.00  0.00    +0.000 C 
ATOM     17  O   UNL     1      -6.340   0.049 132.717  0.00  0.00    +0.000 OA
ATOM     18  C   UNL     1      -5.552   1.088 130.680  0.00  0.00    +0.000 C 
ATOM     19  N   UNL     1      -4.382   0.506 130.258  0.00  0.00    +0.000 N 
ATOM     20  C   UNL     1      -4.473  -0.688 130.053  0.00  0.00    +0.000 C 
ATOM     21  O   UNL     1      -3.208  -1.288 129.779  0.00  0.00    +0.000 OA
ATOM     22  C   UNL     1      -6.341  -1.650 131.035  0.00  0.00    +0.000 C 
ATOM     23  N   UNL     1      -7.489  -2.594 130.069  0.00  0.00    +0.000 N 
ATOM     24  C   UNL     1      -7.291  -3.034 128.752  0.00  0.00    +0.000 C 
ATOM     25  O   UNL     1      -7.199  -4.265 128.572  0.00  0.00    +0.000 OA
ATOM     26  H   UNL     1      -8.875  -0.017 125.259  0.00  0.00    +0.000 HD
ATOM     27  H   UNL     1      -7.591   5.202 123.988  0.00  0.00    +0.000 HD
ATOM     28  H   UNL     1      -5.757   2.019 133.930  0.00  0.00    +0.000 HD
ATOM     29  H   UNL     1      -3.578   0.611 129.687  0.00  0.00    +0.000 HD
ATOM     30  H   UNL     1      -8.205  -2.027 129.739  0.00  0.00    +0.000 HD
ENDROOT
BRANCH  14  31
ATOM     31  C   UNL     1      -4.777   4.386 133.578  0.00  0.00    +0.000 C 
ATOM     32  O   UNL     1      -3.633   4.842 133.571  0.00  0.00    +0.000 OA
ATOM     33  N   UNL     1      -5.852   4.764 134.421  0.00  0.00    +0.000 N 
ATOM     34  C   UNL     1      -6.818   3.903 135.087  0.00  0.00    +0.000 C 
ATOM     35  C   UNL     1      -8.092   4.703 135.013  0.00  0.00    +0.000 C 
ATOM     36  C   UNL     1      -7.634   6.092 135.379  0.00  0.00    +0.000 C 
ATOM     37  C   UNL     1      -6.202   6.162 134.879  0.00  0.00    +0.000 C 
BRANCH  37  38
ATOM     38  C   UNL     1      -5.575   6.541 136.259  0.00  0.00    +0.000 C 
ATOM     39  O   UNL     1      -4.457   7.086 136.248  0.00  0.00    +0.000 OA
ATOM     40  N   UNL     1      -6.498   6.647 137.363  0.00  0.00    +0.000 N 
ATOM     41  H   UNL     1      -7.386   6.149 137.398  0.00  0.00    +0.000 HD
BRANCH  40  42
ATOM     42  C   UNL     1      -6.213   7.503 138.561  0.00  0.00    +0.000 C 
BRANCH  42  43
ATOM     43  C   UNL     1      -5.453   6.682 139.651  0.00  0.00    +0.000 C 
ATOM     44  O   UNL     1      -5.974   5.668 140.118  0.00  0.00    +0.000 OA
ATOM     45  N   UNL     1      -4.201   7.128 140.052  0.00  0.00    +0.000 N 
ATOM     46  C   UNL     1      -3.623   8.303 139.475  0.00  0.00    +0.000 C 
BRANCH  45  47
ATOM     47  C   UNL     1      -3.416   6.403 141.080  0.00  0.00    +0.000 C 
BRANCH  47  48
ATOM     48  C   UNL     1      -2.399   5.341 140.557  0.00  0.00    +0.000 C 
ATOM     49  N   UNL     1      -1.078   5.646 140.374  0.00  0.00    +0.000 N 
ATOM     50  O   UNL     1      -2.751   4.195 140.291  0.00  0.00    +0.000 OA
ATOM     51  H   UNL     1      -0.585   6.486 140.522  0.00  0.00    +0.000 HD
ATOM     52  H   UNL     1      -0.348   5.056 140.048  0.00  0.00    +0.000 HD
ENDBRANCH  47  48
ENDBRANCH  45  47
ENDBRANCH  42  43
BRANCH  42  53
ATOM     53  C   UNL     1      -7.483   8.122 139.191  0.00  0.00    +0.000 C 
BRANCH  53  54
ATOM     54  C   UNL     1      -8.202   9.083 138.277  0.00  0.00    +0.000 C 
ATOM     55  C   UNL     1      -9.479   8.506 137.821  0.00  0.00    +0.000 C 
ATOM     56  C   UNL     1      -8.810  10.231 138.973  0.00  0.00    +0.000 C 
ENDBRANCH  53  54
ENDBRANCH  42  53
ENDBRANCH  40  42
ENDBRANCH  37  38
ENDBRANCH  14  31
BRANCH   9  57
ATOM     57  N   UNL     1      -9.072   2.317 125.964  0.00  0.00    +0.000 NA
ATOM     58  H   UNL     1      -8.470   1.718 126.498  0.00  0.00    +0.000 HD
ATOM     59  H   UNL     1      -8.495   2.448 125.120  0.00  0.00    +0.000 HD
ENDBRANCH   9  57
BRANCH   1  60
ATOM     60  C   UNL     1      -5.516  -2.591 129.218  0.00  0.00    +0.000 C 
ATOM     61  C   UNL     1      -4.463  -3.800 130.682  0.00  0.00    +0.000 C 
BRANCH  60  63
ATOM     62  C   UNL     1      -5.042  -2.167 127.906  0.00  0.00    +0.000 C 
ATOM     63  C   UNL     1      -4.483  -3.587 129.172  0.00  0.00    +0.000 C 
ENDBRANCH  60  63
ENDBRANCH   1  60
BRANCH  18  64
ATOM     64  C   UNL     1      -6.841   0.914 129.837  0.00  0.00    +0.000 C 
BRANCH  64  65
ATOM     65  C   UNL     1      -7.950   0.901 130.828  0.00  0.00    +0.000 C 
ATOM     66  N   UNL     1      -8.285   1.850 131.731  0.00  0.00    +0.000 N 
ATOM     67  O   UNL     1      -8.601  -0.103 130.816  0.00  0.00    +0.000 OA
ATOM     68  H   UNL     1      -7.906   2.761 131.638  0.00  0.00    +0.000 HD
ATOM     69  H   UNL     1      -8.837   1.676 132.571  0.00  0.00    +0.000 HD
ENDBRANCH  64  65
ENDBRANCH  18  64
BRANCH   5  70
ATOM     70  C   UNL     1      -7.081   2.039 123.687  0.00  0.00    +0.000 C 
BRANCH  70  71
ATOM     71  C   UNL     1      -6.273   2.999 122.860  0.00  0.00    +0.000 A 
ATOM     72  C   UNL     1      -6.039   2.910 121.458  0.00  0.00    +0.000 A 
ATOM     73  C   UNL     1      -5.236   3.837 120.833  0.00  0.00    +0.000 A 
ATOM     74  C   UNL     1      -4.618   4.790 121.615  0.00  0.00    +0.000 A 
ATOM     75  C   UNL     1      -4.712   4.749 122.997  0.00  0.00    +0.000 A 
ATOM     76  C   UNL     1      -5.499   3.828 123.625  0.00  0.00    +0.000 A 
BRANCH  74  77
ATOM     77  O   UNL     1      -3.885   5.815 121.112  0.00  0.00    +0.000 OA
ATOM     78  H   UNL     1      -3.372   5.566 120.329  0.00  0.00    +0.000 HD
ENDBRANCH  74  77
ENDBRANCH  70  71
ENDBRANCH   5  70
BRANCH  22  79
ATOM     79  C   UNL     1      -6.175  -2.556 132.330  0.00  0.00    +0.000 C 
BRANCH  79  80
ATOM     80  C   UNL     1      -7.555  -3.025 132.896  0.00  0.00    +0.000 C 
BRANCH  80  81
ATOM     81  C   UNL     1      -7.597  -2.921 134.362  0.00  0.00    +0.000 C 
ATOM     82  N   UNL     1      -8.746  -3.338 134.978  0.00  0.00    +0.000 N 
ATOM     83  O   UNL     1      -6.631  -2.466 134.962  0.00  0.00    +0.000 OA
ATOM     84  H   UNL     1      -9.572  -3.687 134.505  0.00  0.00    +0.000 HD
ATOM     85  H   UNL     1      -8.796  -3.329 135.982  0.00  0.00    +0.000 HD
ENDBRANCH  80  81
ENDBRANCH  79  80
ENDBRANCH  22  79
TORSDOF 19
ENDMDL
MODEL 8
REMARK VINA RESULT:      -8.0      3.658      7.826
REMARK  Name = CHEMBL3814633
REMARK  24 active torsions:
REMARK  status: ('A' for Active; 'I' for Inactive)
REMARK    1  A    between atoms: C_1  and  C_2
REMARK    2  A    between atoms: C_2  and  C_3
REMARK    3  A    between atoms: C_3  and  C_4
REMARK    4  A    between atoms: C_3  and  C_5
REMARK    5  A    between atoms: C_9  and  C_10
REMARK    6  A    between atoms: C_10  and  C_11
REMARK    7  A    between atoms: C_14  and  O_15
REMARK    8  A    between atoms: C_21  and  N_22
REMARK    9  A    between atoms: C_27  and  C_28
REMARK   10  A    between atoms: C_34  and  C_35
REMARK   11  A    between atoms: N_37  and  C_38
REMARK   12  A    between atoms: C_38  and  C_39
REMARK   13  A    between atoms: C_38  and  C_43
REMARK   14  A    between atoms: C_39  and  C_40
REMARK   15  A    between atoms: C_40  and  C_41
REMARK   16  A    between atoms: C_40  and  C_42
REMARK   17  A    between atoms: N_45  and  C_46
REMARK   18  A    between atoms: N_45  and  C_47
REMARK   19  A    between atoms: C_47  and  C_48
REMARK   20  A    between atoms: C_54  and  C_55
REMARK   21  A    between atoms: C_55  and  C_56
REMARK   22  A    between atoms: C_62  and  C_63
REMARK   23  A    between atoms: C_63  and  C_64
REMARK   24  A    between atoms: C_64  and  C_65
REMARK                            x       y       z     vdW  Elec       q    Type
REMARK                         _______ _______ _______ _____ _____    ______ ____
ROOT
ATOM      1  C   UNL     1      -6.886  -1.474 128.111  0.00  0.00    +0.000 C 
ATOM      2  N   UNL     1      -7.653  -0.195 126.506  0.00  0.00    +0.000 N 
ATOM      3  C   UNL     1      -8.554   1.120 125.152  0.00  0.00    +0.000 C 
ATOM      4  O   UNL     1      -9.879   1.818 124.827  0.00  0.00    +0.000 OA
ATOM      5  C   UNL     1      -8.072   3.038 124.395  0.00  0.00    +0.000 C 
ATOM      6  N   UNL     1      -7.877   4.506 125.165  0.00  0.00    +0.000 N 
ATOM      7  C   UNL     1      -8.167   4.598 126.490  0.00  0.00    +0.000 C 
ATOM      8  O   UNL     1      -7.896   5.545 127.212  0.00  0.00    +0.000 OA
ATOM      9  C   UNL     1      -8.821   3.520 127.231  0.00  0.00    +0.000 C 
ATOM     10  C   UNL     1      -7.960   2.796 128.106  0.00  0.00    +0.000 C 
ATOM     11  S   UNL     1      -7.898   3.945 129.487  0.00  0.00    +0.000 S 
ATOM     12  S   UNL     1      -6.526   3.377 130.705  0.00  0.00    +0.000 S 
ATOM     13  C   UNL     1      -6.305   3.872 132.329  0.00  0.00    +0.000 C 
ATOM     14  C   UNL     1      -5.343   3.169 133.248  0.00  0.00    +0.000 C 
ATOM     15  N   UNL     1      -5.876   1.850 133.643  0.00  0.00    +0.000 N 
ATOM     16  C   UNL     1      -6.122   0.818 132.804  0.00  0.00    +0.000 C 
ATOM     17  O   UNL     1      -6.609  -0.201 133.271  0.00  0.00    +0.000 OA
ATOM     18  C   UNL     1      -5.729   0.965 131.343  0.00  0.00    +0.000 C 
ATOM     19  N   UNL     1      -4.529   0.424 130.953  0.00  0.00    +0.000 N 
ATOM     20  C   UNL     1      -4.589  -0.757 130.676  0.00  0.00    +0.000 C 
ATOM     21  O   UNL     1      -3.302  -1.323 130.437  0.00  0.00    +0.000 OA
ATOM     22  C   UNL     1      -6.492  -1.799 131.497  0.00  0.00    +0.000 C 
ATOM     23  N   UNL     1      -7.570  -2.699 130.417  0.00  0.00    +0.000 N 
ATOM     24  C   UNL     1      -7.295  -3.059 129.090  0.00  0.00    +0.000 C 
ATOM     25  O   UNL     1      -7.174  -4.276 128.844  0.00  0.00    +0.000 OA
ATOM     26  H   UNL     1      -8.737   0.135 125.694  0.00  0.00    +0.000 HD
ATOM     27  H   UNL     1      -7.470   5.436 124.797  0.00  0.00    +0.000 HD
ATOM     28  H   UNL     1      -6.123   1.704 134.625  0.00  0.00    +0.000 HD
ATOM     29  H   UNL     1      -3.697   0.573 130.434  0.00  0.00    +0.000 HD
ATOM     30  H   UNL     1      -8.277  -2.123 130.081  0.00  0.00    +0.000 HD
ENDROOT
BRANCH  14  31
ATOM     31  C   UNL     1      -5.164   4.100 134.463  0.00  0.00    +0.000 C 
ATOM     32  O   UNL     1      -5.709   3.671 135.481  0.00  0.00    +0.000 OA
ATOM     33  N   UNL     1      -4.332   5.242 134.344  0.00  0.00    +0.000 N 
ATOM     34  C   UNL     1      -4.331   6.247 133.292  0.00  0.00    +0.000 C 
ATOM     35  C   UNL     1      -2.869   6.577 133.140  0.00  0.00    +0.000 C 
ATOM     36  C   UNL     1      -2.402   6.685 134.570  0.00  0.00    +0.000 C 
ATOM     37  C   UNL     1      -3.290   5.716 135.332  0.00  0.00    +0.000 C 
BRANCH  37  38
ATOM     38  C   UNL     1      -3.830   6.770 136.350  0.00  0.00    +0.000 C 
ATOM     39  O   UNL     1      -3.758   7.968 136.024  0.00  0.00    +0.000 OA
ATOM     40  N   UNL     1      -4.750   6.272 137.344  0.00  0.00    +0.000 N 
ATOM     41  H   UNL     1      -4.763   5.303 137.656  0.00  0.00    +0.000 HD
BRANCH  40  42
ATOM     42  C   UNL     1      -5.762   7.157 138.008  0.00  0.00    +0.000 C 
BRANCH  42  43
ATOM     43  C   UNL     1      -5.107   7.952 139.182  0.00  0.00    +0.000 C 
ATOM     44  O   UNL     1      -4.584   7.336 140.113  0.00  0.00    +0.000 OA
ATOM     45  N   UNL     1      -5.133   9.340 139.129  0.00  0.00    +0.000 N 
ATOM     46  C   UNL     1      -5.738  10.018 138.024  0.00  0.00    +0.000 C 
BRANCH  45  47
ATOM     47  C   UNL     1      -4.532  10.165 140.204  0.00  0.00    +0.000 C 
BRANCH  47  48
ATOM     48  C   UNL     1      -5.528  10.898 141.157  0.00  0.00    +0.000 C 
ATOM     49  N   UNL     1      -6.093  10.259 142.227  0.00  0.00    +0.000 N 
ATOM     50  O   UNL     1      -5.839  12.072 140.977  0.00  0.00    +0.000 OA
ATOM     51  H   UNL     1      -5.988   9.336 142.554  0.00  0.00    +0.000 HD
ATOM     52  H   UNL     1      -6.734  10.623 142.893  0.00  0.00    +0.000 HD
ENDBRANCH  47  48
ENDBRANCH  45  47
ENDBRANCH  42  43
BRANCH  42  53
ATOM     53  C   UNL     1      -6.992   6.390 138.545  0.00  0.00    +0.000 C 
BRANCH  53  54
ATOM     54  C   UNL     1      -8.205   6.496 137.654  0.00  0.00    +0.000 C 
ATOM     55  C   UNL     1      -8.688   7.887 137.602  0.00  0.00    +0.000 C 
ATOM     56  C   UNL     1      -7.903   6.401 136.215  0.00  0.00    +0.000 C 
ENDBRANCH  53  54
ENDBRANCH  42  53
ENDBRANCH  40  42
ENDBRANCH  37  38
ENDBRANCH  14  31
BRANCH   9  57
ATOM     57  N   UNL     1      -9.010   2.421 126.520  0.00  0.00    +0.000 NA
ATOM     58  H   UNL     1      -9.915   2.171 126.872  0.00  0.00    +0.000 HD
ATOM     59  H   UNL     1      -8.422   1.756 127.045  0.00  0.00    +0.000 HD
ENDBRANCH   9  57
BRANCH   1  60
ATOM     60  C   UNL     1      -5.555  -2.621 129.677  0.00  0.00    +0.000 C 
ATOM     61  C   UNL     1      -4.579  -3.879 131.153  0.00  0.00    +0.000 C 
BRANCH  60  63
ATOM     62  C   UNL     1      -4.948  -2.148 128.438  0.00  0.00    +0.000 C 
ATOM     63  C   UNL     1      -4.589  -3.683 129.640  0.00  0.00    +0.000 C 
ENDBRANCH  60  63
ENDBRANCH   1  60
BRANCH  18  64
ATOM     64  C   UNL     1      -6.967   0.824 130.422  0.00  0.00    +0.000 C 
BRANCH  64  65
ATOM     65  C   UNL     1      -8.127   0.727 131.349  0.00  0.00    +0.000 C 
ATOM     66  N   UNL     1      -8.520   1.601 132.303  0.00  0.00    +0.000 N 
ATOM     67  O   UNL     1      -8.764  -0.278 131.226  0.00  0.00    +0.000 OA
ATOM     68  H   UNL     1      -8.148   2.520 132.299  0.00  0.00    +0.000 HD
ATOM     69  H   UNL     1      -9.113   1.359 133.097  0.00  0.00    +0.000 HD
ENDBRANCH  64  65
ENDBRANCH  18  64
BRANCH   5  70
ATOM     70  C   UNL     1      -6.894   2.302 124.343  0.00  0.00    +0.000 C 
BRANCH  70  71
ATOM     71  C   UNL     1      -6.243   3.052 123.217  0.00  0.00    +0.000 A 
ATOM     72  C   UNL     1      -5.209   4.024 123.340  0.00  0.00    +0.000 A 
ATOM     73  C   UNL     1      -4.735   4.673 122.222  0.00  0.00    +0.000 A 
ATOM     74  C   UNL     1      -5.342   4.405 121.013  0.00  0.00    +0.000 A 
ATOM     75  C   UNL     1      -6.464   3.595 120.942  0.00  0.00    +0.000 A 
ATOM     76  C   UNL     1      -6.945   2.956 122.046  0.00  0.00    +0.000 A 
BRANCH  74  77
ATOM     77  O   UNL     1      -4.905   4.900 119.827  0.00  0.00    +0.000 OA
ATOM     78  H   UNL     1      -5.587   5.396 119.349  0.00  0.00    +0.000 HD
ENDBRANCH  74  77
ENDBRANCH  70  71
ENDBRANCH   5  70
BRANCH  22  79
ATOM     79  C   UNL     1      -6.382  -2.776 132.745  0.00  0.00    +0.000 C 
BRANCH  79  80
ATOM     80  C   UNL     1      -7.762  -2.983 133.449  0.00  0.00    +0.000 C 
BRANCH  80  81
ATOM     81  C   UNL     1      -7.712  -4.094 134.410  0.00  0.00    +0.000 C 
ATOM     82  N   UNL     1      -8.828  -4.299 135.176  0.00  0.00    +0.000 N 
ATOM     83  O   UNL     1      -6.695  -4.771 134.497  0.00  0.00    +0.000 OA
ATOM     84  H   UNL     1      -9.669  -3.734 135.149  0.00  0.00    +0.000 HD
ATOM     85  H   UNL     1      -8.852  -5.079 135.810  0.00  0.00    +0.000 HD
ENDBRANCH  80  81
ENDBRANCH  79  80
ENDBRANCH  22  79
TORSDOF 19
ENDMDL
MODEL 9
REMARK VINA RESULT:      -7.9      3.362      7.336
REMARK  Name = CHEMBL3814633
REMARK  24 active torsions:
REMARK  status: ('A' for Active; 'I' for Inactive)
REMARK    1  A    between atoms: C_1  and  C_2
REMARK    2  A    between atoms: C_2  and  C_3
REMARK    3  A    between atoms: C_3  and  C_4
REMARK    4  A    between atoms: C_3  and  C_5
REMARK    5  A    between atoms: C_9  and  C_10
REMARK    6  A    between atoms: C_10  and  C_11
REMARK    7  A    between atoms: C_14  and  O_15
REMARK    8  A    between atoms: C_21  and  N_22
REMARK    9  A    between atoms: C_27  and  C_28
REMARK   10  A    between atoms: C_34  and  C_35
REMARK   11  A    between atoms: N_37  and  C_38
REMARK   12  A    between atoms: C_38  and  C_39
REMARK   13  A    between atoms: C_38  and  C_43
REMARK   14  A    between atoms: C_39  and  C_40
REMARK   15  A    between atoms: C_40  and  C_41
REMARK   16  A    between atoms: C_40  and  C_42
REMARK   17  A    between atoms: N_45  and  C_46
REMARK   18  A    between atoms: N_45  and  C_47
REMARK   19  A    between atoms: C_47  and  C_48
REMARK   20  A    between atoms: C_54  and  C_55
REMARK   21  A    between atoms: C_55  and  C_56
REMARK   22  A    between atoms: C_62  and  C_63
REMARK   23  A    between atoms: C_63  and  C_64
REMARK   24  A    between atoms: C_64  and  C_65
REMARK                            x       y       z     vdW  Elec       q    Type
REMARK                         _______ _______ _______ _____ _____    ______ ____
ROOT
ATOM      1  C   UNL     1      -6.340  -1.854 129.114  0.00  0.00    +0.000 C 
ATOM      2  N   UNL     1      -7.250  -0.594 127.570  0.00  0.00    +0.000 N 
ATOM      3  C   UNL     1      -8.288   0.687 126.282  0.00  0.00    +0.000 C 
ATOM      4  O   UNL     1      -9.672   1.290 126.016  0.00  0.00    +0.000 OA
ATOM      5  C   UNL     1      -7.975   2.656 125.569  0.00  0.00    +0.000 C 
ATOM      6  N   UNL     1      -7.867   4.112 126.376  0.00  0.00    +0.000 N 
ATOM      7  C   UNL     1      -8.122   4.145 127.711  0.00  0.00    +0.000 C 
ATOM      8  O   UNL     1      -7.900   5.091 128.452  0.00  0.00    +0.000 OA
ATOM      9  C   UNL     1      -8.670   3.002 128.438  0.00  0.00    +0.000 C 
ATOM     10  C   UNL     1      -7.731   2.321 129.267  0.00  0.00    +0.000 C 
ATOM     11  S   UNL     1      -7.712   3.433 130.678  0.00  0.00    +0.000 S 
ATOM     12  S   UNL     1      -6.264   2.938 131.839  0.00  0.00    +0.000 S 
ATOM     13  C   UNL     1      -6.032   3.404 133.470  0.00  0.00    +0.000 C 
ATOM     14  C   UNL     1      -4.992   2.750 134.340  0.00  0.00    +0.000 C 
ATOM     15  N   UNL     1      -5.412   1.384 134.710  0.00  0.00    +0.000 N 
ATOM     16  C   UNL     1      -5.605   0.360 133.849  0.00  0.00    +0.000 C 
ATOM     17  O   UNL     1      -6.000  -0.705 134.299  0.00  0.00    +0.000 OA
ATOM     18  C   UNL     1      -5.270   0.577 132.382  0.00  0.00    +0.000 C 
ATOM     19  N   UNL     1      -4.045   0.139 131.942  0.00  0.00    +0.000 N 
ATOM     20  C   UNL     1      -4.025  -1.035 131.632  0.00  0.00    +0.000 C 
ATOM     21  O   UNL     1      -2.707  -1.496 131.339  0.00  0.00    +0.000 OA
ATOM     22  C   UNL     1      -5.818  -2.240 132.476  0.00  0.00    +0.000 C 
ATOM     23  N   UNL     1      -6.859  -3.190 131.401  0.00  0.00    +0.000 N 
ATOM     24  C   UNL     1      -6.599  -3.492 130.057  0.00  0.00    +0.000 C 
ATOM     25  O   UNL     1      -6.394  -4.689 129.772  0.00  0.00    +0.000 OA
ATOM     26  H   UNL     1      -8.380  -0.324 126.800  0.00  0.00    +0.000 HD
ATOM     27  H   UNL     1      -7.542   5.080 126.024  0.00  0.00    +0.000 HD
ATOM     28  H   UNL     1      -5.617   1.193 135.695  0.00  0.00    +0.000 HD
ATOM     29  H   UNL     1      -3.243   0.364 131.404  0.00  0.00    +0.000 HD
ATOM     30  H   UNL     1      -7.617  -2.661 131.103  0.00  0.00    +0.000 HD
ENDROOT
BRANCH  14  31
ATOM     31  C   UNL     1      -4.845   3.658 135.577  0.00  0.00    +0.000 C 
ATOM     32  O   UNL     1      -5.059   3.067 136.635  0.00  0.00    +0.000 OA
ATOM     33  N   UNL     1      -4.383   4.988 135.409  0.00  0.00    +0.000 N 
ATOM     34  C   UNL     1      -4.843   5.985 134.454  0.00  0.00    +0.000 C 
ATOM     35  C   UNL     1      -3.575   6.710 134.083  0.00  0.00    +0.000 C 
ATOM     36  C   UNL     1      -2.899   6.900 135.417  0.00  0.00    +0.000 C 
ATOM     37  C   UNL     1      -3.341   5.702 136.240  0.00  0.00    +0.000 C 
BRANCH  37  38
ATOM     38  C   UNL     1      -3.944   6.536 137.414  0.00  0.00    +0.000 C 
ATOM     39  O   UNL     1      -3.617   6.212 138.570  0.00  0.00    +0.000 OA
ATOM     40  N   UNL     1      -4.442   7.844 137.068  0.00  0.00    +0.000 N 
ATOM     41  H   UNL     1      -4.770   8.087 136.134  0.00  0.00    +0.000 HD
BRANCH  40  42
ATOM     42  C   UNL     1      -4.527   8.956 138.070  0.00  0.00    +0.000 C 
BRANCH  42  43
ATOM     43  C   UNL     1      -5.855   8.860 138.885  0.00  0.00    +0.000 C 
ATOM     44  O   UNL     1      -6.929   8.771 138.285  0.00  0.00    +0.000 OA
ATOM     45  N   UNL     1      -5.775   8.870 140.271  0.00  0.00    +0.000 N 
ATOM     46  C   UNL     1      -4.509   8.961 140.931  0.00  0.00    +0.000 C 
BRANCH  45  47
ATOM     47  C   UNL     1      -6.991   8.780 141.115  0.00  0.00    +0.000 C 
BRANCH  47  48
ATOM     48  C   UNL     1      -7.855  10.076 141.231  0.00  0.00    +0.000 C 
ATOM     49  N   UNL     1      -8.814  10.379 140.304  0.00  0.00    +0.000 N 
ATOM     50  O   UNL     1      -7.700  10.867 142.157  0.00  0.00    +0.000 OA
ATOM     51  H   UNL     1      -9.103   9.897 139.496  0.00  0.00    +0.000 HD
ATOM     52  H   UNL     1      -9.416  11.169 140.277  0.00  0.00    +0.000 HD
ENDBRANCH  47  48
ENDBRANCH  45  47
ENDBRANCH  42  43
BRANCH  42  53
ATOM     53  C   UNL     1      -4.426  10.364 137.436  0.00  0.00    +0.000 C 
BRANCH  53  54
ATOM     54  C   UNL     1      -3.025  10.740 137.021  0.00  0.00    +0.000 C 
ATOM     55  C   UNL     1      -2.911  10.768 135.553  0.00  0.00    +0.000 C 
ATOM     56  C   UNL     1      -2.705  12.166 137.212  0.00  0.00    +0.000 C 
ENDBRANCH  53  54
ENDBRANCH  42  53
ENDBRANCH  40  42
ENDBRANCH  37  38
ENDBRANCH  14  31
BRANCH   9  57
ATOM     57  N   UNL     1      -8.798   1.911 127.701  0.00  0.00    +0.000 NA
ATOM     58  H   UNL     1      -8.145   2.146 126.976  0.00  0.00    +0.000 HD
ATOM     59  H   UNL     1      -9.685   2.116 127.217  0.00  0.00    +0.000 HD
ENDBRANCH   9  57
BRANCH   1  60
ATOM     60  C   UNL     1      -4.879  -2.939 130.606  0.00  0.00    +0.000 C 
ATOM     61  C   UNL     1      -3.774  -4.148 132.032  0.00  0.00    +0.000 C 
BRANCH  60  63
ATOM     62  C   UNL     1      -4.286  -2.391 129.392  0.00  0.00    +0.000 C 
ATOM     63  C   UNL     1      -3.884  -3.970 130.521  0.00  0.00    +0.000 C 
ENDBRANCH  60  63
ENDBRANCH   1  60
BRANCH  18  64
ATOM     64  C   UNL     1      -6.522   0.367 131.494  0.00  0.00    +0.000 C 
BRANCH  64  65
ATOM     65  C   UNL     1      -7.642   0.160 132.450  0.00  0.00    +0.000 C 
ATOM     66  N   UNL     1      -8.354  -0.966 132.684  0.00  0.00    +0.000 N 
ATOM     67  O   UNL     1      -7.947   1.141 133.062  0.00  0.00    +0.000 OA
ATOM     68  H   UNL     1      -8.007  -1.834 132.353  0.00  0.00    +0.000 HD
ATOM     69  H   UNL     1      -9.283  -0.984 133.105  0.00  0.00    +0.000 HD
ENDBRANCH  64  65
ENDBRANCH  18  64
BRANCH   5  70
ATOM     70  C   UNL     1      -6.747   2.013 125.462  0.00  0.00    +0.000 C 
BRANCH  70  71
ATOM     71  C   UNL     1      -6.259   2.725 124.233  0.00  0.00    +0.000 A 
ATOM     72  C   UNL     1      -5.405   3.864 124.205  0.00  0.00    +0.000 A 
ATOM     73  C   UNL     1      -5.073   4.449 123.003  0.00  0.00    +0.000 A 
ATOM     74  C   UNL     1      -5.651   3.944 121.857  0.00  0.00    +0.000 A 
ATOM     75  C   UNL     1      -6.619   2.954 121.923  0.00  0.00    +0.000 A 
ATOM     76  C   UNL     1      -6.960   2.376 123.110  0.00  0.00    +0.000 A 
BRANCH  74  77
ATOM     77  O   UNL     1      -5.332   4.363 120.607  0.00  0.00    +0.000 OA
ATOM     78  H   UNL     1      -6.109   4.572 120.067  0.00  0.00    +0.000 HD
ENDBRANCH  74  77
ENDBRANCH  70  71
ENDBRANCH   5  70
BRANCH  22  79
ATOM     79  C   UNL     1      -5.597  -3.240 133.691  0.00  0.00    +0.000 C 
BRANCH  79  80
ATOM     80  C   UNL     1      -6.889  -4.057 134.020  0.00  0.00    +0.000 C 
BRANCH  80  81
ATOM     81  C   UNL     1      -7.529  -3.574 135.252  0.00  0.00    +0.000 C 
ATOM     82  N   UNL     1      -7.025  -4.045 136.435  0.00  0.00    +0.000 N 
ATOM     83  O   UNL     1      -8.472  -2.798 135.177  0.00  0.00    +0.000 OA
ATOM     84  H   UNL     1      -6.268  -4.714 136.525  0.00  0.00    +0.000 HD
ATOM     85  H   UNL     1      -7.403  -3.702 137.300  0.00  0.00    +0.000 HD
ENDBRANCH  80  81
ENDBRANCH  79  80
ENDBRANCH  22  79
TORSDOF 19
ENDMDL
