MODEL 1
REMARK VINA RESULT:      -8.6      0.000      0.000
REMARK  Name = CHEMBL515384
REMARK  8 active torsions:
REMARK  status: ('A' for Active; 'I' for Inactive)
REMARK    1  A    between atoms: C_1  and  O_2
REMARK    2  A    between atoms: O_2  and  C_3
REMARK    3  A    between atoms: C_6  and  N_7
REMARK    4  A    between atoms: N_7  and  C_8
REMARK    5  A    between atoms: N_7  and  S_20
REMARK    6  A    between atoms: C_8  and  C_9
REMARK    7  A    between atoms: C_11  and  C_12
REMARK    8  A    between atoms: S_20  and  C_23
REMARK                            x       y       z     vdW  Elec       q    Type
REMARK                         _______ _______ _______ _____ _____    ______ ____
ROOT
ATOM      1  N   UNL     1      -8.819   2.360 123.519  0.00  0.00    +0.000 N 
ENDROOT
BRANCH   1   5
ATOM      2  C   UNL     1      -6.471   4.091 120.397  0.00  0.00    +0.000 A 
ATOM      3  C   UNL     1      -5.822   3.361 121.368  0.00  0.00    +0.000 A 
ATOM      4  C   UNL     1      -6.576   2.755 122.391  0.00  0.00    +0.000 A 
ATOM      5  C   UNL     1      -7.962   2.896 122.452  0.00  0.00    +0.000 A 
ATOM      6  C   UNL     1      -8.463   3.493 121.312  0.00  0.00    +0.000 A 
ATOM      7  N   UNL     1      -7.790   4.093 120.306  0.00  0.00    +0.000 NA
BRANCH   2   9
ATOM      8  C   UNL     1      -6.648   5.078 118.337  0.00  0.00    +0.000 C 
ATOM      9  O   UNL     1      -5.864   4.915 119.501  0.00  0.00    +0.000 OA
ENDBRANCH   2   9
ENDBRANCH   1   5
BRANCH   1  10
ATOM     10  S   UNL     1      -9.768   0.978 123.116  0.00  0.00    +0.000 S 
ATOM     11  O   UNL     1     -10.814   0.908 124.138  0.00  0.00    +0.000 OA
ATOM     12  O   UNL     1     -10.152   1.062 121.727  0.00  0.00    +0.000 OA
BRANCH  10  13
ATOM     13  C   UNL     1      -8.777  -0.503 123.354  0.00  0.00    +0.000 A 
ATOM     14  C   UNL     1      -9.386  -1.744 123.263  0.00  0.00    +0.000 A 
ATOM     15  C   UNL     1      -8.578  -2.871 123.356  0.00  0.00    +0.000 A 
ATOM     16  C   UNL     1      -7.201  -2.718 123.486  0.00  0.00    +0.000 A 
ATOM     17  C   UNL     1      -6.677  -1.432 123.524  0.00  0.00    +0.000 A 
ATOM     18  N   UNL     1      -7.434  -0.313 123.478  0.00  0.00    +0.000 NA
ENDBRANCH  10  13
ENDBRANCH   1  10
BRANCH   1  19
ATOM     19  C   UNL     1      -8.809   2.818 124.966  0.00  0.00    +0.000 C 
BRANCH  19  20
ATOM     20  C   UNL     1      -8.071   1.933 125.980  0.00  0.00    +0.000 A 
ATOM     21  N   UNL     1      -8.625   0.953 126.680  0.00  0.00    +0.000 NA
ATOM     22  C   UNL     1      -7.658   0.042 127.111  0.00  0.00    +0.000 A 
ATOM     23  C   UNL     1      -6.351   0.464 126.913  0.00  0.00    +0.000 A 
ATOM     24  S   UNL     1      -6.332   1.990 126.103  0.00  0.00    +0.000 S 
BRANCH  22  25
ATOM     25  C   UNL     1      -7.978  -1.281 127.660  0.00  0.00    +0.000 A 
ATOM     26  C   UNL     1      -7.661  -1.559 128.985  0.00  0.00    +0.000 A 
ATOM     27  C   UNL     1      -7.838  -2.846 129.510  0.00  0.00    +0.000 A 
ATOM     28  C   UNL     1      -8.381  -3.871 128.736  0.00  0.00    +0.000 A 
ATOM     29  C   UNL     1      -8.717  -3.617 127.418  0.00  0.00    +0.000 A 
ATOM     30  C   UNL     1      -8.528  -2.328 126.902  0.00  0.00    +0.000 A 
ENDBRANCH  22  25
ENDBRANCH  19  20
ENDBRANCH   1  19
TORSDOF 7
ENDMDL
MODEL 2
REMARK VINA RESULT:      -8.2      2.077      3.579
REMARK  Name = CHEMBL515384
REMARK  8 active torsions:
REMARK  status: ('A' for Active; 'I' for Inactive)
REMARK    1  A    between atoms: C_1  and  O_2
REMARK    2  A    between atoms: O_2  and  C_3
REMARK    3  A    between atoms: C_6  and  N_7
REMARK    4  A    between atoms: N_7  and  C_8
REMARK    5  A    between atoms: N_7  and  S_20
REMARK    6  A    between atoms: C_8  and  C_9
REMARK    7  A    between atoms: C_11  and  C_12
REMARK    8  A    between atoms: S_20  and  C_23
REMARK                            x       y       z     vdW  Elec       q    Type
REMARK                         _______ _______ _______ _____ _____    ______ ____
ROOT
ATOM      1  N   UNL     1      -7.996   2.546 123.488  0.00  0.00    +0.000 N 
ENDROOT
BRANCH   1   5
ATOM      2  C   UNL     1      -5.796   4.598 120.455  0.00  0.00    +0.000 A 
ATOM      3  C   UNL     1      -5.125   4.214 121.595  0.00  0.00    +0.000 A 
ATOM      4  C   UNL     1      -5.821   3.510 122.597  0.00  0.00    +0.000 A 
ATOM      5  C   UNL     1      -7.177   3.212 122.466  0.00  0.00    +0.000 A 
ATOM      6  C   UNL     1      -7.641   3.500 121.198  0.00  0.00    +0.000 A 
ATOM      7  N   UNL     1      -7.023   4.176 120.204  0.00  0.00    +0.000 NA
BRANCH   2   9
ATOM      8  C   UNL     1      -6.162   5.524 118.391  0.00  0.00    +0.000 C 
ATOM      9  O   UNL     1      -5.324   5.475 119.528  0.00  0.00    +0.000 OA
ENDBRANCH   2   9
ENDBRANCH   1   5
BRANCH   1  10
ATOM     10  S   UNL     1      -8.028   3.287 125.045  0.00  0.00    +0.000 S 
ATOM     11  O   UNL     1      -8.240   4.714 124.797  0.00  0.00    +0.000 OA
ATOM     12  O   UNL     1      -8.965   2.577 125.882  0.00  0.00    +0.000 OA
BRANCH  10  13
ATOM     13  C   UNL     1      -6.392   3.175 125.781  0.00  0.00    +0.000 A 
ATOM     14  C   UNL     1      -5.790   1.933 125.901  0.00  0.00    +0.000 A 
ATOM     15  C   UNL     1      -4.488   1.887 126.385  0.00  0.00    +0.000 A 
ATOM     16  C   UNL     1      -3.825   3.074 126.681  0.00  0.00    +0.000 A 
ATOM     17  C   UNL     1      -4.496   4.275 126.487  0.00  0.00    +0.000 A 
ATOM     18  N   UNL     1      -5.776   4.357 126.058  0.00  0.00    +0.000 NA
ENDBRANCH  10  13
ENDBRANCH   1  10
BRANCH   1  19
ATOM     19  C   UNL     1      -8.928   1.374 123.240  0.00  0.00    +0.000 C 
BRANCH  19  20
ATOM     20  C   UNL     1      -8.468  -0.007 123.726  0.00  0.00    +0.000 A 
ATOM     21  N   UNL     1      -8.170  -0.311 124.982  0.00  0.00    +0.000 NA
ATOM     22  C   UNL     1      -8.276  -1.688 125.198  0.00  0.00    +0.000 A 
ATOM     23  C   UNL     1      -8.443  -2.434 124.040  0.00  0.00    +0.000 A 
ATOM     24  S   UNL     1      -8.550  -1.390 122.666  0.00  0.00    +0.000 S 
BRANCH  22  25
ATOM     25  C   UNL     1      -8.285  -2.301 126.531  0.00  0.00    +0.000 A 
ATOM     26  C   UNL     1      -7.432  -1.804 127.510  0.00  0.00    +0.000 A 
ATOM     27  C   UNL     1      -7.322  -2.439 128.755  0.00  0.00    +0.000 A 
ATOM     28  C   UNL     1      -8.099  -3.555 129.065  0.00  0.00    +0.000 A 
ATOM     29  C   UNL     1      -8.965  -4.060 128.112  0.00  0.00    +0.000 A 
ATOM     30  C   UNL     1      -9.060  -3.423 126.869  0.00  0.00    +0.000 A 
ENDBRANCH  22  25
ENDBRANCH  19  20
ENDBRANCH   1  19
TORSDOF 7
ENDMDL
MODEL 3
REMARK VINA RESULT:      -8.2      5.060      7.919
REMARK  Name = CHEMBL515384
REMARK  8 active torsions:
REMARK  status: ('A' for Active; 'I' for Inactive)
REMARK    1  A    between atoms: C_1  and  O_2
REMARK    2  A    between atoms: O_2  and  C_3
REMARK    3  A    between atoms: C_6  and  N_7
REMARK    4  A    between atoms: N_7  and  C_8
REMARK    5  A    between atoms: N_7  and  S_20
REMARK    6  A    between atoms: C_8  and  C_9
REMARK    7  A    between atoms: C_11  and  C_12
REMARK    8  A    between atoms: S_20  and  C_23
REMARK                            x       y       z     vdW  Elec       q    Type
REMARK                         _______ _______ _______ _____ _____    ______ ____
ROOT
ATOM      1  N   UNL     1      -6.838   3.404 127.165  0.00  0.00    +0.000 N 
ENDROOT
BRANCH   1   5
ATOM      2  C   UNL     1      -9.718   1.198 124.909  0.00  0.00    +0.000 A 
ATOM      3  C   UNL     1      -9.351   0.711 126.144  0.00  0.00    +0.000 A 
ATOM      4  C   UNL     1      -8.426   1.435 126.920  0.00  0.00    +0.000 A 
ATOM      5  C   UNL     1      -7.861   2.622 126.456  0.00  0.00    +0.000 A 
ATOM      6  C   UNL     1      -8.472   3.057 125.297  0.00  0.00    +0.000 A 
ATOM      7  N   UNL     1      -9.357   2.405 124.511  0.00  0.00    +0.000 NA
BRANCH   2   9
ATOM      8  C   UNL     1     -10.065   0.922 122.660  0.00  0.00    +0.000 C 
ATOM      9  O   UNL     1     -10.404   0.499 123.965  0.00  0.00    +0.000 OA
ENDBRANCH   2   9
ENDBRANCH   1   5
BRANCH   1  10
ATOM     10  S   UNL     1      -5.801   4.374 126.187  0.00  0.00    +0.000 S 
ATOM     11  O   UNL     1      -5.198   3.453 125.222  0.00  0.00    +0.000 OA
ATOM     12  O   UNL     1      -6.546   5.510 125.698  0.00  0.00    +0.000 OA
BRANCH  10  13
ATOM     13  C   UNL     1      -4.433   4.966 127.192  0.00  0.00    +0.000 A 
ATOM     14  C   UNL     1      -3.383   4.107 127.476  0.00  0.00    +0.000 A 
ATOM     15  C   UNL     1      -2.296   4.620 128.173  0.00  0.00    +0.000 A 
ATOM     16  C   UNL     1      -2.275   5.970 128.513  0.00  0.00    +0.000 A 
ATOM     17  C   UNL     1      -3.355   6.763 128.145  0.00  0.00    +0.000 A 
ATOM     18  N   UNL     1      -4.449   6.291 127.505  0.00  0.00    +0.000 NA
ENDBRANCH  10  13
ENDBRANCH   1  10
BRANCH   1  19
ATOM     19  C   UNL     1      -6.733   3.548 128.673  0.00  0.00    +0.000 C 
BRANCH  19  20
ATOM     20  C   UNL     1      -7.921   4.189 129.403  0.00  0.00    +0.000 A 
ATOM     21  N   UNL     1      -8.354   5.428 129.213  0.00  0.00    +0.000 NA
ATOM     22  C   UNL     1      -9.686   5.555 129.613  0.00  0.00    +0.000 A 
ATOM     23  C   UNL     1     -10.180   4.459 130.306  0.00  0.00    +0.000 A 
ATOM     24  S   UNL     1      -8.981   3.216 130.389  0.00  0.00    +0.000 S 
BRANCH  22  25
ATOM     25  C   UNL     1     -10.527   6.710 129.275  0.00  0.00    +0.000 A 
ATOM     26  C   UNL     1     -11.425   7.193 130.220  0.00  0.00    +0.000 A 
ATOM     27  C   UNL     1     -12.330   8.213 129.895  0.00  0.00    +0.000 A 
ATOM     28  C   UNL     1     -12.322   8.806 128.633  0.00  0.00    +0.000 A 
ATOM     29  C   UNL     1     -11.429   8.352 127.679  0.00  0.00    +0.000 A 
ATOM     30  C   UNL     1     -10.536   7.326 128.013  0.00  0.00    +0.000 A 
ENDBRANCH  22  25
ENDBRANCH  19  20
ENDBRANCH   1  19
TORSDOF 7
ENDMDL
MODEL 4
REMARK VINA RESULT:      -8.2      3.114      6.629
REMARK  Name = CHEMBL515384
REMARK  8 active torsions:
REMARK  status: ('A' for Active; 'I' for Inactive)
REMARK    1  A    between atoms: C_1  and  O_2
REMARK    2  A    between atoms: O_2  and  C_3
REMARK    3  A    between atoms: C_6  and  N_7
REMARK    4  A    between atoms: N_7  and  C_8
REMARK    5  A    between atoms: N_7  and  S_20
REMARK    6  A    between atoms: C_8  and  C_9
REMARK    7  A    between atoms: C_11  and  C_12
REMARK    8  A    between atoms: S_20  and  C_23
REMARK                            x       y       z     vdW  Elec       q    Type
REMARK                         _______ _______ _______ _____ _____    ______ ____
ROOT
ATOM      1  N   UNL     1      -6.929   0.568 126.770  0.00  0.00    +0.000 N 
ENDROOT
BRANCH   1   5
ATOM      2  C   UNL     1      -3.439   2.843 127.720  0.00  0.00    +0.000 A 
ATOM      3  C   UNL     1      -4.096   2.202 128.749  0.00  0.00    +0.000 A 
ATOM      4  C   UNL     1      -5.231   1.422 128.457  0.00  0.00    +0.000 A 
ATOM      5  C   UNL     1      -5.714   1.301 127.155  0.00  0.00    +0.000 A 
ATOM      6  C   UNL     1      -4.840   1.846 126.235  0.00  0.00    +0.000 A 
ATOM      7  N   UNL     1      -3.745   2.605 126.456  0.00  0.00    +0.000 NA
BRANCH   2   9
ATOM      8  C   UNL     1      -3.017   5.093 127.637  0.00  0.00    +0.000 C 
ATOM      9  O   UNL     1      -2.491   3.804 127.877  0.00  0.00    +0.000 OA
ENDBRANCH   2   9
ENDBRANCH   1   5
BRANCH   1  10
ATOM     10  S   UNL     1      -6.805  -1.151 126.734  0.00  0.00    +0.000 S 
ATOM     11  O   UNL     1      -5.375  -1.440 126.611  0.00  0.00    +0.000 OA
ATOM     12  O   UNL     1      -7.534  -1.697 127.854  0.00  0.00    +0.000 OA
BRANCH  10  13
ATOM     13  C   UNL     1      -7.541  -1.760 125.211  0.00  0.00    +0.000 A 
ATOM     14  C   UNL     1      -8.677  -2.550 125.280  0.00  0.00    +0.000 A 
ATOM     15  C   UNL     1      -9.279  -2.926 124.085  0.00  0.00    +0.000 A 
ATOM     16  C   UNL     1      -8.758  -2.462 122.880  0.00  0.00    +0.000 A 
ATOM     17  C   UNL     1      -7.641  -1.638 122.915  0.00  0.00    +0.000 A 
ATOM     18  N   UNL     1      -7.004  -1.285 124.054  0.00  0.00    +0.000 NA
ENDBRANCH  10  13
ENDBRANCH   1  10
BRANCH   1  19
ATOM     19  C   UNL     1      -8.300   1.186 126.568  0.00  0.00    +0.000 C 
BRANCH  19  20
ATOM     20  C   UNL     1      -8.588   1.831 125.205  0.00  0.00    +0.000 A 
ATOM     21  N   UNL     1      -7.821   2.736 124.613  0.00  0.00    +0.000 NA
ATOM     22  C   UNL     1      -8.049   2.756 123.235  0.00  0.00    +0.000 A 
ATOM     23  C   UNL     1      -9.147   2.012 122.829  0.00  0.00    +0.000 A 
ATOM     24  S   UNL     1      -9.860   1.210 124.185  0.00  0.00    +0.000 S 
BRANCH  22  25
ATOM     25  C   UNL     1      -7.170   3.439 122.278  0.00  0.00    +0.000 A 
ATOM     26  C   UNL     1      -7.618   3.649 120.979  0.00  0.00    +0.000 A 
ATOM     27  C   UNL     1      -6.766   4.186 120.004  0.00  0.00    +0.000 A 
ATOM     28  C   UNL     1      -5.463   4.571 120.320  0.00  0.00    +0.000 A 
ATOM     29  C   UNL     1      -4.998   4.384 121.610  0.00  0.00    +0.000 A 
ATOM     30  C   UNL     1      -5.856   3.839 122.573  0.00  0.00    +0.000 A 
ENDBRANCH  22  25
ENDBRANCH  19  20
ENDBRANCH   1  19
TORSDOF 7
ENDMDL
MODEL 5
REMARK VINA RESULT:      -8.1      1.636      2.162
REMARK  Name = CHEMBL515384
REMARK  8 active torsions:
REMARK  status: ('A' for Active; 'I' for Inactive)
REMARK    1  A    between atoms: C_1  and  O_2
REMARK    2  A    between atoms: O_2  and  C_3
REMARK    3  A    between atoms: C_6  and  N_7
REMARK    4  A    between atoms: N_7  and  C_8
REMARK    5  A    between atoms: N_7  and  S_20
REMARK    6  A    between atoms: C_8  and  C_9
REMARK    7  A    between atoms: C_11  and  C_12
REMARK    8  A    between atoms: S_20  and  C_23
REMARK                            x       y       z     vdW  Elec       q    Type
REMARK                         _______ _______ _______ _____ _____    ______ ____
ROOT
ATOM      1  N   UNL     1      -8.630   1.171 124.453  0.00  0.00    +0.000 N 
ENDROOT
BRANCH   1   5
ATOM      2  C   UNL     1      -7.106   3.477 121.195  0.00  0.00    +0.000 A 
ATOM      3  C   UNL     1      -8.472   3.421 121.367  0.00  0.00    +0.000 A 
ATOM      4  C   UNL     1      -8.998   2.692 122.451  0.00  0.00    +0.000 A 
ATOM      5  C   UNL     1      -8.166   2.011 123.340  0.00  0.00    +0.000 A 
ATOM      6  C   UNL     1      -6.837   2.323 123.134  0.00  0.00    +0.000 A 
ATOM      7  N   UNL     1      -6.278   3.009 122.113  0.00  0.00    +0.000 NA
BRANCH   2   9
ATOM      8  C   UNL     1      -7.399   4.454 119.143  0.00  0.00    +0.000 C 
ATOM      9  O   UNL     1      -6.477   3.933 120.079  0.00  0.00    +0.000 OA
ENDBRANCH   2   9
ENDBRANCH   1   5
BRANCH   1  10
ATOM     10  S   UNL     1      -8.986  -0.473 124.073  0.00  0.00    +0.000 S 
ATOM     11  O   UNL     1      -9.621  -1.024 125.272  0.00  0.00    +0.000 OA
ATOM     12  O   UNL     1      -9.699  -0.520 122.820  0.00  0.00    +0.000 OA
BRANCH  10  13
ATOM     13  C   UNL     1      -7.444  -1.381 123.898  0.00  0.00    +0.000 A 
ATOM     14  C   UNL     1      -6.998  -2.163 124.951  0.00  0.00    +0.000 A 
ATOM     15  C   UNL     1      -5.855  -2.928 124.752  0.00  0.00    +0.000 A 
ATOM     16  C   UNL     1      -5.235  -2.921 123.505  0.00  0.00    +0.000 A 
ATOM     17  C   UNL     1      -5.782  -2.139 122.497  0.00  0.00    +0.000 A 
ATOM     18  N   UNL     1      -6.868  -1.350 122.665  0.00  0.00    +0.000 NA
ENDBRANCH  10  13
ENDBRANCH   1  10
BRANCH   1  19
ATOM     19  C   UNL     1      -8.661   1.586 125.913  0.00  0.00    +0.000 C 
BRANCH  19  20
ATOM     20  C   UNL     1      -7.543   1.055 126.820  0.00  0.00    +0.000 A 
ATOM     21  N   UNL     1      -7.678   0.068 127.696  0.00  0.00    +0.000 NA
ATOM     22  C   UNL     1      -6.439  -0.508 127.989  0.00  0.00    +0.000 A 
ATOM     23  C   UNL     1      -5.352   0.198 127.493  0.00  0.00    +0.000 A 
ATOM     24  S   UNL     1      -5.891   1.560 126.577  0.00  0.00    +0.000 S 
BRANCH  22  25
ATOM     25  C   UNL     1      -6.286  -1.785 128.696  0.00  0.00    +0.000 A 
ATOM     26  C   UNL     1      -7.412  -2.404 129.227  0.00  0.00    +0.000 A 
ATOM     27  C   UNL     1      -7.292  -3.559 130.012  0.00  0.00    +0.000 A 
ATOM     28  C   UNL     1      -6.049  -4.146 130.243  0.00  0.00    +0.000 A 
ATOM     29  C   UNL     1      -4.914  -3.556 129.716  0.00  0.00    +0.000 A 
ATOM     30  C   UNL     1      -5.045  -2.398 128.939  0.00  0.00    +0.000 A 
ENDBRANCH  22  25
ENDBRANCH  19  20
ENDBRANCH   1  19
TORSDOF 7
ENDMDL
MODEL 6
REMARK VINA RESULT:      -8.0      7.099      9.628
REMARK  Name = CHEMBL515384
REMARK  8 active torsions:
REMARK  status: ('A' for Active; 'I' for Inactive)
REMARK    1  A    between atoms: C_1  and  O_2
REMARK    2  A    between atoms: O_2  and  C_3
REMARK    3  A    between atoms: C_6  and  N_7
REMARK    4  A    between atoms: N_7  and  C_8
REMARK    5  A    between atoms: N_7  and  S_20
REMARK    6  A    between atoms: C_8  and  C_9
REMARK    7  A    between atoms: C_11  and  C_12
REMARK    8  A    between atoms: S_20  and  C_23
REMARK                            x       y       z     vdW  Elec       q    Type
REMARK                         _______ _______ _______ _____ _____    ______ ____
ROOT
ATOM      1  N   UNL     1     -10.057   5.045 130.737  0.00  0.00    +0.000 N 
ENDROOT
BRANCH   1   5
ATOM      2  C   UNL     1     -12.311   8.231 128.999  0.00  0.00    +0.000 A 
ATOM      3  C   UNL     1     -10.948   8.215 128.795  0.00  0.00    +0.000 A 
ATOM      4  C   UNL     1     -10.187   7.159 129.333  0.00  0.00    +0.000 A 
ATOM      5  C   UNL     1     -10.781   6.143 130.081  0.00  0.00    +0.000 A 
ATOM      6  C   UNL     1     -12.159   6.212 130.029  0.00  0.00    +0.000 A 
ATOM      7  N   UNL     1     -12.938   7.199 129.535  0.00  0.00    +0.000 NA
BRANCH   2   9
ATOM      8  C   UNL     1     -13.148  10.192 129.837  0.00  0.00    +0.000 C 
ATOM      9  O   UNL     1     -13.126   9.291 128.749  0.00  0.00    +0.000 OA
ENDBRANCH   2   9
ENDBRANCH   1   5
BRANCH   1  10
ATOM     10  S   UNL     1      -9.390   5.389 132.290  0.00  0.00    +0.000 S 
ATOM     11  O   UNL     1     -10.036   6.626 132.730  0.00  0.00    +0.000 OA
ATOM     12  O   UNL     1      -9.499   4.211 133.117  0.00  0.00    +0.000 OA
BRANCH  10  13
ATOM     13  C   UNL     1      -7.651   5.806 132.101  0.00  0.00    +0.000 A 
ATOM     14  C   UNL     1      -7.271   6.670 131.087  0.00  0.00    +0.000 A 
ATOM     15  C   UNL     1      -5.936   7.050 131.025  0.00  0.00    +0.000 A 
ATOM     16  C   UNL     1      -5.049   6.597 131.998  0.00  0.00    +0.000 A 
ATOM     17  C   UNL     1      -5.533   5.769 133.002  0.00  0.00    +0.000 A 
ATOM     18  N   UNL     1      -6.815   5.344 133.072  0.00  0.00    +0.000 NA
ENDBRANCH  10  13
ENDBRANCH   1  10
BRANCH   1  19
ATOM     19  C   UNL     1      -9.994   3.613 130.237  0.00  0.00    +0.000 C 
BRANCH  19  20
ATOM     20  C   UNL     1      -8.623   3.081 129.798  0.00  0.00    +0.000 A 
ATOM     21  N   UNL     1      -7.689   3.795 129.185  0.00  0.00    +0.000 NA
ATOM     22  C   UNL     1      -6.428   3.220 129.362  0.00  0.00    +0.000 A 
ATOM     23  C   UNL     1      -6.454   1.954 129.927  0.00  0.00    +0.000 A 
ATOM     24  S   UNL     1      -8.078   1.507 130.317  0.00  0.00    +0.000 S 
BRANCH  22  25
ATOM     25  C   UNL     1      -5.172   3.911 129.050  0.00  0.00    +0.000 A 
ATOM     26  C   UNL     1      -4.099   3.797 129.927  0.00  0.00    +0.000 A 
ATOM     27  C   UNL     1      -2.926   4.537 129.729  0.00  0.00    +0.000 A 
ATOM     28  C   UNL     1      -2.782   5.371 128.620  0.00  0.00    +0.000 A 
ATOM     29  C   UNL     1      -3.829   5.493 127.725  0.00  0.00    +0.000 A 
ATOM     30  C   UNL     1      -5.000   4.754 127.938  0.00  0.00    +0.000 A 
ENDBRANCH  22  25
ENDBRANCH  19  20
ENDBRANCH   1  19
TORSDOF 7
ENDMDL
MODEL 7
REMARK VINA RESULT:      -7.9      4.190      7.001
REMARK  Name = CHEMBL515384
REMARK  8 active torsions:
REMARK  status: ('A' for Active; 'I' for Inactive)
REMARK    1  A    between atoms: C_1  and  O_2
REMARK    2  A    between atoms: O_2  and  C_3
REMARK    3  A    between atoms: C_6  and  N_7
REMARK    4  A    between atoms: N_7  and  C_8
REMARK    5  A    between atoms: N_7  and  S_20
REMARK    6  A    between atoms: C_8  and  C_9
REMARK    7  A    between atoms: C_11  and  C_12
REMARK    8  A    between atoms: S_20  and  C_23
REMARK                            x       y       z     vdW  Elec       q    Type
REMARK                         _______ _______ _______ _____ _____    ______ ____
ROOT
ATOM      1  N   UNL     1      -7.312   2.937 126.607  0.00  0.00    +0.000 N 
ENDROOT
BRANCH   1   5
ATOM      2  C   UNL     1      -8.818  -0.676 124.894  0.00  0.00    +0.000 A 
ATOM      3  C   UNL     1      -7.456  -0.470 124.881  0.00  0.00    +0.000 A 
ATOM      4  C   UNL     1      -6.932   0.699 125.466  0.00  0.00    +0.000 A 
ATOM      5  C   UNL     1      -7.765   1.659 126.040  0.00  0.00    +0.000 A 
ATOM      6  C   UNL     1      -9.068   1.212 126.134  0.00  0.00    +0.000 A 
ATOM      7  N   UNL     1      -9.624   0.107 125.589  0.00  0.00    +0.000 NA
BRANCH   2   9
ATOM      8  C   UNL     1      -8.601  -2.283 123.276  0.00  0.00    +0.000 C 
ATOM      9  O   UNL     1      -9.473  -1.623 124.171  0.00  0.00    +0.000 OA
ENDBRANCH   2   9
ENDBRANCH   1   5
BRANCH   1  10
ATOM     10  S   UNL     1      -7.486   4.326 125.600  0.00  0.00    +0.000 S 
ATOM     11  O   UNL     1      -8.924   4.594 125.546  0.00  0.00    +0.000 OA
ATOM     12  O   UNL     1      -6.599   5.361 126.073  0.00  0.00    +0.000 OA
BRANCH  10  13
ATOM     13  C   UNL     1      -7.024   3.891 123.918  0.00  0.00    +0.000 A 
ATOM     14  C   UNL     1      -7.984   3.363 123.070  0.00  0.00    +0.000 A 
ATOM     15  C   UNL     1      -7.623   3.126 121.749  0.00  0.00    +0.000 A 
ATOM     16  C   UNL     1      -6.345   3.469 121.316  0.00  0.00    +0.000 A 
ATOM     17  C   UNL     1      -5.465   4.034 122.230  0.00  0.00    +0.000 A 
ATOM     18  N   UNL     1      -5.766   4.241 123.532  0.00  0.00    +0.000 NA
ENDBRANCH  10  13
ENDBRANCH   1  10
BRANCH   1  19
ATOM     19  C   UNL     1      -6.867   3.151 128.042  0.00  0.00    +0.000 C 
BRANCH  19  20
ATOM     20  C   UNL     1      -7.910   3.691 129.030  0.00  0.00    +0.000 A 
ATOM     21  N   UNL     1      -8.390   4.927 129.032  0.00  0.00    +0.000 NA
ATOM     22  C   UNL     1      -9.628   4.978 129.677  0.00  0.00    +0.000 A 
ATOM     23  C   UNL     1      -9.968   3.813 130.349  0.00  0.00    +0.000 A 
ATOM     24  S   UNL     1      -8.756   2.606 130.103  0.00  0.00    +0.000 S 
BRANCH  22  25
ATOM     25  C   UNL     1     -10.534   6.130 129.601  0.00  0.00    +0.000 A 
ATOM     26  C   UNL     1     -10.274   7.137 128.678  0.00  0.00    +0.000 A 
ATOM     27  C   UNL     1     -11.043   8.308 128.657  0.00  0.00    +0.000 A 
ATOM     28  C   UNL     1     -12.121   8.476 129.527  0.00  0.00    +0.000 A 
ATOM     29  C   UNL     1     -12.408   7.484 130.446  0.00  0.00    +0.000 A 
ATOM     30  C   UNL     1     -11.627   6.321 130.463  0.00  0.00    +0.000 A 
ENDBRANCH  22  25
ENDBRANCH  19  20
ENDBRANCH   1  19
TORSDOF 7
ENDMDL
MODEL 8
REMARK VINA RESULT:      -7.9      2.643      7.450
REMARK  Name = CHEMBL515384
REMARK  8 active torsions:
REMARK  status: ('A' for Active; 'I' for Inactive)
REMARK    1  A    between atoms: C_1  and  O_2
REMARK    2  A    between atoms: O_2  and  C_3
REMARK    3  A    between atoms: C_6  and  N_7
REMARK    4  A    between atoms: N_7  and  C_8
REMARK    5  A    between atoms: N_7  and  S_20
REMARK    6  A    between atoms: C_8  and  C_9
REMARK    7  A    between atoms: C_11  and  C_12
REMARK    8  A    between atoms: S_20  and  C_23
REMARK                            x       y       z     vdW  Elec       q    Type
REMARK                         _______ _______ _______ _____ _____    ______ ____
ROOT
ATOM      1  N   UNL     1      -7.907   0.359 126.098  0.00  0.00    +0.000 N 
ENDROOT
BRANCH   1   5
ATOM      2  C   UNL     1      -5.747  -0.256 129.733  0.00  0.00    +0.000 A 
ATOM      3  C   UNL     1      -7.082   0.075 129.820  0.00  0.00    +0.000 A 
ATOM      4  C   UNL     1      -7.823   0.254 128.635  0.00  0.00    +0.000 A 
ATOM      5  C   UNL     1      -7.229   0.122 127.381  0.00  0.00    +0.000 A 
ATOM      6  C   UNL     1      -5.950  -0.391 127.474  0.00  0.00    +0.000 A 
ATOM      7  N   UNL     1      -5.192  -0.576 128.576  0.00  0.00    +0.000 NA
BRANCH   2   9
ATOM      8  C   UNL     1      -4.469   1.096 131.069  0.00  0.00    +0.000 C 
ATOM      9  O   UNL     1      -4.865  -0.226 130.767  0.00  0.00    +0.000 OA
ENDBRANCH   2   9
ENDBRANCH   1   5
BRANCH   1  10
ATOM     10  S   UNL     1      -8.565  -1.028 125.313  0.00  0.00    +0.000 S 
ATOM     11  O   UNL     1      -8.904  -1.964 126.387  0.00  0.00    +0.000 OA
ATOM     12  O   UNL     1      -9.603  -0.603 124.404  0.00  0.00    +0.000 OA
BRANCH  10  13
ATOM     13  C   UNL     1      -7.267  -1.841 124.372  0.00  0.00    +0.000 A 
ATOM     14  C   UNL     1      -6.987  -1.400 123.089  0.00  0.00    +0.000 A 
ATOM     15  C   UNL     1      -5.916  -1.982 122.422  0.00  0.00    +0.000 A 
ATOM     16  C   UNL     1      -5.142  -2.938 123.074  0.00  0.00    +0.000 A 
ATOM     17  C   UNL     1      -5.474  -3.284 124.377  0.00  0.00    +0.000 A 
ATOM     18  N   UNL     1      -6.533  -2.770 125.043  0.00  0.00    +0.000 NA
ENDBRANCH  10  13
ENDBRANCH   1  10
BRANCH   1  19
ATOM     19  C   UNL     1      -8.210   1.723 125.505  0.00  0.00    +0.000 C 
BRANCH  19  20
ATOM     20  C   UNL     1      -7.142   2.350 124.599  0.00  0.00    +0.000 A 
ATOM     21  N   UNL     1      -7.192   2.387 123.275  0.00  0.00    +0.000 NA
ATOM     22  C   UNL     1      -6.386   3.414 122.776  0.00  0.00    +0.000 A 
ATOM     23  C   UNL     1      -5.564   4.005 123.725  0.00  0.00    +0.000 A 
ATOM     24  S   UNL     1      -5.861   3.318 125.283  0.00  0.00    +0.000 S 
BRANCH  22  25
ATOM     25  C   UNL     1      -6.445   3.889 121.389  0.00  0.00    +0.000 A 
ATOM     26  C   UNL     1      -5.338   4.532 120.846  0.00  0.00    +0.000 A 
ATOM     27  C   UNL     1      -5.397   5.107 119.569  0.00  0.00    +0.000 A 
ATOM     28  C   UNL     1      -6.548   5.008 118.788  0.00  0.00    +0.000 A 
ATOM     29  C   UNL     1      -7.658   4.361 119.299  0.00  0.00    +0.000 A 
ATOM     30  C   UNL     1      -7.590   3.797 120.580  0.00  0.00    +0.000 A 
ENDBRANCH  22  25
ENDBRANCH  19  20
ENDBRANCH   1  19
TORSDOF 7
ENDMDL
MODEL 9
REMARK VINA RESULT:      -7.9      2.854      5.114
REMARK  Name = CHEMBL515384
REMARK  8 active torsions:
REMARK  status: ('A' for Active; 'I' for Inactive)
REMARK    1  A    between atoms: C_1  and  O_2
REMARK    2  A    between atoms: O_2  and  C_3
REMARK    3  A    between atoms: C_6  and  N_7
REMARK    4  A    between atoms: N_7  and  C_8
REMARK    5  A    between atoms: N_7  and  S_20
REMARK    6  A    between atoms: C_8  and  C_9
REMARK    7  A    between atoms: C_11  and  C_12
REMARK    8  A    between atoms: S_20  and  C_23
REMARK                            x       y       z     vdW  Elec       q    Type
REMARK                         _______ _______ _______ _____ _____    ______ ____
ROOT
ATOM      1  N   UNL     1      -7.117   1.712 124.536  0.00  0.00    +0.000 N 
ENDROOT
BRANCH   1   5
ATOM      2  C   UNL     1      -4.569   3.392 127.525  0.00  0.00    +0.000 A 
ATOM      3  C   UNL     1      -4.411   3.818 126.224  0.00  0.00    +0.000 A 
ATOM      4  C   UNL     1      -5.259   3.301 125.226  0.00  0.00    +0.000 A 
ATOM      5  C   UNL     1      -6.239   2.355 125.523  0.00  0.00    +0.000 A 
ATOM      6  C   UNL     1      -6.384   2.184 126.886  0.00  0.00    +0.000 A 
ATOM      7  N   UNL     1      -5.600   2.647 127.884  0.00  0.00    +0.000 NA
BRANCH   2   9
ATOM      8  C   UNL     1      -2.754   4.622 128.189  0.00  0.00    +0.000 C 
ATOM      9  O   UNL     1      -3.686   3.618 128.534  0.00  0.00    +0.000 OA
ENDBRANCH   2   9
ENDBRANCH   1   5
BRANCH   1  10
ATOM     10  S   UNL     1      -8.393   2.682 123.900  0.00  0.00    +0.000 S 
ATOM     11  O   UNL     1      -9.482   1.751 123.598  0.00  0.00    +0.000 OA
ATOM     12  O   UNL     1      -8.642   3.779 124.805  0.00  0.00    +0.000 OA
BRANCH  10  13
ATOM     13  C   UNL     1      -7.887   3.347 122.309  0.00  0.00    +0.000 A 
ATOM     14  C   UNL     1      -6.535   3.466 122.026  0.00  0.00    +0.000 A 
ATOM     15  C   UNL     1      -6.174   3.892 120.754  0.00  0.00    +0.000 A 
ATOM     16  C   UNL     1      -7.163   4.133 119.805  0.00  0.00    +0.000 A 
ATOM     17  C   UNL     1      -8.490   3.943 120.168  0.00  0.00    +0.000 A 
ATOM     18  N   UNL     1      -8.883   3.570 121.408  0.00  0.00    +0.000 NA
ENDBRANCH  10  13
ENDBRANCH   1  10
BRANCH   1  19
ATOM     19  C   UNL     1      -6.894   0.342 123.923  0.00  0.00    +0.000 C 
BRANCH  19  20
ATOM     20  C   UNL     1      -7.250  -0.880 124.780  0.00  0.00    +0.000 A 
ATOM     21  N   UNL     1      -6.559  -1.302 125.831  0.00  0.00    +0.000 NA
ATOM     22  C   UNL     1      -7.359  -2.080 126.671  0.00  0.00    +0.000 A 
ATOM     23  C   UNL     1      -8.592  -2.418 126.131  0.00  0.00    +0.000 A 
ATOM     24  S   UNL     1      -8.785  -1.684 124.578  0.00  0.00    +0.000 S 
BRANCH  22  25
ATOM     25  C   UNL     1      -6.974  -2.454 128.037  0.00  0.00    +0.000 A 
ATOM     26  C   UNL     1      -5.625  -2.572 128.352  0.00  0.00    +0.000 A 
ATOM     27  C   UNL     1      -5.220  -3.046 129.608  0.00  0.00    +0.000 A 
ATOM     28  C   UNL     1      -6.155  -3.365 130.592  0.00  0.00    +0.000 A 
ATOM     29  C   UNL     1      -7.504  -3.244 130.308  0.00  0.00    +0.000 A 
ATOM     30  C   UNL     1      -7.896  -2.777 129.047  0.00  0.00    +0.000 A 
ENDBRANCH  22  25
ENDBRANCH  19  20
ENDBRANCH   1  19
TORSDOF 7
ENDMDL
