MODEL 1
REMARK VINA RESULT:      -9.3      0.000      0.000
REMARK  Name = CHEMBL287067
REMARK  3 active torsions:
REMARK  status: ('A' for Active; 'I' for Inactive)
REMARK    1  A    between atoms: C_1  and  C_2
REMARK    2  A    between atoms: C_8  and  C_9
REMARK    3  A    between atoms: C_14  and  N_15
REMARK                            x       y       z     vdW  Elec       q    Type
REMARK                         _______ _______ _______ _____ _____    ______ ____
ROOT
ATOM      1  C   UNL     1      -5.188   0.987 128.566  0.00  0.00    +0.000 C 
ATOM      2  O   UNL     1      -4.223   1.037 129.323  0.00  0.00    +0.000 OA
ATOM      3  N   UNL     1      -5.423   2.000 127.637  0.00  0.00    +0.000 N 
ATOM      4  C   UNL     1      -4.689   2.066 126.364  0.00  0.00    +0.000 C 
ATOM      5  C   UNL     1      -4.512   3.515 125.918  0.00  0.00    +0.000 C 
ATOM      6  C   UNL     1      -5.857   4.278 125.917  0.00  0.00    +0.000 C 
ATOM      7  C   UNL     1      -6.524   4.167 127.294  0.00  0.00    +0.000 C 
ATOM      8  C   UNL     1      -6.671   2.734 127.737  0.00  0.00    +0.000 C 
ENDROOT
BRANCH   1  16
ATOM      9  C   UNL     1      -7.806  -2.893 125.287  0.00  0.00    +0.000 C 
ATOM     10  C   UNL     1      -8.026  -2.890 126.758  0.00  0.00    +0.000 A 
ATOM     11  C   UNL     1      -8.789  -3.776 127.489  0.00  0.00    +0.000 A 
ATOM     12  N   UNL     1      -8.750  -3.396 128.806  0.00  0.00    +0.000 N 
ATOM     13  C   UNL     1      -7.960  -2.280 128.959  0.00  0.00    +0.000 A 
ATOM     14  C   UNL     1      -7.624  -1.534 130.098  0.00  0.00    +0.000 A 
ATOM     15  C   UNL     1      -6.738  -0.451 129.935  0.00  0.00    +0.000 A 
ATOM     16  C   UNL     1      -6.195  -0.129 128.685  0.00  0.00    +0.000 A 
ATOM     17  C   UNL     1      -6.567  -0.898 127.577  0.00  0.00    +0.000 A 
ATOM     18  C   UNL     1      -7.468  -1.969 127.696  0.00  0.00    +0.000 A 
ATOM     19  H   UNL     1      -9.219  -3.875 129.561  0.00  0.00    +0.000 HD
ENDBRANCH   1  16
BRANCH   6  20
ATOM     20  N   UNL     1      -6.716   3.931 124.734  0.00  0.00    +0.000 N 
ATOM     21  C   UNL     1      -8.048   3.528 124.813  0.00  0.00    +0.000 C 
ATOM     22  O   UNL     1      -8.964   4.051 125.434  0.00  0.00    +0.000 OA
ATOM     23  O   UNL     1      -8.304   2.387 124.130  0.00  0.00    +0.000 OA
ATOM     24  C   UNL     1      -8.233   2.639 122.744  0.00  0.00    +0.000 C 
ATOM     25  C   UNL     1      -6.945   3.318 122.399  0.00  0.00    +0.000 A 
ATOM     26  C   UNL     1      -6.535   3.351 121.066  0.00  0.00    +0.000 A 
ATOM     27  C   UNL     1      -5.357   3.999 120.725  0.00  0.00    +0.000 A 
ATOM     28  C   UNL     1      -4.598   4.623 121.711  0.00  0.00    +0.000 A 
ATOM     29  C   UNL     1      -5.005   4.596 123.048  0.00  0.00    +0.000 A 
ATOM     30  C   UNL     1      -6.181   3.937 123.408  0.00  0.00    +0.000 A 
ENDBRANCH   6  20
TORSDOF 2
ENDMDL
MODEL 2
REMARK VINA RESULT:      -9.0      6.320      9.018
REMARK  Name = CHEMBL287067
REMARK  3 active torsions:
REMARK  status: ('A' for Active; 'I' for Inactive)
REMARK    1  A    between atoms: C_1  and  C_2
REMARK    2  A    between atoms: C_8  and  C_9
REMARK    3  A    between atoms: C_14  and  N_15
REMARK                            x       y       z     vdW  Elec       q    Type
REMARK                         _______ _______ _______ _____ _____    ______ ____
ROOT
ATOM      1  C   UNL     1      -9.987   4.107 130.915  0.00  0.00    +0.000 C 
ATOM      2  O   UNL     1     -10.602   3.044 130.939  0.00  0.00    +0.000 OA
ATOM      3  N   UNL     1      -8.616   4.146 131.164  0.00  0.00    +0.000 N 
ATOM      4  C   UNL     1      -7.633   3.791 130.130  0.00  0.00    +0.000 C 
ATOM      5  C   UNL     1      -6.387   3.174 130.760  0.00  0.00    +0.000 C 
ATOM      6  C   UNL     1      -5.824   4.060 131.896  0.00  0.00    +0.000 C 
ATOM      7  C   UNL     1      -6.921   4.348 132.929  0.00  0.00    +0.000 C 
ATOM      8  C   UNL     1      -8.156   4.933 132.293  0.00  0.00    +0.000 C 
ENDROOT
BRANCH   1  16
ATOM      9  C   UNL     1     -10.913   7.972 126.809  0.00  0.00    +0.000 C 
ATOM     10  C   UNL     1     -11.590   8.108 128.127  0.00  0.00    +0.000 A 
ATOM     11  C   UNL     1     -12.497   9.076 128.502  0.00  0.00    +0.000 A 
ATOM     12  N   UNL     1     -12.849   8.855 129.810  0.00  0.00    +0.000 N 
ATOM     13  C   UNL     1     -12.198   7.746 130.299  0.00  0.00    +0.000 A 
ATOM     14  C   UNL     1     -12.231   7.136 131.562  0.00  0.00    +0.000 A 
ATOM     15  C   UNL     1     -11.474   5.963 131.745  0.00  0.00    +0.000 A 
ATOM     16  C   UNL     1     -10.720   5.407 130.704  0.00  0.00    +0.000 A 
ATOM     17  C   UNL     1     -10.712   6.057 129.464  0.00  0.00    +0.000 A 
ATOM     18  C   UNL     1     -11.434   7.243 129.252  0.00  0.00    +0.000 A 
ATOM     19  H   UNL     1     -13.505   9.414 130.335  0.00  0.00    +0.000 HD
ENDBRANCH   1  16
BRANCH   6  20
ATOM     20  N   UNL     1      -5.073   5.254 131.376  0.00  0.00    +0.000 N 
ATOM     21  C   UNL     1      -5.633   6.268 130.603  0.00  0.00    +0.000 C 
ATOM     22  O   UNL     1      -6.664   6.897 130.806  0.00  0.00    +0.000 OA
ATOM     23  O   UNL     1      -4.933   6.529 129.473  0.00  0.00    +0.000 OA
ATOM     24  C   UNL     1      -3.715   7.156 129.805  0.00  0.00    +0.000 C 
ATOM     25  C   UNL     1      -2.984   6.366 130.845  0.00  0.00    +0.000 A 
ATOM     26  C   UNL     1      -1.631   6.625 131.064  0.00  0.00    +0.000 A 
ATOM     27  C   UNL     1      -0.945   5.920 132.041  0.00  0.00    +0.000 A 
ATOM     28  C   UNL     1      -1.612   4.967 132.806  0.00  0.00    +0.000 A 
ATOM     29  C   UNL     1      -2.968   4.704 132.594  0.00  0.00    +0.000 A 
ATOM     30  C   UNL     1      -3.669   5.397 131.606  0.00  0.00    +0.000 A 
ENDBRANCH   6  20
TORSDOF 2
ENDMDL
MODEL 3
REMARK VINA RESULT:      -8.7      7.182      9.534
REMARK  Name = CHEMBL287067
REMARK  3 active torsions:
REMARK  status: ('A' for Active; 'I' for Inactive)
REMARK    1  A    between atoms: C_1  and  C_2
REMARK    2  A    between atoms: C_8  and  C_9
REMARK    3  A    between atoms: C_14  and  N_15
REMARK                            x       y       z     vdW  Elec       q    Type
REMARK                         _______ _______ _______ _____ _____    ______ ____
ROOT
ATOM      1  C   UNL     1      -6.942   3.711 133.117  0.00  0.00    +0.000 C 
ATOM      2  O   UNL     1      -6.419   2.605 133.016  0.00  0.00    +0.000 OA
ATOM      3  N   UNL     1      -7.885   4.144 132.187  0.00  0.00    +0.000 N 
ATOM      4  C   UNL     1      -9.287   3.704 132.245  0.00  0.00    +0.000 C 
ATOM      5  C   UNL     1      -9.889   3.633 130.844  0.00  0.00    +0.000 C 
ATOM      6  C   UNL     1      -9.667   4.948 130.061  0.00  0.00    +0.000 C 
ATOM      7  C   UNL     1      -8.174   5.300 130.039  0.00  0.00    +0.000 C 
ATOM      8  C   UNL     1      -7.584   5.343 131.425  0.00  0.00    +0.000 C 
ENDROOT
BRANCH   1  16
ATOM      9  C   UNL     1      -2.560   7.146 134.402  0.00  0.00    +0.000 C 
ATOM     10  C   UNL     1      -3.764   7.115 135.276  0.00  0.00    +0.000 A 
ATOM     11  C   UNL     1      -3.999   7.880 136.399  0.00  0.00    +0.000 A 
ATOM     12  N   UNL     1      -5.212   7.514 136.925  0.00  0.00    +0.000 N 
ATOM     13  C   UNL     1      -5.789   6.529 136.157  0.00  0.00    +0.000 A 
ATOM     14  C   UNL     1      -7.005   5.844 136.292  0.00  0.00    +0.000 A 
ATOM     15  C   UNL     1      -7.344   4.906 135.298  0.00  0.00    +0.000 A 
ATOM     16  C   UNL     1      -6.508   4.664 134.201  0.00  0.00    +0.000 A 
ATOM     17  C   UNL     1      -5.300   5.366 134.115  0.00  0.00    +0.000 A 
ATOM     18  C   UNL     1      -4.916   6.291 135.101  0.00  0.00    +0.000 A 
ATOM     19  H   UNL     1      -5.631   7.920 137.749  0.00  0.00    +0.000 HD
ENDBRANCH   1  16
BRANCH   6  20
ATOM     20  N   UNL     1     -10.600   6.043 130.498  0.00  0.00    +0.000 N 
ATOM     21  C   UNL     1     -10.946   6.309 131.821  0.00  0.00    +0.000 C 
ATOM     22  O   UNL     1     -10.207   6.435 132.788  0.00  0.00    +0.000 OA
ATOM     23  O   UNL     1     -12.284   6.391 132.019  0.00  0.00    +0.000 OA
ATOM     24  C   UNL     1     -12.779   7.569 131.422  0.00  0.00    +0.000 C 
ATOM     25  C   UNL     1     -12.334   7.663 129.997  0.00  0.00    +0.000 A 
ATOM     26  C   UNL     1     -12.978   8.560 129.146  0.00  0.00    +0.000 A 
ATOM     27  C   UNL     1     -12.562   8.679 127.828  0.00  0.00    +0.000 A 
ATOM     28  C   UNL     1     -11.496   7.912 127.365  0.00  0.00    +0.000 A 
ATOM     29  C   UNL     1     -10.844   7.012 128.214  0.00  0.00    +0.000 A 
ATOM     30  C   UNL     1     -11.260   6.873 129.539  0.00  0.00    +0.000 A 
ENDBRANCH   6  20
TORSDOF 2
ENDMDL
MODEL 4
REMARK VINA RESULT:      -8.5      3.396      6.184
REMARK  Name = CHEMBL287067
REMARK  3 active torsions:
REMARK  status: ('A' for Active; 'I' for Inactive)
REMARK    1  A    between atoms: C_1  and  C_2
REMARK    2  A    between atoms: C_8  and  C_9
REMARK    3  A    between atoms: C_14  and  N_15
REMARK                            x       y       z     vdW  Elec       q    Type
REMARK                         _______ _______ _______ _____ _____    ______ ____
ROOT
ATOM      1  C   UNL     1      -6.753   3.982 127.724  0.00  0.00    +0.000 C 
ATOM      2  O   UNL     1      -5.806   4.758 127.801  0.00  0.00    +0.000 OA
ATOM      3  N   UNL     1      -6.831   3.048 126.691  0.00  0.00    +0.000 N 
ATOM      4  C   UNL     1      -6.070   1.790 126.728  0.00  0.00    +0.000 C 
ATOM      5  C   UNL     1      -5.691   1.348 125.317  0.00  0.00    +0.000 C 
ATOM      6  C   UNL     1      -6.921   1.320 124.380  0.00  0.00    +0.000 C 
ATOM      7  C   UNL     1      -7.624   2.683 124.396  0.00  0.00    +0.000 C 
ATOM      8  C   UNL     1      -7.971   3.123 125.795  0.00  0.00    +0.000 C 
ENDROOT
BRANCH   1  16
ATOM      9  C   UNL     1     -10.620   7.785 129.524  0.00  0.00    +0.000 C 
ATOM     10  C   UNL     1     -10.665   6.384 130.021  0.00  0.00    +0.000 A 
ATOM     11  C   UNL     1     -11.595   5.832 130.878  0.00  0.00    +0.000 A 
ATOM     12  N   UNL     1     -11.251   4.524 131.105  0.00  0.00    +0.000 N 
ATOM     13  C   UNL     1     -10.115   4.198 130.400  0.00  0.00    +0.000 A 
ATOM     14  C   UNL     1      -9.391   3.001 130.315  0.00  0.00    +0.000 A 
ATOM     15  C   UNL     1      -8.277   2.966 129.454  0.00  0.00    +0.000 A 
ATOM     16  C   UNL     1      -7.903   4.081 128.694  0.00  0.00    +0.000 A 
ATOM     17  C   UNL     1      -8.653   5.257 128.819  0.00  0.00    +0.000 A 
ATOM     18  C   UNL     1      -9.754   5.337 129.687  0.00  0.00    +0.000 A 
ATOM     19  H   UNL     1     -11.765   3.884 131.693  0.00  0.00    +0.000 HD
ENDBRANCH   1  16
BRANCH   6  20
ATOM     20  N   UNL     1      -7.796   0.120 124.612  0.00  0.00    +0.000 N 
ATOM     21  C   UNL     1      -9.130   0.177 125.009  0.00  0.00    +0.000 C 
ATOM     22  O   UNL     1     -10.035   0.852 124.536  0.00  0.00    +0.000 OA
ATOM     23  O   UNL     1      -9.404  -0.603 126.082  0.00  0.00    +0.000 OA
ATOM     24  C   UNL     1      -9.345  -1.962 125.707  0.00  0.00    +0.000 C 
ATOM     25  C   UNL     1      -8.054  -2.258 125.010  0.00  0.00    +0.000 A 
ATOM     26  C   UNL     1      -7.658  -3.587 124.861  0.00  0.00    +0.000 A 
ATOM     27  C   UNL     1      -6.477  -3.882 124.195  0.00  0.00    +0.000 A 
ATOM     28  C   UNL     1      -5.702  -2.852 123.668  0.00  0.00    +0.000 A 
ATOM     29  C   UNL     1      -6.095  -1.518 123.813  0.00  0.00    +0.000 A 
ATOM     30  C   UNL     1      -7.274  -1.206 124.491  0.00  0.00    +0.000 A 
ENDBRANCH   6  20
TORSDOF 2
ENDMDL
MODEL 5
REMARK VINA RESULT:      -8.4      2.951      5.400
REMARK  Name = CHEMBL287067
REMARK  3 active torsions:
REMARK  status: ('A' for Active; 'I' for Inactive)
REMARK    1  A    between atoms: C_1  and  C_2
REMARK    2  A    between atoms: C_8  and  C_9
REMARK    3  A    between atoms: C_14  and  N_15
REMARK                            x       y       z     vdW  Elec       q    Type
REMARK                         _______ _______ _______ _____ _____    ______ ____
ROOT
ATOM      1  C   UNL     1      -6.850   3.810 127.419  0.00  0.00    +0.000 C 
ATOM      2  O   UNL     1      -5.987   4.683 127.387  0.00  0.00    +0.000 OA
ATOM      3  N   UNL     1      -7.033   2.946 126.340  0.00  0.00    +0.000 N 
ATOM      4  C   UNL     1      -6.158   1.785 126.122  0.00  0.00    +0.000 C 
ATOM      5  C   UNL     1      -6.019   1.486 124.632  0.00  0.00    +0.000 C 
ATOM      6  C   UNL     1      -7.399   1.381 123.941  0.00  0.00    +0.000 C 
ATOM      7  C   UNL     1      -8.218   2.650 124.209  0.00  0.00    +0.000 C 
ATOM      8  C   UNL     1      -8.327   2.951 125.682  0.00  0.00    +0.000 C 
ENDROOT
BRANCH   1  16
ATOM      9  C   UNL     1      -8.620  -0.017 131.277  0.00  0.00    +0.000 C 
ATOM     10  C   UNL     1      -9.091   1.392 131.354  0.00  0.00    +0.000 A 
ATOM     11  C   UNL     1      -9.914   1.945 132.312  0.00  0.00    +0.000 A 
ATOM     12  N   UNL     1     -10.127   3.262 131.992  0.00  0.00    +0.000 N 
ATOM     13  C   UNL     1      -9.445   3.591 130.843  0.00  0.00    +0.000 A 
ATOM     14  C   UNL     1      -9.357   4.797 130.133  0.00  0.00    +0.000 A 
ATOM     15  C   UNL     1      -8.524   4.833 128.999  0.00  0.00    +0.000 A 
ATOM     16  C   UNL     1      -7.792   3.710 128.591  0.00  0.00    +0.000 A 
ATOM     17  C   UNL     1      -7.920   2.526 129.327  0.00  0.00    +0.000 A 
ATOM     18  C   UNL     1      -8.761   2.446 130.449  0.00  0.00    +0.000 A 
ATOM     19  H   UNL     1     -10.691   3.904 132.529  0.00  0.00    +0.000 HD
ENDBRANCH   1  16
BRANCH   6  20
ATOM     20  N   UNL     1      -8.088   0.075 124.224  0.00  0.00    +0.000 N 
ATOM     21  C   UNL     1      -9.421  -0.050 124.610  0.00  0.00    +0.000 C 
ATOM     22  O   UNL     1     -10.410   0.460 124.100  0.00  0.00    +0.000 OA
ATOM     23  O   UNL     1      -9.588  -0.813 125.717  0.00  0.00    +0.000 OA
ATOM     24  C   UNL     1      -9.323  -2.162 125.406  0.00  0.00    +0.000 C 
ATOM     25  C   UNL     1      -7.993  -2.294 124.732  0.00  0.00    +0.000 A 
ATOM     26  C   UNL     1      -7.401  -3.554 124.648  0.00  0.00    +0.000 A 
ATOM     27  C   UNL     1      -6.181  -3.699 124.004  0.00  0.00    +0.000 A 
ATOM     28  C   UNL     1      -5.561  -2.589 123.434  0.00  0.00    +0.000 A 
ATOM     29  C   UNL     1      -6.151  -1.324 123.513  0.00  0.00    +0.000 A 
ATOM     30  C   UNL     1      -7.372  -1.161 124.168  0.00  0.00    +0.000 A 
ENDBRANCH   6  20
TORSDOF 2
ENDMDL
MODEL 6
REMARK VINA RESULT:      -8.4      3.813      6.596
REMARK  Name = CHEMBL287067
REMARK  3 active torsions:
REMARK  status: ('A' for Active; 'I' for Inactive)
REMARK    1  A    between atoms: C_1  and  C_2
REMARK    2  A    between atoms: C_8  and  C_9
REMARK    3  A    between atoms: C_14  and  N_15
REMARK                            x       y       z     vdW  Elec       q    Type
REMARK                         _______ _______ _______ _____ _____    ______ ____
ROOT
ATOM      1  C   UNL     1      -7.371  -0.972 131.854  0.00  0.00    +0.000 C 
ATOM      2  O   UNL     1      -7.017  -1.762 132.724  0.00  0.00    +0.000 OA
ATOM      3  N   UNL     1      -7.069  -1.203 130.512  0.00  0.00    +0.000 N 
ATOM      4  C   UNL     1      -7.854  -2.138 129.693  0.00  0.00    +0.000 C 
ATOM      5  C   UNL     1      -6.976  -2.795 128.632  0.00  0.00    +0.000 C 
ATOM      6  C   UNL     1      -6.185  -1.745 127.817  0.00  0.00    +0.000 C 
ATOM      7  C   UNL     1      -5.384  -0.842 128.763  0.00  0.00    +0.000 C 
ATOM      8  C   UNL     1      -6.255  -0.218 129.822  0.00  0.00    +0.000 C 
ENDROOT
BRANCH   1  16
ATOM      9  C   UNL     1      -6.403   3.778 134.879  0.00  0.00    +0.000 C 
ATOM     10  C   UNL     1      -7.660   3.636 134.095  0.00  0.00    +0.000 A 
ATOM     11  C   UNL     1      -8.666   4.569 133.957  0.00  0.00    +0.000 A 
ATOM     12  N   UNL     1      -9.656   4.025 133.179  0.00  0.00    +0.000 N 
ATOM     13  C   UNL     1      -9.312   2.751 132.789  0.00  0.00    +0.000 A 
ATOM     14  C   UNL     1      -9.992   1.810 132.003  0.00  0.00    +0.000 A 
ATOM     15  C   UNL     1      -9.346   0.587 131.737  0.00  0.00    +0.000 A 
ATOM     16  C   UNL     1      -8.062   0.314 132.226  0.00  0.00    +0.000 A 
ATOM     17  C   UNL     1      -7.428   1.283 133.013  0.00  0.00    +0.000 A 
ATOM     18  C   UNL     1      -8.052   2.503 133.321  0.00  0.00    +0.000 A 
ATOM     19  H   UNL     1     -10.509   4.496 132.915  0.00  0.00    +0.000 HD
ENDBRANCH   1  16
BRANCH   6  20
ATOM     20  N   UNL     1      -7.039  -1.045 126.797  0.00  0.00    +0.000 N 
ATOM     21  C   UNL     1      -7.313   0.321 126.796  0.00  0.00    +0.000 C 
ATOM     22  O   UNL     1      -6.527   1.253 126.905  0.00  0.00    +0.000 OA
ATOM     23  O   UNL     1      -8.635   0.602 126.698  0.00  0.00    +0.000 OA
ATOM     24  C   UNL     1      -9.091   0.287 125.402  0.00  0.00    +0.000 C 
ATOM     25  C   UNL     1      -8.704  -1.112 125.035  0.00  0.00    +0.000 A 
ATOM     26  C   UNL     1      -9.336  -1.725 123.954  0.00  0.00    +0.000 A 
ATOM     27  C   UNL     1      -8.971  -3.011 123.583  0.00  0.00    +0.000 A 
ATOM     28  C   UNL     1      -7.969  -3.677 124.283  0.00  0.00    +0.000 A 
ATOM     29  C   UNL     1      -7.329  -3.066 125.367  0.00  0.00    +0.000 A 
ATOM     30  C   UNL     1      -7.694  -1.778 125.759  0.00  0.00    +0.000 A 
ENDBRANCH   6  20
TORSDOF 2
ENDMDL
MODEL 7
REMARK VINA RESULT:      -8.4      3.379      5.532
REMARK  Name = CHEMBL287067
REMARK  3 active torsions:
REMARK  status: ('A' for Active; 'I' for Inactive)
REMARK    1  A    between atoms: C_1  and  C_2
REMARK    2  A    between atoms: C_8  and  C_9
REMARK    3  A    between atoms: C_14  and  N_15
REMARK                            x       y       z     vdW  Elec       q    Type
REMARK                         _______ _______ _______ _____ _____    ______ ____
ROOT
ATOM      1  C   UNL     1      -6.617   2.549 129.410  0.00  0.00    +0.000 C 
ATOM      2  O   UNL     1      -5.648   2.378 130.144  0.00  0.00    +0.000 OA
ATOM      3  N   UNL     1      -6.536   2.279 128.044  0.00  0.00    +0.000 N 
ATOM      4  C   UNL     1      -6.641   0.910 127.519  0.00  0.00    +0.000 C 
ATOM      5  C   UNL     1      -5.805   0.753 126.252  0.00  0.00    +0.000 C 
ATOM      6  C   UNL     1      -6.126   1.856 125.218  0.00  0.00    +0.000 C 
ATOM      7  C   UNL     1      -5.962   3.240 125.859  0.00  0.00    +0.000 C 
ATOM      8  C   UNL     1      -6.771   3.377 127.123  0.00  0.00    +0.000 C 
ENDROOT
BRANCH   1  16
ATOM      9  C   UNL     1      -9.154   7.636 129.997  0.00  0.00    +0.000 C 
ATOM     10  C   UNL     1      -9.871   6.395 130.396  0.00  0.00    +0.000 A 
ATOM     11  C   UNL     1     -11.159   6.294 130.879  0.00  0.00    +0.000 A 
ATOM     12  N   UNL     1     -11.416   4.975 131.154  0.00  0.00    +0.000 N 
ATOM     13  C   UNL     1     -10.321   4.200 130.846  0.00  0.00    +0.000 A 
ATOM     14  C   UNL     1     -10.106   2.819 130.955  0.00  0.00    +0.000 A 
ATOM     15  C   UNL     1      -8.873   2.309 130.505  0.00  0.00    +0.000 A 
ATOM     16  C   UNL     1      -7.891   3.142 129.954  0.00  0.00    +0.000 A 
ATOM     17  C   UNL     1      -8.150   4.516 129.874  0.00  0.00    +0.000 A 
ATOM     18  C   UNL     1      -9.358   5.064 130.337  0.00  0.00    +0.000 A 
ATOM     19  H   UNL     1     -12.288   4.619 131.515  0.00  0.00    +0.000 HD
ENDBRANCH   1  16
BRANCH   6  20
ATOM     20  N   UNL     1      -7.421   1.610 124.495  0.00  0.00    +0.000 N 
ATOM     21  C   UNL     1      -8.458   2.534 124.390  0.00  0.00    +0.000 C 
ATOM     22  O   UNL     1      -8.396   3.711 124.057  0.00  0.00    +0.000 OA
ATOM     23  O   UNL     1      -9.663   2.030 124.749  0.00  0.00    +0.000 OA
ATOM     24  C   UNL     1     -10.097   1.104 123.779  0.00  0.00    +0.000 C 
ATOM     25  C   UNL     1      -9.031   0.088 123.509  0.00  0.00    +0.000 A 
ATOM     26  C   UNL     1      -9.374  -1.090 122.846  0.00  0.00    +0.000 A 
ATOM     27  C   UNL     1      -8.394  -2.031 122.565  0.00  0.00    +0.000 A 
ATOM     28  C   UNL     1      -7.073  -1.789 122.934  0.00  0.00    +0.000 A 
ATOM     29  C   UNL     1      -6.723  -0.608 123.597  0.00  0.00    +0.000 A 
ATOM     30  C   UNL     1      -7.700   0.342 123.897  0.00  0.00    +0.000 A 
ENDBRANCH   6  20
TORSDOF 2
ENDMDL
MODEL 8
REMARK VINA RESULT:      -8.2      3.391      5.047
REMARK  Name = CHEMBL287067
REMARK  3 active torsions:
REMARK  status: ('A' for Active; 'I' for Inactive)
REMARK    1  A    between atoms: C_1  and  C_2
REMARK    2  A    between atoms: C_8  and  C_9
REMARK    3  A    between atoms: C_14  and  N_15
REMARK                            x       y       z     vdW  Elec       q    Type
REMARK                         _______ _______ _______ _____ _____    ______ ____
ROOT
ATOM      1  C   UNL     1      -6.395  -2.065 130.007  0.00  0.00    +0.000 C 
ATOM      2  O   UNL     1      -6.316  -2.848 130.949  0.00  0.00    +0.000 OA
ATOM      3  N   UNL     1      -5.935  -0.754 130.125  0.00  0.00    +0.000 N 
ATOM      4  C   UNL     1      -4.507  -0.422 130.012  0.00  0.00    +0.000 C 
ATOM      5  C   UNL     1      -4.162   0.782 130.885  0.00  0.00    +0.000 C 
ATOM      6  C   UNL     1      -5.114   1.971 130.615  0.00  0.00    +0.000 C 
ATOM      7  C   UNL     1      -6.572   1.524 130.785  0.00  0.00    +0.000 C 
ATOM      8  C   UNL     1      -6.895   0.319 129.939  0.00  0.00    +0.000 C 
ENDROOT
BRANCH   1  16
ATOM      9  C   UNL     1      -5.569  -1.825 124.357  0.00  0.00    +0.000 C 
ATOM     10  C   UNL     1      -6.746  -2.547 124.908  0.00  0.00    +0.000 A 
ATOM     11  C   UNL     1      -7.702  -3.246 124.201  0.00  0.00    +0.000 A 
ATOM     12  N   UNL     1      -8.630  -3.730 125.089  0.00  0.00    +0.000 N 
ATOM     13  C   UNL     1      -8.292  -3.374 126.374  0.00  0.00    +0.000 A 
ATOM     14  C   UNL     1      -8.923  -3.630 127.600  0.00  0.00    +0.000 A 
ATOM     15  C   UNL     1      -8.295  -3.164 128.771  0.00  0.00    +0.000 A 
ATOM     16  C   UNL     1      -7.075  -2.477 128.727  0.00  0.00    +0.000 A 
ATOM     17  C   UNL     1      -6.489  -2.239 127.478  0.00  0.00    +0.000 A 
ATOM     18  C   UNL     1      -7.099  -2.665 126.287  0.00  0.00    +0.000 A 
ATOM     19  H   UNL     1      -9.436  -4.283 124.838  0.00  0.00    +0.000 HD
ENDBRANCH   1  16
BRANCH   6  20
ATOM     20  N   UNL     1      -4.786   2.695 129.339  0.00  0.00    +0.000 N 
ATOM     21  C   UNL     1      -5.273   2.345 128.082  0.00  0.00    +0.000 C 
ATOM     22  O   UNL     1      -6.429   2.110 127.754  0.00  0.00    +0.000 OA
ATOM     23  O   UNL     1      -4.302   2.223 127.146  0.00  0.00    +0.000 OA
ATOM     24  C   UNL     1      -3.783   3.496 126.833  0.00  0.00    +0.000 C 
ATOM     25  C   UNL     1      -3.386   4.222 128.080  0.00  0.00    +0.000 A 
ATOM     26  C   UNL     1      -2.556   5.338 127.975  0.00  0.00    +0.000 A 
ATOM     27  C   UNL     1      -2.199   6.039 129.118  0.00  0.00    +0.000 A 
ATOM     28  C   UNL     1      -2.680   5.633 130.360  0.00  0.00    +0.000 A 
ATOM     29  C   UNL     1      -3.514   4.516 130.471  0.00  0.00    +0.000 A 
ATOM     30  C   UNL     1      -3.873   3.794 129.331  0.00  0.00    +0.000 A 
ENDBRANCH   6  20
TORSDOF 2
ENDMDL
MODEL 9
REMARK VINA RESULT:      -7.9      3.974      6.837
REMARK  Name = CHEMBL287067
REMARK  3 active torsions:
REMARK  status: ('A' for Active; 'I' for Inactive)
REMARK    1  A    between atoms: C_1  and  C_2
REMARK    2  A    between atoms: C_8  and  C_9
REMARK    3  A    between atoms: C_14  and  N_15
REMARK                            x       y       z     vdW  Elec       q    Type
REMARK                         _______ _______ _______ _____ _____    ______ ____
ROOT
ATOM      1  C   UNL     1      -6.387  -2.474 129.840  0.00  0.00    +0.000 C 
ATOM      2  O   UNL     1      -5.603  -3.359 130.169  0.00  0.00    +0.000 OA
ATOM      3  N   UNL     1      -6.548  -1.331 130.622  0.00  0.00    +0.000 N 
ATOM      4  C   UNL     1      -5.590  -0.217 130.568  0.00  0.00    +0.000 C 
ATOM      5  C   UNL     1      -5.495   0.479 131.923  0.00  0.00    +0.000 C 
ATOM      6  C   UNL     1      -6.891   0.866 132.463  0.00  0.00    +0.000 C 
ATOM      7  C   UNL     1      -7.799  -0.369 132.503  0.00  0.00    +0.000 C 
ATOM      8  C   UNL     1      -7.866  -1.064 131.167  0.00  0.00    +0.000 C 
ENDROOT
BRANCH   1  16
ATOM      9  C   UNL     1      -6.936  -0.420 124.535  0.00  0.00    +0.000 C 
ATOM     10  C   UNL     1      -7.815  -1.526 125.001  0.00  0.00    +0.000 A 
ATOM     11  C   UNL     1      -8.775  -2.193 124.269  0.00  0.00    +0.000 A 
ATOM     12  N   UNL     1      -9.377  -3.117 125.086  0.00  0.00    +0.000 N 
ATOM     13  C   UNL     1      -8.819  -3.080 126.342  0.00  0.00    +0.000 A 
ATOM     14  C   UNL     1      -9.097  -3.821 127.500  0.00  0.00    +0.000 A 
ATOM     15  C   UNL     1      -8.306  -3.581 128.640  0.00  0.00    +0.000 A 
ATOM     16  C   UNL     1      -7.264  -2.645 128.625  0.00  0.00    +0.000 A 
ATOM     17  C   UNL     1      -7.030  -1.924 127.448  0.00  0.00    +0.000 A 
ATOM     18  C   UNL     1      -7.816  -2.118 126.300  0.00  0.00    +0.000 A 
ATOM     19  H   UNL     1     -10.114  -3.746 124.802  0.00  0.00    +0.000 HD
ENDBRANCH   1  16
BRANCH   6  20
ATOM     20  N   UNL     1      -7.455   2.083 131.784  0.00  0.00    +0.000 N 
ATOM     21  C   UNL     1      -7.717   2.178 130.418  0.00  0.00    +0.000 C 
ATOM     22  O   UNL     1      -8.325   1.391 129.705  0.00  0.00    +0.000 OA
ATOM     23  O   UNL     1      -7.176   3.280 129.845  0.00  0.00    +0.000 OA
ATOM     24  C   UNL     1      -7.868   4.429 130.281  0.00  0.00    +0.000 C 
ATOM     25  C   UNL     1      -7.949   4.457 131.775  0.00  0.00    +0.000 A 
ATOM     26  C   UNL     1      -8.289   5.651 132.410  0.00  0.00    +0.000 A 
ATOM     27  C   UNL     1      -8.395   5.689 133.792  0.00  0.00    +0.000 A 
ATOM     28  C   UNL     1      -8.174   4.534 134.537  0.00  0.00    +0.000 A 
ATOM     29  C   UNL     1      -7.835   3.333 133.907  0.00  0.00    +0.000 A 
ATOM     30  C   UNL     1      -7.713   3.282 132.517  0.00  0.00    +0.000 A 
ENDBRANCH   6  20
TORSDOF 2
ENDMDL
