MODEL 1
REMARK VINA RESULT:      -8.5      0.000      0.000
REMARK  Name = CHEMBL2113195
REMARK  16 active torsions:
REMARK  status: ('A' for Active; 'I' for Inactive)
REMARK    1  A    between atoms: C_1  and  O_2
REMARK    2  A    between atoms: O_2  and  C_3
REMARK    3  A    between atoms: C_3  and  C_5
REMARK    4  A    between atoms: N_15  and  N_16
REMARK    5  A    between atoms: C_17  and  C_19
REMARK    6  A    between atoms: C_19  and  N_20
REMARK    7  A    between atoms: N_20  and  C_21
REMARK    8  A    between atoms: N_20  and  S_28
REMARK    9  A    between atoms: S_28  and  C_31
REMARK   10  A    between atoms: C_34  and  O_35
REMARK   11  A    between atoms: O_35  and  C_36
REMARK   12  A    between atoms: C_36  and  C_37
REMARK   13  A    between atoms: C_37  and  C_38
REMARK   14  A    between atoms: C_38  and  N_39
REMARK   15  A    between atoms: N_39  and  C_40
REMARK   16  A    between atoms: N_39  and  C_41
REMARK                            x       y       z     vdW  Elec       q    Type
REMARK                         _______ _______ _______ _____ _____    ______ ____
ROOT
ATOM      1  N   UNL     1     -10.292   5.078 131.226  0.00  0.00    +0.000 N 
ENDROOT
BRANCH   1   2
ATOM      2  C   UNL     1     -10.926   6.277 130.760  0.00  0.00    +0.000 A 
ATOM      3  C   UNL     1     -12.136   6.706 131.310  0.00  0.00    +0.000 A 
ATOM      4  C   UNL     1     -12.866   7.725 130.689  0.00  0.00    +0.000 A 
ATOM      5  C   UNL     1     -12.308   8.432 129.628  0.00  0.00    +0.000 A 
ATOM      6 CL   UNL     1     -13.178   9.719 128.898  0.00  0.00    +0.000 Cl
ATOM      7  C   UNL     1     -11.062   8.077 129.132  0.00  0.00    +0.000 A 
ATOM      8  C   UNL     1     -10.426   6.949 129.643  0.00  0.00    +0.000 A 
ENDBRANCH   1   2
BRANCH   1   9
ATOM      9  S   UNL     1      -9.135   5.142 132.479  0.00  0.00    +0.000 S 
ATOM     10  O   UNL     1      -9.470   6.282 133.312  0.00  0.00    +0.000 OA
ATOM     11  O   UNL     1      -9.050   3.823 133.076  0.00  0.00    +0.000 OA
BRANCH   9  12
ATOM     12  C   UNL     1      -7.518   5.493 131.758  0.00  0.00    +0.000 A 
ATOM     13  C   UNL     1      -7.182   6.785 131.319  0.00  0.00    +0.000 A 
ATOM     14  C   UNL     1      -5.928   7.027 130.735  0.00  0.00    +0.000 A 
ATOM     15  C   UNL     1      -5.007   5.987 130.582  0.00  0.00    +0.000 A 
ATOM     16  C   UNL     1      -5.370   4.697 130.974  0.00  0.00    +0.000 A 
ATOM     17  C   UNL     1      -6.617   4.447 131.562  0.00  0.00    +0.000 A 
BRANCH  15  18
ATOM     18  O   UNL     1      -3.792   6.337 130.052  0.00  0.00    +0.000 OA
BRANCH  18  19
ATOM     19  C   UNL     1      -3.761   6.551 128.635  0.00  0.00    +0.000 C 
BRANCH  19  20
ATOM     20  C   UNL     1      -2.879   5.490 127.997  0.00  0.00    +0.000 C 
BRANCH  20  21
ATOM     21  C   UNL     1      -3.678   4.611 127.027  0.00  0.00    +0.000 C 
BRANCH  21  22
ATOM     22  N   UNL     1      -3.278   3.195 127.092  0.00  0.00    +0.000 NA
ATOM     23  C   UNL     1      -1.840   3.034 126.856  0.00  0.00    +0.000 C 
ATOM     24  C   UNL     1      -3.616   2.636 128.404  0.00  0.00    +0.000 C 
ENDBRANCH  21  22
ENDBRANCH  20  21
ENDBRANCH  19  20
ENDBRANCH  18  19
ENDBRANCH  15  18
ENDBRANCH   9  12
ENDBRANCH   1   9
BRANCH   1  25
ATOM     25  C   UNL     1     -10.624   3.724 130.616  0.00  0.00    +0.000 C 
BRANCH  25  27
ATOM     26  N   UNL     1      -8.912   1.837 130.641  0.00  0.00    +0.000 N 
ATOM     27  C   UNL     1      -9.449   2.931 129.969  0.00  0.00    +0.000 C 
ATOM     28  O   UNL     1      -8.960   3.242 128.878  0.00  0.00    +0.000 OA
ATOM     29  H   UNL     1      -8.964   1.722 131.655  0.00  0.00    +0.000 HD
BRANCH  26  40
ATOM     30  C   UNL     1      -5.766  -3.204 130.255  0.00  0.00    +0.000 A 
ATOM     31  C   UNL     1      -4.956  -3.081 129.111  0.00  0.00    +0.000 A 
ATOM     32  C   UNL     1      -5.071  -1.965 128.250  0.00  0.00    +0.000 A 
ATOM     33  C   UNL     1      -5.964  -0.923 128.536  0.00  0.00    +0.000 A 
ATOM     34  C   UNL     1      -6.722  -1.038 129.691  0.00  0.00    +0.000 A 
ATOM     35  C   UNL     1      -6.643  -2.162 130.526  0.00  0.00    +0.000 A 
ATOM     36  N   UNL     1      -7.503  -2.018 131.619  0.00  0.00    +0.000 N 
ATOM     37  C   UNL     1      -8.158  -0.813 131.585  0.00  0.00    +0.000 C 
ATOM     38  O   UNL     1      -8.963  -0.339 132.368  0.00  0.00    +0.000 OA
ATOM     39  C   UNL     1      -7.676  -0.112 130.329  0.00  0.00    +0.000 C 
ATOM     40  N   UNL     1      -7.997   1.071 129.916  0.00  0.00    +0.000 NA
ATOM     41  H   UNL     1      -7.632  -2.709 132.345  0.00  0.00    +0.000 HD
BRANCH  30  42
ATOM     42  C   UNL     1      -5.565  -4.361 131.162  0.00  0.00    +0.000 C 
ATOM     43  O   UNL     1      -5.623  -5.517 130.776  0.00  0.00    +0.000 OA
BRANCH  42  45
ATOM     44  C   UNL     1      -3.988  -3.582 132.723  0.00  0.00    +0.000 C 
ATOM     45  O   UNL     1      -5.349  -3.958 132.442  0.00  0.00    +0.000 OA
ENDBRANCH  42  45
ENDBRANCH  30  42
ENDBRANCH  26  40
ENDBRANCH  25  27
ENDBRANCH   1  25
TORSDOF 13
ENDMDL
MODEL 2
REMARK VINA RESULT:      -8.3      4.565      8.581
REMARK  Name = CHEMBL2113195
REMARK  16 active torsions:
REMARK  status: ('A' for Active; 'I' for Inactive)
REMARK    1  A    between atoms: C_1  and  O_2
REMARK    2  A    between atoms: O_2  and  C_3
REMARK    3  A    between atoms: C_3  and  C_5
REMARK    4  A    between atoms: N_15  and  N_16
REMARK    5  A    between atoms: C_17  and  C_19
REMARK    6  A    between atoms: C_19  and  N_20
REMARK    7  A    between atoms: N_20  and  C_21
REMARK    8  A    between atoms: N_20  and  S_28
REMARK    9  A    between atoms: S_28  and  C_31
REMARK   10  A    between atoms: C_34  and  O_35
REMARK   11  A    between atoms: O_35  and  C_36
REMARK   12  A    between atoms: C_36  and  C_37
REMARK   13  A    between atoms: C_37  and  C_38
REMARK   14  A    between atoms: C_38  and  N_39
REMARK   15  A    between atoms: N_39  and  C_40
REMARK   16  A    between atoms: N_39  and  C_41
REMARK                            x       y       z     vdW  Elec       q    Type
REMARK                         _______ _______ _______ _____ _____    ______ ____
ROOT
ATOM      1  N   UNL     1      -7.319   1.204 124.287  0.00  0.00    +0.000 N 
ENDROOT
BRANCH   1   2
ATOM      2  C   UNL     1      -6.770  -0.119 124.225  0.00  0.00    +0.000 A 
ATOM      3  C   UNL     1      -6.051  -0.645 125.301  0.00  0.00    +0.000 A 
ATOM      4  C   UNL     1      -5.315  -1.823 125.141  0.00  0.00    +0.000 A 
ATOM      5  C   UNL     1      -5.435  -2.566 123.971  0.00  0.00    +0.000 A 
ATOM      6 CL   UNL     1      -4.575  -4.041 123.792  0.00  0.00    +0.000 Cl
ATOM      7  C   UNL     1      -6.222  -2.100 122.927  0.00  0.00    +0.000 A 
ATOM      8  C   UNL     1      -6.807  -0.841 123.031  0.00  0.00    +0.000 A 
ENDBRANCH   1   2
BRANCH   1   9
ATOM      9  S   UNL     1      -8.778   1.498 125.121  0.00  0.00    +0.000 S 
ATOM     10  O   UNL     1      -9.399   2.655 124.502  0.00  0.00    +0.000 OA
ATOM     11  O   UNL     1      -9.511   0.248 125.191  0.00  0.00    +0.000 OA
BRANCH   9  12
ATOM     12  C   UNL     1      -8.391   1.972 126.818  0.00  0.00    +0.000 A 
ATOM     13  C   UNL     1      -8.435   1.034 127.864  0.00  0.00    +0.000 A 
ATOM     14  C   UNL     1      -8.158   1.435 129.182  0.00  0.00    +0.000 A 
ATOM     15  C   UNL     1      -7.843   2.766 129.465  0.00  0.00    +0.000 A 
ATOM     16  C   UNL     1      -7.852   3.700 128.427  0.00  0.00    +0.000 A 
ATOM     17  C   UNL     1      -8.123   3.309 127.109  0.00  0.00    +0.000 A 
BRANCH  15  18
ATOM     18  O   UNL     1      -7.536   3.043 130.772  0.00  0.00    +0.000 OA
BRANCH  18  19
ATOM     19  C   UNL     1      -6.990   4.343 131.029  0.00  0.00    +0.000 C 
BRANCH  19  20
ATOM     20  C   UNL     1      -7.956   5.116 131.913  0.00  0.00    +0.000 C 
BRANCH  20  21
ATOM     21  C   UNL     1      -8.316   6.471 131.292  0.00  0.00    +0.000 C 
BRANCH  21  22
ATOM     22  N   UNL     1      -9.770   6.655 131.149  0.00  0.00    +0.000 NA
ATOM     23  C   UNL     1     -10.275   6.007 129.936  0.00  0.00    +0.000 C 
ATOM     24  C   UNL     1     -10.465   6.102 132.316  0.00  0.00    +0.000 C 
ENDBRANCH  21  22
ENDBRANCH  20  21
ENDBRANCH  19  20
ENDBRANCH  18  19
ENDBRANCH  15  18
ENDBRANCH   9  12
ENDBRANCH   1   9
BRANCH   1  25
ATOM     25  C   UNL     1      -6.626   2.378 123.609  0.00  0.00    +0.000 C 
BRANCH  25  27
ATOM     26  N   UNL     1      -5.053   2.997 125.515  0.00  0.00    +0.000 N 
ATOM     27  C   UNL     1      -5.942   3.428 124.534  0.00  0.00    +0.000 C 
ATOM     28  O   UNL     1      -6.165   4.639 124.443  0.00  0.00    +0.000 OA
ATOM     29  H   UNL     1      -5.079   2.059 125.921  0.00  0.00    +0.000 HD
BRANCH  26  40
ATOM     30  C   UNL     1      -2.631   4.942 130.595  0.00  0.00    +0.000 A 
ATOM     31  C   UNL     1      -2.139   6.234 130.332  0.00  0.00    +0.000 A 
ATOM     32  C   UNL     1      -2.176   6.779 129.028  0.00  0.00    +0.000 A 
ATOM     33  C   UNL     1      -2.749   6.067 127.965  0.00  0.00    +0.000 A 
ATOM     34  C   UNL     1      -3.271   4.815 128.250  0.00  0.00    +0.000 A 
ATOM     35  C   UNL     1      -3.198   4.251 129.532  0.00  0.00    +0.000 A 
ATOM     36  N   UNL     1      -3.804   2.992 129.545  0.00  0.00    +0.000 N 
ATOM     37  C   UNL     1      -4.323   2.672 128.316  0.00  0.00    +0.000 C 
ATOM     38  O   UNL     1      -4.928   1.677 127.958  0.00  0.00    +0.000 OA
ATOM     39  C   UNL     1      -4.006   3.850 127.412  0.00  0.00    +0.000 C 
ATOM     40  N   UNL     1      -4.343   4.002 126.173  0.00  0.00    +0.000 NA
ATOM     41  H   UNL     1      -3.856   2.386 130.353  0.00  0.00    +0.000 HD
BRANCH  30  42
ATOM     42  C   UNL     1      -2.627   4.437 131.991  0.00  0.00    +0.000 C 
ATOM     43  O   UNL     1      -1.602   4.301 132.637  0.00  0.00    +0.000 OA
BRANCH  42  45
ATOM     44  C   UNL     1      -4.298   4.834 133.597  0.00  0.00    +0.000 C 
ATOM     45  O   UNL     1      -3.883   4.131 132.412  0.00  0.00    +0.000 OA
ENDBRANCH  42  45
ENDBRANCH  30  42
ENDBRANCH  26  40
ENDBRANCH  25  27
ENDBRANCH   1  25
TORSDOF 13
ENDMDL
MODEL 3
REMARK VINA RESULT:      -8.2      3.492      6.724
REMARK  Name = CHEMBL2113195
REMARK  16 active torsions:
REMARK  status: ('A' for Active; 'I' for Inactive)
REMARK    1  A    between atoms: C_1  and  O_2
REMARK    2  A    between atoms: O_2  and  C_3
REMARK    3  A    between atoms: C_3  and  C_5
REMARK    4  A    between atoms: N_15  and  N_16
REMARK    5  A    between atoms: C_17  and  C_19
REMARK    6  A    between atoms: C_19  and  N_20
REMARK    7  A    between atoms: N_20  and  C_21
REMARK    8  A    between atoms: N_20  and  S_28
REMARK    9  A    between atoms: S_28  and  C_31
REMARK   10  A    between atoms: C_34  and  O_35
REMARK   11  A    between atoms: O_35  and  C_36
REMARK   12  A    between atoms: C_36  and  C_37
REMARK   13  A    between atoms: C_37  and  C_38
REMARK   14  A    between atoms: C_38  and  N_39
REMARK   15  A    between atoms: N_39  and  C_40
REMARK   16  A    between atoms: N_39  and  C_41
REMARK                            x       y       z     vdW  Elec       q    Type
REMARK                         _______ _______ _______ _____ _____    ______ ____
ROOT
ATOM      1  N   UNL     1      -4.723   4.350 129.551  0.00  0.00    +0.000 N 
ENDROOT
BRANCH   1   2
ATOM      2  C   UNL     1      -4.871   4.388 128.125  0.00  0.00    +0.000 A 
ATOM      3  C   UNL     1      -6.116   4.635 127.542  0.00  0.00    +0.000 A 
ATOM      4  C   UNL     1      -6.302   4.426 126.172  0.00  0.00    +0.000 A 
ATOM      5  C   UNL     1      -5.210   4.143 125.358  0.00  0.00    +0.000 A 
ATOM      6 CL   UNL     1      -5.425   3.939 123.666  0.00  0.00    +0.000 Cl
ATOM      7  C   UNL     1      -3.948   3.988 125.913  0.00  0.00    +0.000 A 
ATOM      8  C   UNL     1      -3.808   4.023 127.298  0.00  0.00    +0.000 A 
ENDBRANCH   1   2
BRANCH   1   9
ATOM      9  S   UNL     1      -5.198   5.681 130.506  0.00  0.00    +0.000 S 
ATOM     10  O   UNL     1      -4.627   5.485 131.826  0.00  0.00    +0.000 OA
ATOM     11  O   UNL     1      -4.891   6.892 129.770  0.00  0.00    +0.000 OA
BRANCH   9  12
ATOM     12  C   UNL     1      -6.990   5.638 130.713  0.00  0.00    +0.000 A 
ATOM     13  C   UNL     1      -7.708   4.436 130.591  0.00  0.00    +0.000 A 
ATOM     14  C   UNL     1      -9.106   4.433 130.728  0.00  0.00    +0.000 A 
ATOM     15  C   UNL     1      -9.795   5.622 130.981  0.00  0.00    +0.000 A 
ATOM     16  C   UNL     1      -9.077   6.818 131.050  0.00  0.00    +0.000 A 
ATOM     17  C   UNL     1      -7.683   6.831 130.919  0.00  0.00    +0.000 A 
BRANCH  15  18
ATOM     18  O   UNL     1     -11.149   5.504 131.152  0.00  0.00    +0.000 OA
BRANCH  18  19
ATOM     19  C   UNL     1     -11.853   6.714 131.459  0.00  0.00    +0.000 C 
BRANCH  19  20
ATOM     20  C   UNL     1     -12.722   7.094 130.271  0.00  0.00    +0.000 C 
BRANCH  20  21
ATOM     21  C   UNL     1     -12.396   8.505 129.771  0.00  0.00    +0.000 C 
BRANCH  21  22
ATOM     22  N   UNL     1     -12.108   8.537 128.326  0.00  0.00    +0.000 NA
ATOM     23  C   UNL     1     -10.672   8.411 128.063  0.00  0.00    +0.000 C 
ATOM     24  C   UNL     1     -12.820   7.450 127.647  0.00  0.00    +0.000 C 
ENDBRANCH  21  22
ENDBRANCH  20  21
ENDBRANCH  19  20
ENDBRANCH  18  19
ENDBRANCH  15  18
ENDBRANCH   9  12
ENDBRANCH   1   9
BRANCH   1  25
ATOM     25  C   UNL     1      -4.135   3.132 130.250  0.00  0.00    +0.000 C 
BRANCH  25  27
ATOM     26  N   UNL     1      -5.892   1.533 129.331  0.00  0.00    +0.000 N 
ATOM     27  C   UNL     1      -5.052   1.881 130.385  0.00  0.00    +0.000 C 
ATOM     28  O   UNL     1      -5.077   1.182 131.404  0.00  0.00    +0.000 OA
ATOM     29  H   UNL     1      -6.228   2.204 128.637  0.00  0.00    +0.000 HD
BRANCH  26  40
ATOM     30  C   UNL     1      -8.385  -3.129 126.591  0.00  0.00    +0.000 A 
ATOM     31  C   UNL     1      -8.914  -3.950 127.604  0.00  0.00    +0.000 A 
ATOM     32  C   UNL     1      -8.704  -3.652 128.971  0.00  0.00    +0.000 A 
ATOM     33  C   UNL     1      -8.002  -2.503 129.358  0.00  0.00    +0.000 A 
ATOM     34  C   UNL     1      -7.527  -1.680 128.349  0.00  0.00    +0.000 A 
ATOM     35  C   UNL     1      -7.695  -1.993 126.992  0.00  0.00    +0.000 A 
ATOM     36  N   UNL     1      -7.131  -0.997 126.190  0.00  0.00    +0.000 N 
ATOM     37  C   UNL     1      -6.599   0.016 126.948  0.00  0.00    +0.000 C 
ATOM     38  O   UNL     1      -6.046   1.045 126.600  0.00  0.00    +0.000 OA
ATOM     39  C   UNL     1      -6.837  -0.378 128.394  0.00  0.00    +0.000 C 
ATOM     40  N   UNL     1      -6.539   0.302 129.452  0.00  0.00    +0.000 NA
ATOM     41  H   UNL     1      -7.112  -1.014 125.179  0.00  0.00    +0.000 HD
BRANCH  30  42
ATOM     42  C   UNL     1      -8.685  -3.447 125.173  0.00  0.00    +0.000 C 
ATOM     43  O   UNL     1      -8.243  -4.437 124.614  0.00  0.00    +0.000 OA
BRANCH  42  45
ATOM     44  C   UNL     1      -9.055  -2.100 123.281  0.00  0.00    +0.000 C 
ATOM     45  O   UNL     1      -9.467  -2.492 124.604  0.00  0.00    +0.000 OA
ENDBRANCH  42  45
ENDBRANCH  30  42
ENDBRANCH  26  40
ENDBRANCH  25  27
ENDBRANCH   1  25
TORSDOF 13
ENDMDL
MODEL 4
REMARK VINA RESULT:      -8.1      4.501     10.046
REMARK  Name = CHEMBL2113195
REMARK  16 active torsions:
REMARK  status: ('A' for Active; 'I' for Inactive)
REMARK    1  A    between atoms: C_1  and  O_2
REMARK    2  A    between atoms: O_2  and  C_3
REMARK    3  A    between atoms: C_3  and  C_5
REMARK    4  A    between atoms: N_15  and  N_16
REMARK    5  A    between atoms: C_17  and  C_19
REMARK    6  A    between atoms: C_19  and  N_20
REMARK    7  A    between atoms: N_20  and  C_21
REMARK    8  A    between atoms: N_20  and  S_28
REMARK    9  A    between atoms: S_28  and  C_31
REMARK   10  A    between atoms: C_34  and  O_35
REMARK   11  A    between atoms: O_35  and  C_36
REMARK   12  A    between atoms: C_36  and  C_37
REMARK   13  A    between atoms: C_37  and  C_38
REMARK   14  A    between atoms: C_38  and  N_39
REMARK   15  A    between atoms: N_39  and  C_40
REMARK   16  A    between atoms: N_39  and  C_41
REMARK                            x       y       z     vdW  Elec       q    Type
REMARK                         _______ _______ _______ _____ _____    ______ ____
ROOT
ATOM      1  N   UNL     1      -4.886  -2.621 132.120  0.00  0.00    +0.000 N 
ENDROOT
BRANCH   1   2
ATOM      2  C   UNL     1      -3.783  -2.357 132.997  0.00  0.00    +0.000 A 
ATOM      3  C   UNL     1      -3.021  -1.194 132.857  0.00  0.00    +0.000 A 
ATOM      4  C   UNL     1      -1.811  -1.063 133.544  0.00  0.00    +0.000 A 
ATOM      5  C   UNL     1      -1.447  -2.008 134.499  0.00  0.00    +0.000 A 
ATOM      6 CL   UNL     1       0.012  -1.822 135.384  0.00  0.00    +0.000 Cl
ATOM      7  C   UNL     1      -2.245  -3.122 134.716  0.00  0.00    +0.000 A 
ATOM      8  C   UNL     1      -3.354  -3.330 133.901  0.00  0.00    +0.000 A 
ENDBRANCH   1   2
BRANCH   1   9
ATOM      9  S   UNL     1      -4.690  -3.643 130.767  0.00  0.00    +0.000 S 
ATOM     10  O   UNL     1      -3.370  -3.381 130.222  0.00  0.00    +0.000 OA
ATOM     11  O   UNL     1      -5.040  -4.991 131.170  0.00  0.00    +0.000 OA
BRANCH   9  12
ATOM     12  C   UNL     1      -5.873  -3.154 129.495  0.00  0.00    +0.000 A 
ATOM     13  C   UNL     1      -5.545  -2.191 128.526  0.00  0.00    +0.000 A 
ATOM     14  C   UNL     1      -6.494  -1.806 127.564  0.00  0.00    +0.000 A 
ATOM     15  C   UNL     1      -7.771  -2.373 127.564  0.00  0.00    +0.000 A 
ATOM     16  C   UNL     1      -8.104  -3.292 128.562  0.00  0.00    +0.000 A 
ATOM     17  C   UNL     1      -7.163  -3.684 129.522  0.00  0.00    +0.000 A 
BRANCH  15  18
ATOM     18  O   UNL     1      -8.604  -1.972 126.553  0.00  0.00    +0.000 OA
BRANCH  18  19
ATOM     19  C   UNL     1      -9.358  -3.006 125.909  0.00  0.00    +0.000 C 
BRANCH  19  20
ATOM     20  C   UNL     1      -8.570  -3.521 124.716  0.00  0.00    +0.000 C 
BRANCH  20  21
ATOM     21  C   UNL     1      -9.228  -3.108 123.394  0.00  0.00    +0.000 C 
BRANCH  21  22
ATOM     22  N   UNL     1      -8.497  -2.023 122.717  0.00  0.00    +0.000 NA
ATOM     23  C   UNL     1      -9.081  -0.714 123.020  0.00  0.00    +0.000 C 
ATOM     24  C   UNL     1      -7.090  -2.030 123.131  0.00  0.00    +0.000 C 
ENDBRANCH  21  22
ENDBRANCH  20  21
ENDBRANCH  19  20
ENDBRANCH  18  19
ENDBRANCH  15  18
ENDBRANCH   9  12
ENDBRANCH   1   9
BRANCH   1  25
ATOM     25  C   UNL     1      -6.253  -1.998 132.362  0.00  0.00    +0.000 C 
BRANCH  25  27
ATOM     26  N   UNL     1      -7.287   0.269 132.894  0.00  0.00    +0.000 N 
ATOM     27  C   UNL     1      -6.384  -0.464 132.128  0.00  0.00    +0.000 C 
ATOM     28  O   UNL     1      -5.724   0.137 131.275  0.00  0.00    +0.000 OA
ATOM     29  H   UNL     1      -8.114  -0.144 133.332  0.00  0.00    +0.000 HD
BRANCH  26  40
ATOM     30  C   UNL     1     -10.019   5.325 131.337  0.00  0.00    +0.000 A 
ATOM     31  C   UNL     1      -9.058   6.347 131.449  0.00  0.00    +0.000 A 
ATOM     32  C   UNL     1      -7.768   6.085 131.966  0.00  0.00    +0.000 A 
ATOM     33  C   UNL     1      -7.391   4.787 132.338  0.00  0.00    +0.000 A 
ATOM     34  C   UNL     1      -8.334   3.783 132.178  0.00  0.00    +0.000 A 
ATOM     35  C   UNL     1      -9.628   4.045 131.706  0.00  0.00    +0.000 A 
ATOM     36  N   UNL     1     -10.368   2.861 131.634  0.00  0.00    +0.000 N 
ATOM     37  C   UNL     1      -9.618   1.777 132.014  0.00  0.00    +0.000 C 
ATOM     38  O   UNL     1      -9.918   0.597 132.063  0.00  0.00    +0.000 OA
ATOM     39  C   UNL     1      -8.251   2.325 132.382  0.00  0.00    +0.000 C 
ATOM     40  N   UNL     1      -7.211   1.656 132.757  0.00  0.00    +0.000 NA
ATOM     41  H   UNL     1     -11.334   2.803 131.340  0.00  0.00    +0.000 HD
BRANCH  30  42
ATOM     42  C   UNL     1     -11.337   5.636 130.729  0.00  0.00    +0.000 C 
ATOM     43  O   UNL     1     -11.732   5.101 129.706  0.00  0.00    +0.000 OA
BRANCH  42  45
ATOM     44  C   UNL     1     -12.702   7.548 130.624  0.00  0.00    +0.000 C 
ATOM     45  O   UNL     1     -11.997   6.590 131.436  0.00  0.00    +0.000 OA
ENDBRANCH  42  45
ENDBRANCH  30  42
ENDBRANCH  26  40
ENDBRANCH  25  27
ENDBRANCH   1  25
TORSDOF 13
ENDMDL
MODEL 5
REMARK VINA RESULT:      -8.1      3.322      6.476
REMARK  Name = CHEMBL2113195
REMARK  16 active torsions:
REMARK  status: ('A' for Active; 'I' for Inactive)
REMARK    1  A    between atoms: C_1  and  O_2
REMARK    2  A    between atoms: O_2  and  C_3
REMARK    3  A    between atoms: C_3  and  C_5
REMARK    4  A    between atoms: N_15  and  N_16
REMARK    5  A    between atoms: C_17  and  C_19
REMARK    6  A    between atoms: C_19  and  N_20
REMARK    7  A    between atoms: N_20  and  C_21
REMARK    8  A    between atoms: N_20  and  S_28
REMARK    9  A    between atoms: S_28  and  C_31
REMARK   10  A    between atoms: C_34  and  O_35
REMARK   11  A    between atoms: O_35  and  C_36
REMARK   12  A    between atoms: C_36  and  C_37
REMARK   13  A    between atoms: C_37  and  C_38
REMARK   14  A    between atoms: C_38  and  N_39
REMARK   15  A    between atoms: N_39  and  C_40
REMARK   16  A    between atoms: N_39  and  C_41
REMARK                            x       y       z     vdW  Elec       q    Type
REMARK                         _______ _______ _______ _____ _____    ______ ____
ROOT
ATOM      1  N   UNL     1      -5.984   3.354 132.502  0.00  0.00    +0.000 N 
ENDROOT
BRANCH   1   2
ATOM      2  C   UNL     1      -5.612   4.473 131.686  0.00  0.00    +0.000 A 
ATOM      3  C   UNL     1      -5.359   4.310 130.322  0.00  0.00    +0.000 A 
ATOM      4  C   UNL     1      -4.762   5.342 129.592  0.00  0.00    +0.000 A 
ATOM      5  C   UNL     1      -4.578   6.591 130.176  0.00  0.00    +0.000 A 
ATOM      6 CL   UNL     1      -3.895   7.877 129.267  0.00  0.00    +0.000 Cl
ATOM      7  C   UNL     1      -4.914   6.794 131.507  0.00  0.00    +0.000 A 
ATOM      8  C   UNL     1      -5.341   5.711 132.270  0.00  0.00    +0.000 A 
ENDBRANCH   1   2
BRANCH   1   9
ATOM      9  S   UNL     1      -7.389   3.418 133.469  0.00  0.00    +0.000 S 
ATOM     10  O   UNL     1      -7.786   2.048 133.736  0.00  0.00    +0.000 OA
ATOM     11  O   UNL     1      -7.127   4.313 134.579  0.00  0.00    +0.000 OA
BRANCH   9  12
ATOM     12  C   UNL     1      -8.724   4.157 132.505  0.00  0.00    +0.000 A 
ATOM     13  C   UNL     1      -9.271   5.403 132.855  0.00  0.00    +0.000 A 
ATOM     14  C   UNL     1     -10.329   5.944 132.107  0.00  0.00    +0.000 A 
ATOM     15  C   UNL     1     -10.849   5.249 131.013  0.00  0.00    +0.000 A 
ATOM     16  C   UNL     1     -10.333   3.989 130.704  0.00  0.00    +0.000 A 
ATOM     17  C   UNL     1      -9.275   3.443 131.442  0.00  0.00    +0.000 A 
BRANCH  15  18
ATOM     18  O   UNL     1     -11.842   5.886 130.316  0.00  0.00    +0.000 OA
BRANCH  18  19
ATOM     19  C   UNL     1     -12.420   7.034 130.949  0.00  0.00    +0.000 C 
BRANCH  19  20
ATOM     20  C   UNL     1     -13.262   7.787 129.931  0.00  0.00    +0.000 C 
BRANCH  20  21
ATOM     21  C   UNL     1     -12.463   8.919 129.276  0.00  0.00    +0.000 C 
BRANCH  21  22
ATOM     22  N   UNL     1     -11.982   8.562 127.930  0.00  0.00    +0.000 NA
ATOM     23  C   UNL     1     -10.561   8.205 127.946  0.00  0.00    +0.000 C 
ATOM     24  C   UNL     1     -12.757   7.434 127.402  0.00  0.00    +0.000 C 
ENDBRANCH  21  22
ENDBRANCH  20  21
ENDBRANCH  19  20
ENDBRANCH  18  19
ENDBRANCH  15  18
ENDBRANCH   9  12
ENDBRANCH   1   9
BRANCH   1  25
ATOM     25  C   UNL     1      -5.140   2.088 132.537  0.00  0.00    +0.000 C 
BRANCH  25  27
ATOM     26  N   UNL     1      -6.840   0.820 131.125  0.00  0.00    +0.000 N 
ATOM     27  C   UNL     1      -5.824   0.767 132.075  0.00  0.00    +0.000 C 
ATOM     28  O   UNL     1      -5.510  -0.338 132.529  0.00  0.00    +0.000 OA
ATOM     29  H   UNL     1      -7.418   1.649 130.969  0.00  0.00    +0.000 HD
BRANCH  26  40
ATOM     30  C   UNL     1      -8.319  -2.442 126.369  0.00  0.00    +0.000 A 
ATOM     31  C   UNL     1      -8.758  -3.686 126.860  0.00  0.00    +0.000 A 
ATOM     32  C   UNL     1      -8.685  -3.995 128.238  0.00  0.00    +0.000 A 
ATOM     33  C   UNL     1      -8.216  -3.052 129.164  0.00  0.00    +0.000 A 
ATOM     34  C   UNL     1      -7.831  -1.816 128.670  0.00  0.00    +0.000 A 
ATOM     35  C   UNL     1      -7.862  -1.519 127.299  0.00  0.00    +0.000 A 
ATOM     36  N   UNL     1      -7.431  -0.208 127.076  0.00  0.00    +0.000 N 
ATOM     37  C   UNL     1      -7.129   0.428 128.254  0.00  0.00    +0.000 C 
ATOM     38  O   UNL     1      -6.743   1.567 128.450  0.00  0.00    +0.000 OA
ATOM     39  C   UNL     1      -7.382  -0.588 129.352  0.00  0.00    +0.000 C 
ATOM     40  N   UNL     1      -7.269  -0.411 130.628  0.00  0.00    +0.000 NA
ATOM     41  H   UNL     1      -7.350   0.224 126.165  0.00  0.00    +0.000 HD
BRANCH  30  42
ATOM     42  C   UNL     1      -8.475  -2.140 124.924  0.00  0.00    +0.000 C 
ATOM     43  O   UNL     1      -7.608  -1.581 124.273  0.00  0.00    +0.000 OA
BRANCH  42  45
ATOM     44  C   UNL     1      -9.640  -3.323 123.259  0.00  0.00    +0.000 C 
ATOM     45  O   UNL     1      -9.691  -2.534 124.462  0.00  0.00    +0.000 OA
ENDBRANCH  42  45
ENDBRANCH  30  42
ENDBRANCH  26  40
ENDBRANCH  25  27
ENDBRANCH   1  25
TORSDOF 13
ENDMDL
MODEL 6
REMARK VINA RESULT:      -8.1      2.887      3.764
REMARK  Name = CHEMBL2113195
REMARK  16 active torsions:
REMARK  status: ('A' for Active; 'I' for Inactive)
REMARK    1  A    between atoms: C_1  and  O_2
REMARK    2  A    between atoms: O_2  and  C_3
REMARK    3  A    between atoms: C_3  and  C_5
REMARK    4  A    between atoms: N_15  and  N_16
REMARK    5  A    between atoms: C_17  and  C_19
REMARK    6  A    between atoms: C_19  and  N_20
REMARK    7  A    between atoms: N_20  and  C_21
REMARK    8  A    between atoms: N_20  and  S_28
REMARK    9  A    between atoms: S_28  and  C_31
REMARK   10  A    between atoms: C_34  and  O_35
REMARK   11  A    between atoms: O_35  and  C_36
REMARK   12  A    between atoms: C_36  and  C_37
REMARK   13  A    between atoms: C_37  and  C_38
REMARK   14  A    between atoms: C_38  and  N_39
REMARK   15  A    between atoms: N_39  and  C_40
REMARK   16  A    between atoms: N_39  and  C_41
REMARK                            x       y       z     vdW  Elec       q    Type
REMARK                         _______ _______ _______ _____ _____    ______ ____
ROOT
ATOM      1  N   UNL     1      -9.393   4.825 131.243  0.00  0.00    +0.000 N 
ENDROOT
BRANCH   1   2
ATOM      2  C   UNL     1     -10.236   5.802 130.617  0.00  0.00    +0.000 A 
ATOM      3  C   UNL     1      -9.695   6.777 129.776  0.00  0.00    +0.000 A 
ATOM      4  C   UNL     1     -10.476   7.865 129.373  0.00  0.00    +0.000 A 
ATOM      5  C   UNL     1     -11.837   7.889 129.662  0.00  0.00    +0.000 A 
ATOM      6 CL   UNL     1     -12.811   9.196 129.122  0.00  0.00    +0.000 Cl
ATOM      7  C   UNL     1     -12.407   6.875 130.419  0.00  0.00    +0.000 A 
ATOM      8  C   UNL     1     -11.585   5.893 130.963  0.00  0.00    +0.000 A 
ENDBRANCH   1   2
BRANCH   1   9
ATOM      9  S   UNL     1      -8.420   5.249 132.579  0.00  0.00    +0.000 S 
ATOM     10  O   UNL     1      -9.045   6.394 133.215  0.00  0.00    +0.000 OA
ATOM     11  O   UNL     1      -8.177   4.048 133.354  0.00  0.00    +0.000 OA
BRANCH   9  12
ATOM     12  C   UNL     1      -6.817   5.814 131.973  0.00  0.00    +0.000 A 
ATOM     13  C   UNL     1      -5.624   5.196 132.386  0.00  0.00    +0.000 A 
ATOM     14  C   UNL     1      -4.387   5.672 131.924  0.00  0.00    +0.000 A 
ATOM     15  C   UNL     1      -4.329   6.765 131.054  0.00  0.00    +0.000 A 
ATOM     16  C   UNL     1      -5.517   7.404 130.691  0.00  0.00    +0.000 A 
ATOM     17  C   UNL     1      -6.756   6.933 131.144  0.00  0.00    +0.000 A 
BRANCH  15  18
ATOM     18  O   UNL     1      -3.079   7.118 130.618  0.00  0.00    +0.000 OA
BRANCH  18  19
ATOM     19  C   UNL     1      -2.282   6.062 130.069  0.00  0.00    +0.000 C 
BRANCH  19  20
ATOM     20  C   UNL     1      -2.236   6.215 128.556  0.00  0.00    +0.000 C 
BRANCH  20  21
ATOM     21  C   UNL     1      -3.145   5.191 127.866  0.00  0.00    +0.000 C 
BRANCH  21  22
ATOM     22  N   UNL     1      -2.581   3.831 127.893  0.00  0.00    +0.000 NA
ATOM     23  C   UNL     1      -3.571   2.850 128.348  0.00  0.00    +0.000 C 
ATOM     24  C   UNL     1      -2.109   3.455 126.557  0.00  0.00    +0.000 C 
ENDBRANCH  21  22
ENDBRANCH  20  21
ENDBRANCH  19  20
ENDBRANCH  18  19
ENDBRANCH  15  18
ENDBRANCH   9  12
ENDBRANCH   1   9
BRANCH   1  25
ATOM     25  C   UNL     1      -9.335   3.392 130.734  0.00  0.00    +0.000 C 
BRANCH  25  27
ATOM     26  N   UNL     1      -8.717   1.883 128.776  0.00  0.00    +0.000 N 
ATOM     27  C   UNL     1      -8.838   3.178 129.273  0.00  0.00    +0.000 C 
ATOM     28  O   UNL     1      -8.531   4.117 128.532  0.00  0.00    +0.000 OA
ATOM     29  H   UNL     1      -8.577   1.065 129.372  0.00  0.00    +0.000 HD
BRANCH  26  40
ATOM     30  C   UNL     1      -6.802  -1.498 124.265  0.00  0.00    +0.000 A 
ATOM     31  C   UNL     1      -6.782  -0.670 123.127  0.00  0.00    +0.000 A 
ATOM     32  C   UNL     1      -7.270   0.655 123.179  0.00  0.00    +0.000 A 
ATOM     33  C   UNL     1      -7.747   1.201 124.379  0.00  0.00    +0.000 A 
ATOM     34  C   UNL     1      -7.718   0.388 125.501  0.00  0.00    +0.000 A 
ATOM     35  C   UNL     1      -7.274  -0.942 125.446  0.00  0.00    +0.000 A 
ATOM     36  N   UNL     1      -7.341  -1.530 126.712  0.00  0.00    +0.000 N 
ATOM     37  C   UNL     1      -7.792  -0.640 127.655  0.00  0.00    +0.000 C 
ATOM     38  O   UNL     1      -7.962  -0.790 128.852  0.00  0.00    +0.000 OA
ATOM     39  C   UNL     1      -8.054   0.657 126.911  0.00  0.00    +0.000 C 
ATOM     40  N   UNL     1      -8.449   1.782 127.410  0.00  0.00    +0.000 NA
ATOM     41  H   UNL     1      -7.092  -2.488 126.916  0.00  0.00    +0.000 HD
BRANCH  30  42
ATOM     42  C   UNL     1      -6.220  -2.861 124.177  0.00  0.00    +0.000 C 
ATOM     43  O   UNL     1      -6.874  -3.870 124.386  0.00  0.00    +0.000 OA
BRANCH  42  45
ATOM     44  C   UNL     1      -4.313  -4.100 123.579  0.00  0.00    +0.000 C 
ATOM     45  O   UNL     1      -4.896  -2.818 123.876  0.00  0.00    +0.000 OA
ENDBRANCH  42  45
ENDBRANCH  30  42
ENDBRANCH  26  40
ENDBRANCH  25  27
ENDBRANCH   1  25
TORSDOF 13
ENDMDL
MODEL 7
REMARK VINA RESULT:      -8.0      3.661      5.991
REMARK  Name = CHEMBL2113195
REMARK  16 active torsions:
REMARK  status: ('A' for Active; 'I' for Inactive)
REMARK    1  A    between atoms: C_1  and  O_2
REMARK    2  A    between atoms: O_2  and  C_3
REMARK    3  A    between atoms: C_3  and  C_5
REMARK    4  A    between atoms: N_15  and  N_16
REMARK    5  A    between atoms: C_17  and  C_19
REMARK    6  A    between atoms: C_19  and  N_20
REMARK    7  A    between atoms: N_20  and  C_21
REMARK    8  A    between atoms: N_20  and  S_28
REMARK    9  A    between atoms: S_28  and  C_31
REMARK   10  A    between atoms: C_34  and  O_35
REMARK   11  A    between atoms: O_35  and  C_36
REMARK   12  A    between atoms: C_36  and  C_37
REMARK   13  A    between atoms: C_37  and  C_38
REMARK   14  A    between atoms: C_38  and  N_39
REMARK   15  A    between atoms: N_39  and  C_40
REMARK   16  A    between atoms: N_39  and  C_41
REMARK                            x       y       z     vdW  Elec       q    Type
REMARK                         _______ _______ _______ _____ _____    ______ ____
ROOT
ATOM      1  N   UNL     1      -8.452   4.690 131.024  0.00  0.00    +0.000 N 
ENDROOT
BRANCH   1   2
ATOM      2  C   UNL     1      -9.634   5.413 130.657  0.00  0.00    +0.000 A 
ATOM      3  C   UNL     1     -10.847   4.748 130.462  0.00  0.00    +0.000 A 
ATOM      4  C   UNL     1     -11.924   5.415 129.869  0.00  0.00    +0.000 A 
ATOM      5  C   UNL     1     -11.849   6.784 129.633  0.00  0.00    +0.000 A 
ATOM      6 CL   UNL     1     -13.189   7.617 128.956  0.00  0.00    +0.000 Cl
ATOM      7  C   UNL     1     -10.680   7.477 129.912  0.00  0.00    +0.000 A 
ATOM      8  C   UNL     1      -9.558   6.769 130.334  0.00  0.00    +0.000 A 
ENDBRANCH   1   2
BRANCH   1   9
ATOM      9  S   UNL     1      -8.264   4.085 132.608  0.00  0.00    +0.000 S 
ATOM     10  O   UNL     1      -6.978   4.551 133.094  0.00  0.00    +0.000 OA
ATOM     11  O   UNL     1      -9.466   4.404 133.354  0.00  0.00    +0.000 OA
BRANCH   9  12
ATOM     12  C   UNL     1      -8.160   2.285 132.534  0.00  0.00    +0.000 A 
ATOM     13  C   UNL     1      -7.021   1.601 132.994  0.00  0.00    +0.000 A 
ATOM     14  C   UNL     1      -6.952   0.202 132.898  0.00  0.00    +0.000 A 
ATOM     15  C   UNL     1      -8.010  -0.522 132.342  0.00  0.00    +0.000 A 
ATOM     16  C   UNL     1      -9.114   0.170 131.841  0.00  0.00    +0.000 A 
ATOM     17  C   UNL     1      -9.194   1.565 131.936  0.00  0.00    +0.000 A 
BRANCH  15  18
ATOM     18  O   UNL     1      -7.868  -1.885 132.344  0.00  0.00    +0.000 OA
BRANCH  18  19
ATOM     19  C   UNL     1      -7.443  -2.477 131.110  0.00  0.00    +0.000 C 
BRANCH  19  20
ATOM     20  C   UNL     1      -6.475  -3.609 131.415  0.00  0.00    +0.000 C 
BRANCH  20  21
ATOM     21  C   UNL     1      -5.909  -4.219 130.128  0.00  0.00    +0.000 C 
BRANCH  21  22
ATOM     22  N   UNL     1      -4.477  -3.921 129.947  0.00  0.00    +0.000 NA
ATOM     23  C   UNL     1      -4.277  -2.793 129.033  0.00  0.00    +0.000 C 
ATOM     24  C   UNL     1      -3.861  -3.608 131.241  0.00  0.00    +0.000 C 
ENDBRANCH  21  22
ENDBRANCH  20  21
ENDBRANCH  19  20
ENDBRANCH  18  19
ENDBRANCH  15  18
ENDBRANCH   9  12
ENDBRANCH   1   9
BRANCH   1  25
ATOM     25  C   UNL     1      -7.333   4.448 130.021  0.00  0.00    +0.000 C 
BRANCH  25  27
ATOM     26  N   UNL     1      -8.155   2.749 128.310  0.00  0.00    +0.000 N 
ATOM     27  C   UNL     1      -7.751   4.055 128.573  0.00  0.00    +0.000 C 
ATOM     28  O   UNL     1      -7.729   4.857 127.634  0.00  0.00    +0.000 OA
ATOM     29  H   UNL     1      -7.866   1.948 128.876  0.00  0.00    +0.000 HD
BRANCH  26  40
ATOM     30  C   UNL     1      -9.011  -1.061 123.815  0.00  0.00    +0.000 A 
ATOM     31  C   UNL     1      -9.643  -0.333 122.791  0.00  0.00    +0.000 A 
ATOM     32  C   UNL     1     -10.045   1.008 122.988  0.00  0.00    +0.000 A 
ATOM     33  C   UNL     1      -9.783   1.668 124.197  0.00  0.00    +0.000 A 
ATOM     34  C   UNL     1      -9.119   0.951 125.180  0.00  0.00    +0.000 A 
ATOM     35  C   UNL     1      -8.756  -0.392 125.005  0.00  0.00    +0.000 A 
ATOM     36  N   UNL     1      -8.096  -0.870 126.140  0.00  0.00    +0.000 N 
ATOM     37  C   UNL     1      -7.963   0.110 127.092  0.00  0.00    +0.000 C 
ATOM     38  O   UNL     1      -7.434   0.068 128.189  0.00  0.00    +0.000 OA
ATOM     39  C   UNL     1      -8.618   1.348 126.508  0.00  0.00    +0.000 C 
ATOM     40  N   UNL     1      -8.691   2.524 127.041  0.00  0.00    +0.000 NA
ATOM     41  H   UNL     1      -7.757  -1.815 126.255  0.00  0.00    +0.000 HD
BRANCH  30  42
ATOM     42  C   UNL     1      -8.550  -2.445 123.539  0.00  0.00    +0.000 C 
ATOM     43  O   UNL     1      -9.308  -3.330 123.177  0.00  0.00    +0.000 OA
BRANCH  42  45
ATOM     44  C   UNL     1      -6.376  -2.018 122.753  0.00  0.00    +0.000 C 
ATOM     45  O   UNL     1      -7.219  -2.582 123.774  0.00  0.00    +0.000 OA
ENDBRANCH  42  45
ENDBRANCH  30  42
ENDBRANCH  26  40
ENDBRANCH  25  27
ENDBRANCH   1  25
TORSDOF 13
ENDMDL
MODEL 8
REMARK VINA RESULT:      -8.0      4.703      8.827
REMARK  Name = CHEMBL2113195
REMARK  16 active torsions:
REMARK  status: ('A' for Active; 'I' for Inactive)
REMARK    1  A    between atoms: C_1  and  O_2
REMARK    2  A    between atoms: O_2  and  C_3
REMARK    3  A    between atoms: C_3  and  C_5
REMARK    4  A    between atoms: N_15  and  N_16
REMARK    5  A    between atoms: C_17  and  C_19
REMARK    6  A    between atoms: C_19  and  N_20
REMARK    7  A    between atoms: N_20  and  C_21
REMARK    8  A    between atoms: N_20  and  S_28
REMARK    9  A    between atoms: S_28  and  C_31
REMARK   10  A    between atoms: C_34  and  O_35
REMARK   11  A    between atoms: O_35  and  C_36
REMARK   12  A    between atoms: C_36  and  C_37
REMARK   13  A    between atoms: C_37  and  C_38
REMARK   14  A    between atoms: C_38  and  N_39
REMARK   15  A    between atoms: N_39  and  C_40
REMARK   16  A    between atoms: N_39  and  C_41
REMARK                            x       y       z     vdW  Elec       q    Type
REMARK                         _______ _______ _______ _____ _____    ______ ____
ROOT
ATOM      1  N   UNL     1      -8.139   1.249 124.146  0.00  0.00    +0.000 N 
ENDROOT
BRANCH   1   2
ATOM      2  C   UNL     1      -7.823   2.177 123.100  0.00  0.00    +0.000 A 
ATOM      3  C   UNL     1      -8.836   2.782 122.352  0.00  0.00    +0.000 A 
ATOM      4  C   UNL     1      -8.520   3.485 121.185  0.00  0.00    +0.000 A 
ATOM      5  C   UNL     1      -7.190   3.732 120.860  0.00  0.00    +0.000 A 
ATOM      6 CL   UNL     1      -6.799   4.640 119.457  0.00  0.00    +0.000 Cl
ATOM      7  C   UNL     1      -6.172   3.215 121.649  0.00  0.00    +0.000 A 
ATOM      8  C   UNL     1      -6.498   2.370 122.706  0.00  0.00    +0.000 A 
ENDBRANCH   1   2
BRANCH   1   9
ATOM      9  S   UNL     1      -8.301  -0.415 123.807  0.00  0.00    +0.000 S 
ATOM     10  O   UNL     1      -9.665  -0.629 123.359  0.00  0.00    +0.000 OA
ATOM     11  O   UNL     1      -7.200  -0.806 122.948  0.00  0.00    +0.000 OA
BRANCH   9  12
ATOM     12  C   UNL     1      -8.117  -1.342 125.344  0.00  0.00    +0.000 A 
ATOM     13  C   UNL     1      -6.970  -1.205 126.145  0.00  0.00    +0.000 A 
ATOM     14  C   UNL     1      -6.837  -1.959 127.322  0.00  0.00    +0.000 A 
ATOM     15  C   UNL     1      -7.839  -2.854 127.705  0.00  0.00    +0.000 A 
ATOM     16  C   UNL     1      -8.951  -3.021 126.877  0.00  0.00    +0.000 A 
ATOM     17  C   UNL     1      -9.094  -2.270 125.703  0.00  0.00    +0.000 A 
BRANCH  15  18
ATOM     18  O   UNL     1      -7.640  -3.501 128.897  0.00  0.00    +0.000 OA
BRANCH  18  19
ATOM     19  C   UNL     1      -6.372  -3.285 129.527  0.00  0.00    +0.000 C 
BRANCH  19  20
ATOM     20  C   UNL     1      -6.530  -3.472 131.028  0.00  0.00    +0.000 C 
BRANCH  20  21
ATOM     21  C   UNL     1      -7.331  -2.323 131.651  0.00  0.00    +0.000 C 
BRANCH  21  22
ATOM     22  N   UNL     1      -6.978  -1.014 131.074  0.00  0.00    +0.000 NA
ATOM     23  C   UNL     1      -8.174  -0.243 130.725  0.00  0.00    +0.000 C 
ATOM     24  C   UNL     1      -6.170  -0.246 132.027  0.00  0.00    +0.000 C 
ENDBRANCH  21  22
ENDBRANCH  20  21
ENDBRANCH  19  20
ENDBRANCH  18  19
ENDBRANCH  15  18
ENDBRANCH   9  12
ENDBRANCH   1   9
BRANCH   1  25
ATOM     25  C   UNL     1      -8.345   1.717 125.580  0.00  0.00    +0.000 C 
BRANCH  25  27
ATOM     26  N   UNL     1      -6.061   2.408 126.473  0.00  0.00    +0.000 N 
ATOM     27  C   UNL     1      -7.355   2.788 126.125  0.00  0.00    +0.000 C 
ATOM     28  O   UNL     1      -7.673   3.972 126.277  0.00  0.00    +0.000 OA
ATOM     29  H   UNL     1      -5.811   1.455 126.743  0.00  0.00    +0.000 HD
BRANCH  26  40
ATOM     30  C   UNL     1      -2.626   5.080 130.536  0.00  0.00    +0.000 A 
ATOM     31  C   UNL     1      -2.116   6.241 129.925  0.00  0.00    +0.000 A 
ATOM     32  C   UNL     1      -2.364   6.518 128.561  0.00  0.00    +0.000 A 
ATOM     33  C   UNL     1      -3.165   5.668 127.787  0.00  0.00    +0.000 A 
ATOM     34  C   UNL     1      -3.698   4.553 128.415  0.00  0.00    +0.000 A 
ATOM     35  C   UNL     1      -3.421   4.251 129.757  0.00  0.00    +0.000 A 
ATOM     36  N   UNL     1      -4.086   3.082 130.140  0.00  0.00    +0.000 N 
ATOM     37  C   UNL     1      -4.843   2.577 129.112  0.00  0.00    +0.000 C 
ATOM     38  O   UNL     1      -5.562   1.593 129.082  0.00  0.00    +0.000 OA
ATOM     39  C   UNL     1      -4.631   3.516 127.939  0.00  0.00    +0.000 C 
ATOM     40  N   UNL     1      -5.183   3.451 126.772  0.00  0.00    +0.000 NA
ATOM     41  H   UNL     1      -4.023   2.657 131.055  0.00  0.00    +0.000 HD
BRANCH  30  42
ATOM     42  C   UNL     1      -2.393   4.865 131.986  0.00  0.00    +0.000 C 
ATOM     43  O   UNL     1      -1.275   4.827 132.473  0.00  0.00    +0.000 OA
BRANCH  42  45
ATOM     44  C   UNL     1      -4.173   5.912 133.110  0.00  0.00    +0.000 C 
ATOM     45  O   UNL     1      -3.561   4.690 132.657  0.00  0.00    +0.000 OA
ENDBRANCH  42  45
ENDBRANCH  30  42
ENDBRANCH  26  40
ENDBRANCH  25  27
ENDBRANCH   1  25
TORSDOF 13
ENDMDL
MODEL 9
REMARK VINA RESULT:      -8.0      4.456      8.126
REMARK  Name = CHEMBL2113195
REMARK  16 active torsions:
REMARK  status: ('A' for Active; 'I' for Inactive)
REMARK    1  A    between atoms: C_1  and  O_2
REMARK    2  A    between atoms: O_2  and  C_3
REMARK    3  A    between atoms: C_3  and  C_5
REMARK    4  A    between atoms: N_15  and  N_16
REMARK    5  A    between atoms: C_17  and  C_19
REMARK    6  A    between atoms: C_19  and  N_20
REMARK    7  A    between atoms: N_20  and  C_21
REMARK    8  A    between atoms: N_20  and  S_28
REMARK    9  A    between atoms: S_28  and  C_31
REMARK   10  A    between atoms: C_34  and  O_35
REMARK   11  A    between atoms: O_35  and  C_36
REMARK   12  A    between atoms: C_36  and  C_37
REMARK   13  A    between atoms: C_37  and  C_38
REMARK   14  A    between atoms: C_38  and  N_39
REMARK   15  A    between atoms: N_39  and  C_40
REMARK   16  A    between atoms: N_39  and  C_41
REMARK                            x       y       z     vdW  Elec       q    Type
REMARK                         _______ _______ _______ _____ _____    ______ ____
ROOT
ATOM      1  N   UNL     1      -3.630   5.090 131.342  0.00  0.00    +0.000 N 
ENDROOT
BRANCH   1   2
ATOM      2  C   UNL     1      -3.742   3.732 131.787  0.00  0.00    +0.000 A 
ATOM      3  C   UNL     1      -3.035   3.286 132.906  0.00  0.00    +0.000 A 
ATOM      4  C   UNL     1      -2.953   1.918 133.184  0.00  0.00    +0.000 A 
ATOM      5  C   UNL     1      -3.715   1.013 132.451  0.00  0.00    +0.000 A 
ATOM      6 CL   UNL     1      -3.659  -0.662 132.824  0.00  0.00    +0.000 Cl
ATOM      7  C   UNL     1      -4.497   1.455 131.394  0.00  0.00    +0.000 A 
ATOM      8  C   UNL     1      -4.431   2.794 131.017  0.00  0.00    +0.000 A 
ENDBRANCH   1   2
BRANCH   1   9
ATOM      9  S   UNL     1      -4.526   6.327 132.104  0.00  0.00    +0.000 S 
ATOM     10  O   UNL     1      -4.403   6.123 133.536  0.00  0.00    +0.000 OA
ATOM     11  O   UNL     1      -4.120   7.594 131.527  0.00  0.00    +0.000 OA
BRANCH   9  12
ATOM     12  C   UNL     1      -6.273   6.108 131.705  0.00  0.00    +0.000 A 
ATOM     13  C   UNL     1      -6.988   7.093 131.004  0.00  0.00    +0.000 A 
ATOM     14  C   UNL     1      -8.354   6.912 130.731  0.00  0.00    +0.000 A 
ATOM     15  C   UNL     1      -9.014   5.756 131.158  0.00  0.00    +0.000 A 
ATOM     16  C   UNL     1      -8.306   4.807 131.899  0.00  0.00    +0.000 A 
ATOM     17  C   UNL     1      -6.943   4.977 132.172  0.00  0.00    +0.000 A 
BRANCH  15  18
ATOM     18  O   UNL     1     -10.331   5.651 130.795  0.00  0.00    +0.000 OA
BRANCH  18  19
ATOM     19  C   UNL     1     -11.257   6.446 131.545  0.00  0.00    +0.000 C 
BRANCH  19  20
ATOM     20  C   UNL     1     -12.324   6.980 130.602  0.00  0.00    +0.000 C 
BRANCH  20  21
ATOM     21  C   UNL     1     -11.814   8.193 129.815  0.00  0.00    +0.000 C 
BRANCH  21  22
ATOM     22  N   UNL     1     -12.047   8.061 128.366  0.00  0.00    +0.000 NA
ATOM     23  C   UNL     1     -10.784   7.995 127.625  0.00  0.00    +0.000 C 
ATOM     24  C   UNL     1     -12.831   6.853 128.091  0.00  0.00    +0.000 C 
ENDBRANCH  21  22
ENDBRANCH  20  21
ENDBRANCH  19  20
ENDBRANCH  18  19
ENDBRANCH  15  18
ENDBRANCH   9  12
ENDBRANCH   1   9
BRANCH   1  25
ATOM     25  C   UNL     1      -2.722   5.468 130.180  0.00  0.00    +0.000 C 
BRANCH  25  27
ATOM     26  N   UNL     1      -4.382   5.516 128.248  0.00  0.00    +0.000 N 
ATOM     27  C   UNL     1      -3.178   5.035 128.755  0.00  0.00    +0.000 C 
ATOM     28  O   UNL     1      -2.516   4.265 128.051  0.00  0.00    +0.000 OA
ATOM     29  H   UNL     1      -5.155   5.826 128.840  0.00  0.00    +0.000 HD
BRANCH  26  40
ATOM     30  C   UNL     1      -7.882   2.879 124.217  0.00  0.00    +0.000 A 
ATOM     31  C   UNL     1      -7.256   3.057 122.969  0.00  0.00    +0.000 A 
ATOM     32  C   UNL     1      -6.087   3.842 122.843  0.00  0.00    +0.000 A 
ATOM     33  C   UNL     1      -5.488   4.429 123.966  0.00  0.00    +0.000 A 
ATOM     34  C   UNL     1      -6.091   4.206 125.195  0.00  0.00    +0.000 A 
ATOM     35  C   UNL     1      -7.274   3.464 125.320  0.00  0.00    +0.000 A 
ATOM     36  N   UNL     1      -7.661   3.387 126.661  0.00  0.00    +0.000 N 
ATOM     37  C   UNL     1      -6.765   4.030 127.478  0.00  0.00    +0.000 C 
ATOM     38  O   UNL     1      -6.764   4.156 128.691  0.00  0.00    +0.000 OA
ATOM     39  C   UNL     1      -5.694   4.591 126.561  0.00  0.00    +0.000 C 
ATOM     40  N   UNL     1      -4.627   5.236 126.903  0.00  0.00    +0.000 NA
ATOM     41  H   UNL     1      -8.493   2.919 126.995  0.00  0.00    +0.000 HD
BRANCH  30  42
ATOM     42  C   UNL     1      -9.070   1.994 124.310  0.00  0.00    +0.000 C 
ATOM     43  O   UNL     1      -9.332   1.348 125.311  0.00  0.00    +0.000 OA
BRANCH  42  45
ATOM     44  C   UNL     1     -10.135   0.673 122.682  0.00  0.00    +0.000 C 
ATOM     45  O   UNL     1      -9.776   1.987 123.148  0.00  0.00    +0.000 OA
ENDBRANCH  42  45
ENDBRANCH  30  42
ENDBRANCH  26  40
ENDBRANCH  25  27
ENDBRANCH   1  25
TORSDOF 13
ENDMDL
