MODEL 1
REMARK VINA RESULT:      -9.1      0.000      0.000
REMARK  Name = CHEMBL278818
REMARK  10 active torsions:
REMARK  status: ('A' for Active; 'I' for Inactive)
REMARK    1  A    between atoms: C_2  and  C_3
REMARK    2  A    between atoms: C_3  and  C_4
REMARK    3  A    between atoms: C_7  and  O_8
REMARK    4  A    between atoms: O_8  and  C_9
REMARK    5  A    between atoms: C_9  and  C_10
REMARK    6  A    between atoms: C_10  and  N_11
REMARK    7  A    between atoms: C_18  and  O_19
REMARK    8  A    between atoms: O_19  and  C_20
REMARK    9  A    between atoms: C_20  and  C_21
REMARK   10  A    between atoms: C_28  and  N_29
REMARK                            x       y       z     vdW  Elec       q    Type
REMARK                         _______ _______ _______ _____ _____    ______ ____
ROOT
ATOM      1  C   UNL     1      -6.678   3.673 133.806  0.00  0.00    +0.000 A 
ATOM      2  C   UNL     1      -8.044   3.631 134.179  0.00  0.00    +0.000 A 
ATOM      3  C   UNL     1      -8.980   4.546 133.686  0.00  0.00    +0.000 A 
ATOM      4  C   UNL     1      -8.573   5.624 132.924  0.00  0.00    +0.000 A 
ATOM      5  C   UNL     1      -7.201   5.747 132.625  0.00  0.00    +0.000 A 
ATOM      6  C   UNL     1      -6.241   4.803 133.085  0.00  0.00    +0.000 A 
ENDROOT
BRANCH   1   7
ATOM      7  C   UNL     1      -5.812   2.453 134.196  0.00  0.00    +0.000 C 
BRANCH   7   9
ATOM      8  O   UNL     1      -6.471   0.077 134.304  0.00  0.00    +0.000 OA
ATOM      9  C   UNL     1      -6.280   1.056 133.577  0.00  0.00    +0.000 C 
ATOM     10  N   UNL     1      -6.764   1.123 132.210  0.00  0.00    +0.000 N 
ATOM     11  C   UNL     1      -5.745   1.248 131.186  0.00  0.00    +0.000 C 
ATOM     12  C   UNL     1      -6.286   1.946 129.915  0.00  0.00    +0.000 C 
ATOM     13  C   UNL     1      -7.514   0.982 128.967  0.00  0.00    +0.000 C 
ATOM     14  C   UNL     1      -8.575   1.004 130.369  0.00  0.00    +0.000 C 
ATOM     15  C   UNL     1      -7.941   0.349 131.676  0.00  0.00    +0.000 C 
BRANCH  13  16
ATOM     16  N   UNL     1      -7.311   0.142 127.300  0.00  0.00    +0.000 N 
ATOM     17  C   UNL     1      -7.144  -0.997 128.101  0.00  0.00    +0.000 C 
ATOM     18  O   UNL     1      -6.281  -1.214 129.012  0.00  0.00    +0.000 OA
ATOM     19  O   UNL     1      -8.199  -1.781 128.081  0.00  0.00    +0.000 OA
ATOM     20  C   UNL     1      -7.720  -2.642 127.129  0.00  0.00    +0.000 C 
ATOM     21  C   UNL     1      -8.503  -2.023 126.047  0.00  0.00    +0.000 A 
ATOM     22  C   UNL     1      -9.251  -3.118 125.301  0.00  0.00    +0.000 A 
ATOM     23  C   UNL     1      -9.333  -3.329 123.955  0.00  0.00    +0.000 A 
ATOM     24  C   UNL     1      -8.560  -2.379 123.343  0.00  0.00    +0.000 A 
ATOM     25  C   UNL     1      -7.826  -1.139 124.204  0.00  0.00    +0.000 A 
ATOM     26  C   UNL     1      -7.974  -0.750 125.782  0.00  0.00    +0.000 A 
ENDBRANCH  13  16
ENDBRANCH   7   9
ENDBRANCH   1   7
BRANCH   4  27
ATOM     27  O   UNL     1      -9.615   6.465 132.575  0.00  0.00    +0.000 OA
BRANCH  27  28
ATOM     28  C   UNL     1      -9.837   6.502 131.181  0.00  0.00    +0.000 C 
BRANCH  28  29
ATOM     29  C   UNL     1     -11.296   6.418 130.691  0.00  0.00    +0.000 C 
BRANCH  29  30
ATOM     30  N   UNL     1     -11.491   6.203 129.225  0.00  0.00    +0.000 NA
ATOM     31  C   UNL     1     -10.539   6.969 128.380  0.00  0.00    +0.000 C 
ATOM     32  C   UNL     1     -10.835   8.489 128.301  0.00  0.00    +0.000 C 
ATOM     33  O   UNL     1     -12.194   8.750 127.939  0.00  0.00    +0.000 OA
ATOM     34  C   UNL     1     -13.116   8.053 128.796  0.00  0.00    +0.000 C 
ATOM     35  C   UNL     1     -12.857   6.542 128.766  0.00  0.00    +0.000 C 
ENDBRANCH  29  30
ENDBRANCH  28  29
ENDBRANCH  27  28
ENDBRANCH   4  27
BRANCH   6  36
ATOM     36  O   UNL     1      -4.949   5.158 132.747  0.00  0.00    +0.000 OA
BRANCH  36  37
ATOM     37  C   UNL     1      -4.536   5.002 131.395  0.00  0.00    +0.000 C 
BRANCH  37  38
ATOM     38  C   UNL     1      -3.340   4.141 131.134  0.00  0.00    +0.000 C 
ATOM     39  F   UNL     1      -3.207   3.192 132.086  0.00  0.00    +0.000 F 
ATOM     40  F   UNL     1      -3.381   3.571 129.923  0.00  0.00    +0.000 F 
ATOM     41  F   UNL     1      -2.219   4.912 131.190  0.00  0.00    +0.000 F 
ENDBRANCH  37  38
ENDBRANCH  36  37
ENDBRANCH   6  36
TORSDOF 10
ENDMDL
MODEL 2
REMARK VINA RESULT:      -9.1      2.416      3.193
REMARK  Name = CHEMBL278818
REMARK  10 active torsions:
REMARK  status: ('A' for Active; 'I' for Inactive)
REMARK    1  A    between atoms: C_2  and  C_3
REMARK    2  A    between atoms: C_3  and  C_4
REMARK    3  A    between atoms: C_7  and  O_8
REMARK    4  A    between atoms: O_8  and  C_9
REMARK    5  A    between atoms: C_9  and  C_10
REMARK    6  A    between atoms: C_10  and  N_11
REMARK    7  A    between atoms: C_18  and  O_19
REMARK    8  A    between atoms: O_19  and  C_20
REMARK    9  A    between atoms: C_20  and  C_21
REMARK   10  A    between atoms: C_28  and  N_29
REMARK                            x       y       z     vdW  Elec       q    Type
REMARK                         _______ _______ _______ _____ _____    ______ ____
ROOT
ATOM      1  C   UNL     1      -4.472   6.153 132.029  0.00  0.00    +0.000 A 
ATOM      2  C   UNL     1      -5.448   5.774 132.984  0.00  0.00    +0.000 A 
ATOM      3  C   UNL     1      -6.817   5.942 132.757  0.00  0.00    +0.000 A 
ATOM      4  C   UNL     1      -7.265   6.624 131.642  0.00  0.00    +0.000 A 
ATOM      5  C   UNL     1      -6.307   7.104 130.726  0.00  0.00    +0.000 A 
ATOM      6  C   UNL     1      -4.912   6.907 130.922  0.00  0.00    +0.000 A 
ENDROOT
BRANCH   1   7
ATOM      7  C   UNL     1      -3.027   5.665 132.281  0.00  0.00    +0.000 C 
BRANCH   7   9
ATOM      8  O   UNL     1      -2.031   3.532 133.022  0.00  0.00    +0.000 OA
ATOM      9  C   UNL     1      -2.824   4.080 132.253  0.00  0.00    +0.000 C 
ATOM     10  N   UNL     1      -3.842   3.346 131.523  0.00  0.00    +0.000 N 
ATOM     11  C   UNL     1      -3.743   3.396 130.078  0.00  0.00    +0.000 C 
ATOM     12  C   UNL     1      -5.116   3.192 129.396  0.00  0.00    +0.000 C 
ATOM     13  C   UNL     1      -5.823   1.517 129.567  0.00  0.00    +0.000 C 
ATOM     14  C   UNL     1      -5.853   1.735 131.311  0.00  0.00    +0.000 C 
ATOM     15  C   UNL     1      -4.425   2.026 131.956  0.00  0.00    +0.000 C 
BRANCH  13  16
ATOM     16  N   UNL     1      -6.011   0.185 128.256  0.00  0.00    +0.000 N 
ATOM     17  C   UNL     1      -7.287   0.754 128.124  0.00  0.00    +0.000 C 
ATOM     18  O   UNL     1      -8.196   0.888 129.005  0.00  0.00    +0.000 OA
ATOM     19  O   UNL     1      -7.399   1.483 127.036  0.00  0.00    +0.000 OA
ATOM     20  C   UNL     1      -7.988   0.510 126.272  0.00  0.00    +0.000 C 
ATOM     21  C   UNL     1      -6.734   0.170 125.580  0.00  0.00    +0.000 A 
ATOM     22  C   UNL     1      -6.990   0.171 124.081  0.00  0.00    +0.000 A 
ATOM     23  C   UNL     1      -6.648  -0.773 123.157  0.00  0.00    +0.000 A 
ATOM     24  C   UNL     1      -6.045  -1.804 123.826  0.00  0.00    +0.000 A 
ATOM     25  C   UNL     1      -5.706  -1.719 125.469  0.00  0.00    +0.000 A 
ATOM     26  C   UNL     1      -5.875  -0.461 126.494  0.00  0.00    +0.000 A 
ENDBRANCH  13  16
ENDBRANCH   7   9
ENDBRANCH   1   7
BRANCH   4  27
ATOM     27  O   UNL     1      -8.642   6.757 131.605  0.00  0.00    +0.000 OA
BRANCH  27  28
ATOM     28  C   UNL     1      -9.117   7.114 130.324  0.00  0.00    +0.000 C 
BRANCH  28  29
ATOM     29  C   UNL     1     -10.637   7.040 130.084  0.00  0.00    +0.000 C 
BRANCH  29  30
ATOM     30  N   UNL     1     -11.249   8.189 129.349  0.00  0.00    +0.000 NA
ATOM     31  C   UNL     1     -12.695   8.007 129.059  0.00  0.00    +0.000 C 
ATOM     32  C   UNL     1     -12.997   6.988 127.929  0.00  0.00    +0.000 C 
ATOM     33  O   UNL     1     -12.249   7.272 126.742  0.00  0.00    +0.000 OA
ATOM     34  C   UNL     1     -10.842   7.390 127.016  0.00  0.00    +0.000 C 
ATOM     35  C   UNL     1     -10.576   8.479 128.062  0.00  0.00    +0.000 C 
ENDBRANCH  29  30
ENDBRANCH  28  29
ENDBRANCH  27  28
ENDBRANCH   4  27
BRANCH   6  36
ATOM     36  O   UNL     1      -4.150   7.527 129.950  0.00  0.00    +0.000 OA
BRANCH  36  37
ATOM     37  C   UNL     1      -3.850   6.804 128.763  0.00  0.00    +0.000 C 
BRANCH  37  38
ATOM     38  C   UNL     1      -2.407   6.564 128.447  0.00  0.00    +0.000 C 
ATOM     39  F   UNL     1      -2.229   5.353 127.877  0.00  0.00    +0.000 F 
ATOM     40  F   UNL     1      -1.895   7.519 127.660  0.00  0.00    +0.000 F 
ATOM     41  F   UNL     1      -1.695   6.559 129.608  0.00  0.00    +0.000 F 
ENDBRANCH  37  38
ENDBRANCH  36  37
ENDBRANCH   6  36
TORSDOF 10
ENDMDL
MODEL 3
REMARK VINA RESULT:      -9.1      3.346      8.621
REMARK  Name = CHEMBL278818
REMARK  10 active torsions:
REMARK  status: ('A' for Active; 'I' for Inactive)
REMARK    1  A    between atoms: C_2  and  C_3
REMARK    2  A    between atoms: C_3  and  C_4
REMARK    3  A    between atoms: C_7  and  O_8
REMARK    4  A    between atoms: O_8  and  C_9
REMARK    5  A    between atoms: C_9  and  C_10
REMARK    6  A    between atoms: C_10  and  N_11
REMARK    7  A    between atoms: C_18  and  O_19
REMARK    8  A    between atoms: O_19  and  C_20
REMARK    9  A    between atoms: C_20  and  C_21
REMARK   10  A    between atoms: C_28  and  N_29
REMARK                            x       y       z     vdW  Elec       q    Type
REMARK                         _______ _______ _______ _____ _____    ______ ____
ROOT
ATOM      1  C   UNL     1      -6.817  -2.475 130.602  0.00  0.00    +0.000 A 
ATOM      2  C   UNL     1      -7.636  -2.204 129.478  0.00  0.00    +0.000 A 
ATOM      3  C   UNL     1      -7.120  -2.128 128.180  0.00  0.00    +0.000 A 
ATOM      4  C   UNL     1      -5.756  -2.170 127.964  0.00  0.00    +0.000 A 
ATOM      5  C   UNL     1      -4.911  -2.334 129.079  0.00  0.00    +0.000 A 
ATOM      6  C   UNL     1      -5.421  -2.453 130.402  0.00  0.00    +0.000 A 
ENDROOT
BRANCH   1   7
ATOM      7  C   UNL     1      -7.540  -2.805 131.927  0.00  0.00    +0.000 C 
BRANCH   7   9
ATOM      8  O   UNL     1      -7.269  -1.834 134.180  0.00  0.00    +0.000 OA
ATOM      9  C   UNL     1      -7.572  -1.623 133.003  0.00  0.00    +0.000 C 
ATOM     10  N   UNL     1      -7.651  -0.287 132.441  0.00  0.00    +0.000 N 
ATOM     11  C   UNL     1      -8.953   0.114 131.947  0.00  0.00    +0.000 C 
ATOM     12  C   UNL     1      -8.845   1.183 130.834  0.00  0.00    +0.000 C 
ATOM     13  C   UNL     1      -8.246   2.817 131.388  0.00  0.00    +0.000 C 
ATOM     14  C   UNL     1      -6.735   2.066 131.884  0.00  0.00    +0.000 C 
ATOM     15  C   UNL     1      -6.908   0.912 132.970  0.00  0.00    +0.000 C 
BRANCH  13  16
ATOM     16  N   UNL     1      -9.207   4.422 131.558  0.00  0.00    +0.000 N 
ATOM     17  C   UNL     1      -8.639   4.680 130.302  0.00  0.00    +0.000 C 
ATOM     18  O   UNL     1      -7.409   4.726 129.974  0.00  0.00    +0.000 OA
ATOM     19  O   UNL     1      -9.511   4.559 129.325  0.00  0.00    +0.000 OA
ATOM     20  C   UNL     1      -9.805   5.893 129.229  0.00  0.00    +0.000 C 
ATOM     21  C   UNL     1     -11.057   5.764 129.991  0.00  0.00    +0.000 A 
ATOM     22  C   UNL     1     -12.176   6.431 129.206  0.00  0.00    +0.000 A 
ATOM     23  C   UNL     1     -13.111   7.323 129.644  0.00  0.00    +0.000 A 
ATOM     24  C   UNL     1     -12.849   7.577 130.964  0.00  0.00    +0.000 A 
ATOM     25  C   UNL     1     -11.658   6.749 131.809  0.00  0.00    +0.000 A 
ATOM     26  C   UNL     1     -10.740   5.488 131.331  0.00  0.00    +0.000 A 
ENDBRANCH  13  16
ENDBRANCH   7   9
ENDBRANCH   1   7
BRANCH   4  27
ATOM     27  O   UNL     1      -5.414  -2.016 126.632  0.00  0.00    +0.000 OA
BRANCH  27  28
ATOM     28  C   UNL     1      -6.105  -0.949 126.017  0.00  0.00    +0.000 C 
BRANCH  28  29
ATOM     29  C   UNL     1      -6.586  -1.157 124.567  0.00  0.00    +0.000 C 
BRANCH  29  30
ATOM     30  N   UNL     1      -7.981  -0.714 124.261  0.00  0.00    +0.000 NA
ATOM     31  C   UNL     1      -8.947  -0.999 125.353  0.00  0.00    +0.000 C 
ATOM     32  C   UNL     1      -9.340  -2.494 125.484  0.00  0.00    +0.000 C 
ATOM     33  O   UNL     1      -9.772  -3.043 124.235  0.00  0.00    +0.000 OA
ATOM     34  C   UNL     1      -8.807  -2.816 123.192  0.00  0.00    +0.000 C 
ATOM     35  C   UNL     1      -8.523  -1.319 123.023  0.00  0.00    +0.000 C 
ENDBRANCH  29  30
ENDBRANCH  28  29
ENDBRANCH  27  28
ENDBRANCH   4  27
BRANCH   6  36
ATOM     36  O   UNL     1      -4.418  -2.523 131.350  0.00  0.00    +0.000 OA
BRANCH  36  37
ATOM     37  C   UNL     1      -3.823  -3.788 131.611  0.00  0.00    +0.000 C 
BRANCH  37  38
ATOM     38  C   UNL     1      -4.458  -4.646 132.661  0.00  0.00    +0.000 C 
ATOM     39  F   UNL     1      -4.919  -3.898 133.686  0.00  0.00    +0.000 F 
ATOM     40  F   UNL     1      -5.445  -5.404 132.167  0.00  0.00    +0.000 F 
ATOM     41  F   UNL     1      -3.515  -5.482 133.179  0.00  0.00    +0.000 F 
ENDBRANCH  37  38
ENDBRANCH  36  37
ENDBRANCH   6  36
TORSDOF 10
ENDMDL
MODEL 4
REMARK VINA RESULT:      -9.0      5.191     10.506
REMARK  Name = CHEMBL278818
REMARK  10 active torsions:
REMARK  status: ('A' for Active; 'I' for Inactive)
REMARK    1  A    between atoms: C_2  and  C_3
REMARK    2  A    between atoms: C_3  and  C_4
REMARK    3  A    between atoms: C_7  and  O_8
REMARK    4  A    between atoms: O_8  and  C_9
REMARK    5  A    between atoms: C_9  and  C_10
REMARK    6  A    between atoms: C_10  and  N_11
REMARK    7  A    between atoms: C_18  and  O_19
REMARK    8  A    between atoms: O_19  and  C_20
REMARK    9  A    between atoms: C_20  and  C_21
REMARK   10  A    between atoms: C_28  and  N_29
REMARK                            x       y       z     vdW  Elec       q    Type
REMARK                         _______ _______ _______ _____ _____    ______ ____
ROOT
ATOM      1  C   UNL     1      -7.426  -0.095 124.831  0.00  0.00    +0.000 A 
ATOM      2  C   UNL     1      -8.470   0.030 125.782  0.00  0.00    +0.000 A 
ATOM      3  C   UNL     1      -8.577  -0.819 126.887  0.00  0.00    +0.000 A 
ATOM      4  C   UNL     1      -7.743  -1.914 127.014  0.00  0.00    +0.000 A 
ATOM      5  C   UNL     1      -6.762  -2.121 126.025  0.00  0.00    +0.000 A 
ATOM      6  C   UNL     1      -6.614  -1.244 124.915  0.00  0.00    +0.000 A 
ENDROOT
BRANCH   1   7
ATOM      7  C   UNL     1      -7.262   1.064 123.822  0.00  0.00    +0.000 C 
BRANCH   7   9
ATOM      8  O   UNL     1      -8.154   3.351 124.074  0.00  0.00    +0.000 OA
ATOM      9  C   UNL     1      -7.311   2.532 124.451  0.00  0.00    +0.000 C 
ATOM     10  N   UNL     1      -6.547   2.700 125.673  0.00  0.00    +0.000 N 
ATOM     11  C   UNL     1      -5.110   2.807 125.510  0.00  0.00    +0.000 C 
ATOM     12  C   UNL     1      -4.348   2.336 126.771  0.00  0.00    +0.000 C 
ATOM     13  C   UNL     1      -4.540   3.409 128.236  0.00  0.00    +0.000 C 
ATOM     14  C   UNL     1      -6.268   3.087 128.215  0.00  0.00    +0.000 C 
ATOM     15  C   UNL     1      -6.993   3.513 126.861  0.00  0.00    +0.000 C 
BRANCH  13  16
ATOM     16  N   UNL     1      -3.274   4.550 129.026  0.00  0.00    +0.000 N 
ATOM     17  C   UNL     1      -4.115   5.543 128.502  0.00  0.00    +0.000 C 
ATOM     18  O   UNL     1      -4.458   5.743 127.292  0.00  0.00    +0.000 OA
ATOM     19  O   UNL     1      -4.842   6.124 129.431  0.00  0.00    +0.000 OA
ATOM     20  C   UNL     1      -4.020   7.208 129.598  0.00  0.00    +0.000 C 
ATOM     21  C   UNL     1      -3.400   6.663 130.816  0.00  0.00    +0.000 A 
ATOM     22  C   UNL     1      -3.447   7.725 131.903  0.00  0.00    +0.000 A 
ATOM     23  C   UNL     1      -2.443   8.151 132.723  0.00  0.00    +0.000 A 
ATOM     24  C   UNL     1      -1.308   7.471 132.370  0.00  0.00    +0.000 A 
ATOM     25  C   UNL     1      -1.327   6.245 131.223  0.00  0.00    +0.000 A 
ATOM     26  C   UNL     1      -2.599   5.567 130.458  0.00  0.00    +0.000 A 
ENDBRANCH  13  16
ENDBRANCH   7   9
ENDBRANCH   1   7
BRANCH   4  27
ATOM     27  O   UNL     1      -8.027  -2.684 128.129  0.00  0.00    +0.000 OA
BRANCH  27  28
ATOM     28  C   UNL     1      -7.789  -1.994 129.338  0.00  0.00    +0.000 C 
BRANCH  28  29
ATOM     29  C   UNL     1      -6.666  -2.526 130.249  0.00  0.00    +0.000 C 
BRANCH  29  30
ATOM     30  N   UNL     1      -5.723  -3.511 129.634  0.00  0.00    +0.000 NA
ATOM     31  C   UNL     1      -5.197  -4.511 130.598  0.00  0.00    +0.000 C 
ATOM     32  C   UNL     1      -4.136  -3.954 131.582  0.00  0.00    +0.000 C 
ATOM     33  O   UNL     1      -3.081  -3.270 130.898  0.00  0.00    +0.000 OA
ATOM     34  C   UNL     1      -3.592  -2.261 130.008  0.00  0.00    +0.000 C 
ATOM     35  C   UNL     1      -4.557  -2.869 128.985  0.00  0.00    +0.000 C 
ENDBRANCH  29  30
ENDBRANCH  28  29
ENDBRANCH  27  28
ENDBRANCH   4  27
BRANCH   6  36
ATOM     36  O   UNL     1      -5.648  -1.677 124.026  0.00  0.00    +0.000 OA
BRANCH  36  37
ATOM     37  C   UNL     1      -5.712  -3.018 123.558  0.00  0.00    +0.000 C 
BRANCH  37  38
ATOM     38  C   UNL     1      -4.512  -3.885 123.780  0.00  0.00    +0.000 C 
ATOM     39  F   UNL     1      -4.746  -5.152 123.376  0.00  0.00    +0.000 F 
ATOM     40  F   UNL     1      -3.421  -3.405 123.170  0.00  0.00    +0.000 F 
ATOM     41  F   UNL     1      -4.248  -3.942 125.115  0.00  0.00    +0.000 F 
ENDBRANCH  37  38
ENDBRANCH  36  37
ENDBRANCH   6  36
TORSDOF 10
ENDMDL
MODEL 5
REMARK VINA RESULT:      -8.9      1.858      2.490
REMARK  Name = CHEMBL278818
REMARK  10 active torsions:
REMARK  status: ('A' for Active; 'I' for Inactive)
REMARK    1  A    between atoms: C_2  and  C_3
REMARK    2  A    between atoms: C_3  and  C_4
REMARK    3  A    between atoms: C_7  and  O_8
REMARK    4  A    between atoms: O_8  and  C_9
REMARK    5  A    between atoms: C_9  and  C_10
REMARK    6  A    between atoms: C_10  and  N_11
REMARK    7  A    between atoms: C_18  and  O_19
REMARK    8  A    between atoms: O_19  and  C_20
REMARK    9  A    between atoms: C_20  and  C_21
REMARK   10  A    between atoms: C_28  and  N_29
REMARK                            x       y       z     vdW  Elec       q    Type
REMARK                         _______ _______ _______ _____ _____    ______ ____
ROOT
ATOM      1  C   UNL     1      -6.822   4.317 133.023  0.00  0.00    +0.000 A 
ATOM      2  C   UNL     1      -8.206   4.076 133.214  0.00  0.00    +0.000 A 
ATOM      3  C   UNL     1      -9.189   4.910 132.674  0.00  0.00    +0.000 A 
ATOM      4  C   UNL     1      -8.841   6.093 132.050  0.00  0.00    +0.000 A 
ATOM      5  C   UNL     1      -7.472   6.408 131.939  0.00  0.00    +0.000 A 
ATOM      6  C   UNL     1      -6.457   5.551 132.447  0.00  0.00    +0.000 A 
ENDROOT
BRANCH   1   7
ATOM      7  C   UNL     1      -5.855   3.182 133.430  0.00  0.00    +0.000 C 
BRANCH   7   9
ATOM      8  O   UNL     1      -3.764   3.244 132.121  0.00  0.00    +0.000 OA
ATOM      9  C   UNL     1      -4.855   2.691 132.285  0.00  0.00    +0.000 C 
ATOM     10  N   UNL     1      -5.171   1.397 131.709  0.00  0.00    +0.000 N 
ATOM     11  C   UNL     1      -6.274   1.376 130.769  0.00  0.00    +0.000 C 
ATOM     12  C   UNL     1      -6.958  -0.010 130.710  0.00  0.00    +0.000 C 
ATOM     13  C   UNL     1      -5.945  -1.340 129.975  0.00  0.00    +0.000 C 
ATOM     14  C   UNL     1      -4.766  -1.117 131.260  0.00  0.00    +0.000 C 
ATOM     15  C   UNL     1      -4.153   0.352 131.333  0.00  0.00    +0.000 C 
BRANCH  13  16
ATOM     16  N   UNL     1      -6.156  -2.192 128.314  0.00  0.00    +0.000 N 
ATOM     17  C   UNL     1      -7.081  -2.962 129.035  0.00  0.00    +0.000 C 
ATOM     18  O   UNL     1      -6.893  -3.672 130.075  0.00  0.00    +0.000 OA
ATOM     19  O   UNL     1      -8.325  -2.649 128.744  0.00  0.00    +0.000 OA
ATOM     20  C   UNL     1      -8.517  -3.655 127.835  0.00  0.00    +0.000 C 
ATOM     21  C   UNL     1      -8.316  -2.769 126.677  0.00  0.00    +0.000 A 
ATOM     22  C   UNL     1      -9.475  -2.961 125.711  0.00  0.00    +0.000 A 
ATOM     23  C   UNL     1      -9.436  -3.163 124.362  0.00  0.00    +0.000 A 
ATOM     24  C   UNL     1      -8.118  -3.217 123.993  0.00  0.00    +0.000 A 
ATOM     25  C   UNL     1      -6.877  -2.911 125.082  0.00  0.00    +0.000 A 
ATOM     26  C   UNL     1      -6.964  -2.396 126.628  0.00  0.00    +0.000 A 
ENDBRANCH  13  16
ENDBRANCH   7   9
ENDBRANCH   1   7
BRANCH   4  27
ATOM     27  O   UNL     1      -9.937   6.828 131.634  0.00  0.00    +0.000 OA
BRANCH  27  28
ATOM     28  C   UNL     1     -10.088   6.824 130.230  0.00  0.00    +0.000 C 
BRANCH  28  29
ATOM     29  C   UNL     1     -11.521   6.926 129.670  0.00  0.00    +0.000 C 
BRANCH  29  30
ATOM     30  N   UNL     1     -11.809   8.105 128.797  0.00  0.00    +0.000 NA
ATOM     31  C   UNL     1     -13.054   7.963 127.999  0.00  0.00    +0.000 C 
ATOM     32  C   UNL     1     -12.939   6.978 126.806  0.00  0.00    +0.000 C 
ATOM     33  O   UNL     1     -11.809   7.270 125.979  0.00  0.00    +0.000 OA
ATOM     34  C   UNL     1     -10.594   7.349 126.748  0.00  0.00    +0.000 C 
ATOM     35  C   UNL     1     -10.711   8.408 127.851  0.00  0.00    +0.000 C 
ENDBRANCH  29  30
ENDBRANCH  28  29
ENDBRANCH  27  28
ENDBRANCH   4  27
BRANCH   6  36
ATOM     36  O   UNL     1      -5.192   6.089 132.304  0.00  0.00    +0.000 OA
BRANCH  36  37
ATOM     37  C   UNL     1      -4.900   6.823 131.122  0.00  0.00    +0.000 C 
BRANCH  37  38
ATOM     38  C   UNL     1      -3.648   7.645 131.111  0.00  0.00    +0.000 C 
ATOM     39  F   UNL     1      -3.745   8.667 130.234  0.00  0.00    +0.000 F 
ATOM     40  F   UNL     1      -3.339   8.112 132.327  0.00  0.00    +0.000 F 
ATOM     41  F   UNL     1      -2.612   6.866 130.692  0.00  0.00    +0.000 F 
ENDBRANCH  37  38
ENDBRANCH  36  37
ENDBRANCH   6  36
TORSDOF 10
ENDMDL
MODEL 6
REMARK VINA RESULT:      -8.7      3.855      8.241
REMARK  Name = CHEMBL278818
REMARK  10 active torsions:
REMARK  status: ('A' for Active; 'I' for Inactive)
REMARK    1  A    between atoms: C_2  and  C_3
REMARK    2  A    between atoms: C_3  and  C_4
REMARK    3  A    between atoms: C_7  and  O_8
REMARK    4  A    between atoms: O_8  and  C_9
REMARK    5  A    between atoms: C_9  and  C_10
REMARK    6  A    between atoms: C_10  and  N_11
REMARK    7  A    between atoms: C_18  and  O_19
REMARK    8  A    between atoms: O_19  and  C_20
REMARK    9  A    between atoms: C_20  and  C_21
REMARK   10  A    between atoms: C_28  and  N_29
REMARK                            x       y       z     vdW  Elec       q    Type
REMARK                         _______ _______ _______ _____ _____    ______ ____
ROOT
ATOM      1  C   UNL     1      -5.556  -0.482 128.407  0.00  0.00    +0.000 A 
ATOM      2  C   UNL     1      -4.857   0.681 128.815  0.00  0.00    +0.000 A 
ATOM      3  C   UNL     1      -4.548   1.716 127.927  0.00  0.00    +0.000 A 
ATOM      4  C   UNL     1      -4.789   1.573 126.574  0.00  0.00    +0.000 A 
ATOM      5  C   UNL     1      -5.390   0.380 126.126  0.00  0.00    +0.000 A 
ATOM      6  C   UNL     1      -5.746  -0.666 127.022  0.00  0.00    +0.000 A 
ENDROOT
BRANCH   1   7
ATOM      7  C   UNL     1      -6.074  -1.412 129.528  0.00  0.00    +0.000 C 
BRANCH   7   9
ATOM      8  O   UNL     1      -8.349  -2.261 129.966  0.00  0.00    +0.000 OA
ATOM      9  C   UNL     1      -7.626  -1.265 129.877  0.00  0.00    +0.000 C 
ATOM     10  N   UNL     1      -8.019   0.037 130.385  0.00  0.00    +0.000 N 
ATOM     11  C   UNL     1      -8.129   1.093 129.398  0.00  0.00    +0.000 C 
ATOM     12  C   UNL     1      -7.898   2.491 130.019  0.00  0.00    +0.000 C 
ATOM     13  C   UNL     1      -9.202   3.050 131.170  0.00  0.00    +0.000 C 
ATOM     14  C   UNL     1      -8.841   1.677 132.207  0.00  0.00    +0.000 C 
ATOM     15  C   UNL     1      -9.012   0.261 131.496  0.00  0.00    +0.000 C 
BRANCH  13  16
ATOM     16  N   UNL     1     -10.490   4.393 130.917  0.00  0.00    +0.000 N 
ATOM     17  C   UNL     1      -9.439   5.223 131.332  0.00  0.00    +0.000 C 
ATOM     18  O   UNL     1      -8.780   5.194 132.422  0.00  0.00    +0.000 OA
ATOM     19  O   UNL     1      -8.910   5.897 130.335  0.00  0.00    +0.000 OA
ATOM     20  C   UNL     1      -9.621   7.049 130.548  0.00  0.00    +0.000 C 
ATOM     21  C   UNL     1     -10.586   6.759 129.476  0.00  0.00    +0.000 A 
ATOM     22  C   UNL     1     -10.697   7.981 128.577  0.00  0.00    +0.000 A 
ATOM     23  C   UNL     1     -11.822   8.607 128.125  0.00  0.00    +0.000 A 
ATOM     24  C   UNL     1     -12.899   7.960 128.669  0.00  0.00    +0.000 A 
ATOM     25  C   UNL     1     -12.728   6.562 129.584  0.00  0.00    +0.000 A 
ATOM     26  C   UNL     1     -11.388   5.678 129.876  0.00  0.00    +0.000 A 
ENDBRANCH  13  16
ENDBRANCH   7   9
ENDBRANCH   1   7
BRANCH   4  27
ATOM     27  O   UNL     1      -4.364   2.661 125.831  0.00  0.00    +0.000 OA
BRANCH  27  28
ATOM     28  C   UNL     1      -5.428   3.514 125.464  0.00  0.00    +0.000 C 
BRANCH  28  29
ATOM     29  C   UNL     1      -6.097   3.267 124.098  0.00  0.00    +0.000 C 
BRANCH  29  30
ATOM     30  N   UNL     1      -7.542   3.638 123.992  0.00  0.00    +0.000 NA
ATOM     31  C   UNL     1      -8.310   3.398 125.241  0.00  0.00    +0.000 C 
ATOM     32  C   UNL     1      -8.608   1.904 125.531  0.00  0.00    +0.000 C 
ATOM     33  O   UNL     1      -9.205   1.251 124.407  0.00  0.00    +0.000 OA
ATOM     34  C   UNL     1      -8.428   1.435 123.210  0.00  0.00    +0.000 C 
ATOM     35  C   UNL     1      -8.244   2.926 122.900  0.00  0.00    +0.000 C 
ENDBRANCH  29  30
ENDBRANCH  28  29
ENDBRANCH  27  28
ENDBRANCH   4  27
BRANCH   6  36
ATOM     36  O   UNL     1      -6.245  -1.775 126.365  0.00  0.00    +0.000 OA
BRANCH  36  37
ATOM     37  C   UNL     1      -5.369  -2.513 125.523  0.00  0.00    +0.000 C 
BRANCH  37  38
ATOM     38  C   UNL     1      -5.885  -2.922 124.179  0.00  0.00    +0.000 C 
ATOM     39  F   UNL     1      -7.160  -3.359 124.260  0.00  0.00    +0.000 F 
ATOM     40  F   UNL     1      -5.797  -1.933 123.280  0.00  0.00    +0.000 F 
ATOM     41  F   UNL     1      -5.142  -3.966 123.718  0.00  0.00    +0.000 F 
ENDBRANCH  37  38
ENDBRANCH  36  37
ENDBRANCH   6  36
TORSDOF 10
ENDMDL
MODEL 7
REMARK VINA RESULT:      -8.6      3.940      8.787
REMARK  Name = CHEMBL278818
REMARK  10 active torsions:
REMARK  status: ('A' for Active; 'I' for Inactive)
REMARK    1  A    between atoms: C_2  and  C_3
REMARK    2  A    between atoms: C_3  and  C_4
REMARK    3  A    between atoms: C_7  and  O_8
REMARK    4  A    between atoms: O_8  and  C_9
REMARK    5  A    between atoms: C_9  and  C_10
REMARK    6  A    between atoms: C_10  and  N_11
REMARK    7  A    between atoms: C_18  and  O_19
REMARK    8  A    between atoms: O_19  and  C_20
REMARK    9  A    between atoms: C_20  and  C_21
REMARK   10  A    between atoms: C_28  and  N_29
REMARK                            x       y       z     vdW  Elec       q    Type
REMARK                         _______ _______ _______ _____ _____    ______ ____
ROOT
ATOM      1  C   UNL     1      -6.528  -0.537 126.236  0.00  0.00    +0.000 A 
ATOM      2  C   UNL     1      -5.338   0.199 126.462  0.00  0.00    +0.000 A 
ATOM      3  C   UNL     1      -5.148   1.484 125.946  0.00  0.00    +0.000 A 
ATOM      4  C   UNL     1      -6.063   2.030 125.067  0.00  0.00    +0.000 A 
ATOM      5  C   UNL     1      -7.207   1.275 124.743  0.00  0.00    +0.000 A 
ATOM      6  C   UNL     1      -7.436  -0.018 125.290  0.00  0.00    +0.000 A 
ENDROOT
BRANCH   1   7
ATOM      7  C   UNL     1      -6.727  -1.816 127.081  0.00  0.00    +0.000 C 
BRANCH   7   9
ATOM      8  O   UNL     1      -8.262  -2.683 128.809  0.00  0.00    +0.000 OA
ATOM      9  C   UNL     1      -7.757  -1.681 128.296  0.00  0.00    +0.000 C 
ATOM     10  N   UNL     1      -7.785  -0.376 128.933  0.00  0.00    +0.000 N 
ATOM     11  C   UNL     1      -8.486   0.665 128.208  0.00  0.00    +0.000 C 
ATOM     12  C   UNL     1      -7.950   2.074 128.557  0.00  0.00    +0.000 C 
ATOM     13  C   UNL     1      -8.305   2.635 130.259  0.00  0.00    +0.000 C 
ATOM     14  C   UNL     1      -7.368   1.280 130.874  0.00  0.00    +0.000 C 
ATOM     15  C   UNL     1      -7.910  -0.147 130.416  0.00  0.00    +0.000 C 
BRANCH  13  16
ATOM     16  N   UNL     1      -9.507   3.961 130.829  0.00  0.00    +0.000 N 
ATOM     17  C   UNL     1      -8.361   4.767 130.763  0.00  0.00    +0.000 C 
ATOM     18  O   UNL     1      -7.253   4.633 131.375  0.00  0.00    +0.000 OA
ATOM     19  O   UNL     1      -8.372   5.566 129.719  0.00  0.00    +0.000 OA
ATOM     20  C   UNL     1      -8.848   6.665 130.385  0.00  0.00    +0.000 C 
ATOM     21  C   UNL     1     -10.225   6.472 129.903  0.00  0.00    +0.000 A 
ATOM     22  C   UNL     1     -10.725   7.786 129.321  0.00  0.00    +0.000 A 
ATOM     23  C   UNL     1     -11.907   8.427 129.557  0.00  0.00    +0.000 A 
ATOM     24  C   UNL     1     -12.596   7.691 130.484  0.00  0.00    +0.000 A 
ATOM     25  C   UNL     1     -12.041   6.203 131.028  0.00  0.00    +0.000 A 
ATOM     26  C   UNL     1     -10.759   5.330 130.520  0.00  0.00    +0.000 A 
ENDBRANCH  13  16
ENDBRANCH   7   9
ENDBRANCH   1   7
BRANCH   4  27
ATOM     27  O   UNL     1      -5.689   3.279 124.602  0.00  0.00    +0.000 OA
BRANCH  27  28
ATOM     28  C   UNL     1      -4.683   3.872 125.396  0.00  0.00    +0.000 C 
BRANCH  28  29
ATOM     29  C   UNL     1      -5.136   4.813 126.530  0.00  0.00    +0.000 C 
BRANCH  29  30
ATOM     30  N   UNL     1      -4.788   4.389 127.921  0.00  0.00    +0.000 NA
ATOM     31  C   UNL     1      -4.906   5.480 128.922  0.00  0.00    +0.000 C 
ATOM     32  C   UNL     1      -3.773   6.538 128.850  0.00  0.00    +0.000 C 
ATOM     33  O   UNL     1      -2.477   5.933 128.875  0.00  0.00    +0.000 OA
ATOM     34  C   UNL     1      -2.346   4.916 127.865  0.00  0.00    +0.000 C 
ATOM     35  C   UNL     1      -3.419   3.835 128.033  0.00  0.00    +0.000 C 
ENDBRANCH  29  30
ENDBRANCH  28  29
ENDBRANCH  27  28
ENDBRANCH   4  27
BRANCH   6  36
ATOM     36  O   UNL     1      -8.574  -0.614 124.778  0.00  0.00    +0.000 OA
BRANCH  36  37
ATOM     37  C   UNL     1      -8.420  -1.738 123.920  0.00  0.00    +0.000 C 
BRANCH  37  38
ATOM     38  C   UNL     1      -9.042  -3.028 124.356  0.00  0.00    +0.000 C 
ATOM     39  F   UNL     1      -8.114  -4.003 124.465  0.00  0.00    +0.000 F 
ATOM     40  F   UNL     1      -9.712  -2.903 125.509  0.00  0.00    +0.000 F 
ATOM     41  F   UNL     1      -9.928  -3.435 123.405  0.00  0.00    +0.000 F 
ENDBRANCH  37  38
ENDBRANCH  36  37
ENDBRANCH   6  36
TORSDOF 10
ENDMDL
MODEL 8
REMARK VINA RESULT:      -8.6      1.837      2.379
REMARK  Name = CHEMBL278818
REMARK  10 active torsions:
REMARK  status: ('A' for Active; 'I' for Inactive)
REMARK    1  A    between atoms: C_2  and  C_3
REMARK    2  A    between atoms: C_3  and  C_4
REMARK    3  A    between atoms: C_7  and  O_8
REMARK    4  A    between atoms: O_8  and  C_9
REMARK    5  A    between atoms: C_9  and  C_10
REMARK    6  A    between atoms: C_10  and  N_11
REMARK    7  A    between atoms: C_18  and  O_19
REMARK    8  A    between atoms: O_19  and  C_20
REMARK    9  A    between atoms: C_20  and  C_21
REMARK   10  A    between atoms: C_28  and  N_29
REMARK                            x       y       z     vdW  Elec       q    Type
REMARK                         _______ _______ _______ _____ _____    ______ ____
ROOT
ATOM      1  C   UNL     1      -7.643   2.484 132.899  0.00  0.00    +0.000 A 
ATOM      2  C   UNL     1      -8.990   2.092 132.700  0.00  0.00    +0.000 A 
ATOM      3  C   UNL     1      -9.775   2.621 131.671  0.00  0.00    +0.000 A 
ATOM      4  C   UNL     1      -9.306   3.662 130.894  0.00  0.00    +0.000 A 
ATOM      5  C   UNL     1      -8.004   4.143 131.142  0.00  0.00    +0.000 A 
ATOM      6  C   UNL     1      -7.177   3.589 132.158  0.00  0.00    +0.000 A 
ENDROOT
BRANCH   1   7
ATOM      7  C   UNL     1      -6.809   1.633 133.884  0.00  0.00    +0.000 C 
BRANCH   7   9
ATOM      8  O   UNL     1      -4.521   0.717 133.738  0.00  0.00    +0.000 OA
ATOM      9  C   UNL     1      -5.640   0.768 133.220  0.00  0.00    +0.000 C 
ATOM     10  N   UNL     1      -6.076  -0.172 132.203  0.00  0.00    +0.000 N 
ATOM     11  C   UNL     1      -6.401   0.401 130.912  0.00  0.00    +0.000 C 
ATOM     12  C   UNL     1      -7.425  -0.462 130.138  0.00  0.00    +0.000 C 
ATOM     13  C   UNL     1      -6.799  -2.082 129.572  0.00  0.00    +0.000 C 
ATOM     14  C   UNL     1      -6.524  -2.533 131.249  0.00  0.00    +0.000 C 
ATOM     15  C   UNL     1      -5.527  -1.564 132.028  0.00  0.00    +0.000 C 
BRANCH  13  16
ATOM     16  N   UNL     1      -6.398  -2.638 127.823  0.00  0.00    +0.000 N 
ATOM     17  C   UNL     1      -7.781  -2.869 127.777  0.00  0.00    +0.000 C 
ATOM     18  O   UNL     1      -8.490  -3.622 128.518  0.00  0.00    +0.000 OA
ATOM     19  O   UNL     1      -8.416  -1.960 127.070  0.00  0.00    +0.000 OA
ATOM     20  C   UNL     1      -8.470  -2.691 125.913  0.00  0.00    +0.000 C 
ATOM     21  C   UNL     1      -7.339  -1.976 125.302  0.00  0.00    +0.000 A 
ATOM     22  C   UNL     1      -7.748  -1.515 123.911  0.00  0.00    +0.000 A 
ATOM     23  C   UNL     1      -7.070  -1.650 122.734  0.00  0.00    +0.000 A 
ATOM     24  C   UNL     1      -5.919  -2.343 123.000  0.00  0.00    +0.000 A 
ATOM     25  C   UNL     1      -5.470  -2.752 124.565  0.00  0.00    +0.000 A 
ATOM     26  C   UNL     1      -6.163  -2.333 125.981  0.00  0.00    +0.000 A 
ENDBRANCH  13  16
ENDBRANCH   7   9
ENDBRANCH   1   7
BRANCH   4  27
ATOM     27  O   UNL     1     -10.233   4.108 129.969  0.00  0.00    +0.000 OA
BRANCH  27  28
ATOM     28  C   UNL     1     -10.637   5.440 130.207  0.00  0.00    +0.000 C 
BRANCH  28  29
ATOM     29  C   UNL     1     -10.075   6.531 129.274  0.00  0.00    +0.000 C 
BRANCH  29  30
ATOM     30  N   UNL     1     -10.902   7.767 129.127  0.00  0.00    +0.000 NA
ATOM     31  C   UNL     1     -12.345   7.554 129.409  0.00  0.00    +0.000 C 
ATOM     32  C   UNL     1     -13.107   6.787 128.296  0.00  0.00    +0.000 C 
ATOM     33  O   UNL     1     -12.898   7.372 127.007  0.00  0.00    +0.000 OA
ATOM     34  C   UNL     1     -11.498   7.524 126.712  0.00  0.00    +0.000 C 
ATOM     35  C   UNL     1     -10.802   8.375 127.780  0.00  0.00    +0.000 C 
ENDBRANCH  29  30
ENDBRANCH  28  29
ENDBRANCH  27  28
ENDBRANCH   4  27
BRANCH   6  36
ATOM     36  O   UNL     1      -5.976   4.261 132.284  0.00  0.00    +0.000 OA
BRANCH  36  37
ATOM     37  C   UNL     1      -5.090   4.275 131.172  0.00  0.00    +0.000 C 
BRANCH  37  38
ATOM     38  C   UNL     1      -3.751   3.630 131.348  0.00  0.00    +0.000 C 
ATOM     39  F   UNL     1      -2.794   4.303 130.674  0.00  0.00    +0.000 F 
ATOM     40  F   UNL     1      -3.409   3.517 132.638  0.00  0.00    +0.000 F 
ATOM     41  F   UNL     1      -3.791   2.374 130.822  0.00  0.00    +0.000 F 
ENDBRANCH  37  38
ENDBRANCH  36  37
ENDBRANCH   6  36
TORSDOF 10
ENDMDL
MODEL 9
REMARK VINA RESULT:      -8.5      1.736      2.174
REMARK  Name = CHEMBL278818
REMARK  10 active torsions:
REMARK  status: ('A' for Active; 'I' for Inactive)
REMARK    1  A    between atoms: C_2  and  C_3
REMARK    2  A    between atoms: C_3  and  C_4
REMARK    3  A    between atoms: C_7  and  O_8
REMARK    4  A    between atoms: O_8  and  C_9
REMARK    5  A    between atoms: C_9  and  C_10
REMARK    6  A    between atoms: C_10  and  N_11
REMARK    7  A    between atoms: C_18  and  O_19
REMARK    8  A    between atoms: O_19  and  C_20
REMARK    9  A    between atoms: C_20  and  C_21
REMARK   10  A    between atoms: C_28  and  N_29
REMARK                            x       y       z     vdW  Elec       q    Type
REMARK                         _______ _______ _______ _____ _____    ______ ____
ROOT
ATOM      1  C   UNL     1      -6.033   4.390 133.062  0.00  0.00    +0.000 A 
ATOM      2  C   UNL     1      -7.287   4.399 133.722  0.00  0.00    +0.000 A 
ATOM      3  C   UNL     1      -8.361   5.171 133.269  0.00  0.00    +0.000 A 
ATOM      4  C   UNL     1      -8.192   6.072 132.236  0.00  0.00    +0.000 A 
ATOM      5  C   UNL     1      -6.923   6.158 131.629  0.00  0.00    +0.000 A 
ATOM      6  C   UNL     1      -5.829   5.352 132.051  0.00  0.00    +0.000 A 
ENDROOT
BRANCH   1   7
ATOM      7  C   UNL     1      -5.028   3.297 133.493  0.00  0.00    +0.000 C 
BRANCH   7   9
ATOM      8  O   UNL     1      -5.510   1.025 134.328  0.00  0.00    +0.000 OA
ATOM      9  C   UNL     1      -5.554   1.794 133.364  0.00  0.00    +0.000 C 
ATOM     10  N   UNL     1      -6.355   1.525 132.183  0.00  0.00    +0.000 N 
ATOM     11  C   UNL     1      -5.621   1.387 130.941  0.00  0.00    +0.000 C 
ATOM     12  C   UNL     1      -6.489   1.754 129.714  0.00  0.00    +0.000 C 
ATOM     13  C   UNL     1      -7.855   0.594 129.358  0.00  0.00    +0.000 C 
ATOM     14  C   UNL     1      -8.547   0.968 130.931  0.00  0.00    +0.000 C 
ATOM     15  C   UNL     1      -7.582   0.651 132.159  0.00  0.00    +0.000 C 
BRANCH  13  16
ATOM     16  N   UNL     1      -8.013  -0.632 127.944  0.00  0.00    +0.000 N 
ATOM     17  C   UNL     1      -8.183   0.540 127.192  0.00  0.00    +0.000 C 
ATOM     18  O   UNL     1      -9.061   1.453 127.321  0.00  0.00    +0.000 OA
ATOM     19  O   UNL     1      -7.118   0.835 126.479  0.00  0.00    +0.000 OA
ATOM     20  C   UNL     1      -7.566   0.275 125.313  0.00  0.00    +0.000 C 
ATOM     21  C   UNL     1      -6.768  -0.949 125.489  0.00  0.00    +0.000 A 
ATOM     22  C   UNL     1      -5.992  -1.213 124.207  0.00  0.00    +0.000 A 
ATOM     23  C   UNL     1      -5.880  -2.376 123.503  0.00  0.00    +0.000 A 
ATOM     24  C   UNL     1      -6.651  -3.315 124.133  0.00  0.00    +0.000 A 
ATOM     25  C   UNL     1      -7.418  -3.000 125.594  0.00  0.00    +0.000 A 
ATOM     26  C   UNL     1      -7.308  -1.686 126.555  0.00  0.00    +0.000 A 
ENDBRANCH  13  16
ENDBRANCH   7   9
ENDBRANCH   1   7
BRANCH   4  27
ATOM     27  O   UNL     1      -9.336   6.799 131.959  0.00  0.00    +0.000 OA
BRANCH  27  28
ATOM     28  C   UNL     1     -10.483   5.982 131.850  0.00  0.00    +0.000 C 
BRANCH  28  29
ATOM     29  C   UNL     1     -11.754   6.619 131.256  0.00  0.00    +0.000 C 
BRANCH  29  30
ATOM     30  N   UNL     1     -12.011   6.357 129.807  0.00  0.00    +0.000 NA
ATOM     31  C   UNL     1     -10.836   6.621 128.937  0.00  0.00    +0.000 C 
ATOM     32  C   UNL     1     -10.530   8.126 128.717  0.00  0.00    +0.000 C 
ATOM     33  O   UNL     1     -11.686   8.847 128.281  0.00  0.00    +0.000 OA
ATOM     34  C   UNL     1     -12.807   8.635 129.158  0.00  0.00    +0.000 C 
ATOM     35  C   UNL     1     -13.144   7.143 129.267  0.00  0.00    +0.000 C 
ENDBRANCH  29  30
ENDBRANCH  28  29
ENDBRANCH  27  28
ENDBRANCH   4  27
BRANCH   6  36
ATOM     36  O   UNL     1      -4.661   5.654 131.378  0.00  0.00    +0.000 OA
BRANCH  36  37
ATOM     37  C   UNL     1      -4.753   6.094 130.029  0.00  0.00    +0.000 C 
BRANCH  37  38
ATOM     38  C   UNL     1      -4.025   7.349 129.661  0.00  0.00    +0.000 C 
ATOM     39  F   UNL     1      -3.785   7.401 128.333  0.00  0.00    +0.000 F 
ATOM     40  F   UNL     1      -4.683   8.448 130.050  0.00  0.00    +0.000 F 
ATOM     41  F   UNL     1      -2.812   7.354 130.280  0.00  0.00    +0.000 F 
ENDBRANCH  37  38
ENDBRANCH  36  37
ENDBRANCH   6  36
TORSDOF 10
ENDMDL
