MODEL 1
REMARK VINA RESULT:     -11.8      0.000      0.000
REMARK  Name = CHEMBL2112376
REMARK  12 active torsions:
REMARK  status: ('A' for Active; 'I' for Inactive)
REMARK    1  A    between atoms: C_1  and  C_2
REMARK    2  A    between atoms: C_2  and  C_3
REMARK    3  A    between atoms: C_3  and  C_4
REMARK    4  A    between atoms: C_3  and  C_5
REMARK    5  A    between atoms: C_9  and  C_10
REMARK    6  A    between atoms: C_10  and  C_11
REMARK    7  A    between atoms: C_10  and  C_12
REMARK    8  A    between atoms: C_12  and  C_13
REMARK    9  A    between atoms: C_17  and  C_18
REMARK   10  A    between atoms: C_18  and  C_19
REMARK   11  A    between atoms: C_43  and  C_44
REMARK   12  A    between atoms: C_44  and  C_45
REMARK                            x       y       z     vdW  Elec       q    Type
REMARK                         _______ _______ _______ _____ _____    ______ ____
ROOT
ATOM      1  C   UNL     1      -7.594   0.051 126.774  0.00  0.00    +0.000 C 
ATOM      2  N   UNL     1      -7.747   1.325 128.860  0.00  0.00    +0.000 N 
ATOM      3  C   UNL     1      -7.262   2.446 130.608  0.00  0.00    +0.000 C 
ATOM      4  O   UNL     1      -7.521   3.809 130.821  0.00  0.00    +0.000 OA
ATOM      5  C   UNL     1      -6.419   3.469 132.526  0.00  0.00    +0.000 C 
ATOM      6  N   UNL     1      -5.132   3.698 132.334  0.00  0.00    +0.000 N 
ATOM      7  C   UNL     1      -5.028   4.554 131.378  0.00  0.00    +0.000 C 
ATOM      8  O   UNL     1      -4.165   4.084 130.626  0.00  0.00    +0.000 OA
ATOM      9  C   UNL     1      -6.169   5.848 131.170  0.00  0.00    +0.000 C 
ATOM     10  N   UNL     1      -5.333   6.966 130.731  0.00  0.00    +0.000 N 
ATOM     11  C   UNL     1      -4.573   7.005 129.567  0.00  0.00    +0.000 C 
ATOM     12  O   UNL     1      -3.858   7.974 129.305  0.00  0.00    +0.000 OA
ATOM     13  C   UNL     1      -4.596   5.848 128.585  0.00  0.00    +0.000 C 
ATOM     14  C   UNL     1      -5.605   4.833 128.812  0.00  0.00    +0.000 C 
ATOM     15  C   UNL     1      -5.361   3.731 127.936  0.00  0.00    +0.000 C 
ATOM     16  S   UNL     1      -6.130   2.575 128.686  0.00  0.00    +0.000 S 
ATOM     17  C   UNL     1      -6.335   1.047 127.750  0.00  0.00    +0.000 C 
ATOM     18  C   UNL     1      -7.556  -0.489 128.485  0.00  0.00    +0.000 C 
ATOM     19  C   UNL     1      -7.108  -0.879 129.754  0.00  0.00    +0.000 C 
ATOM     20  C   UNL     1      -7.504  -2.318 129.671  0.00  0.00    +0.000 C 
ATOM     21  C   UNL     1      -8.262  -2.688 128.446  0.00  0.00    +0.000 C 
ATOM     22  N   UNL     1      -7.580  -1.791 127.700  0.00  0.00    +0.000 N 
ATOM     23  C   UNL     1      -6.661  -2.533 126.555  0.00  0.00    +0.000 C 
ATOM     24  O   UNL     1      -7.320  -3.445 125.729  0.00  0.00    +0.000 OA
ATOM     25  C   UNL     1      -5.907  -0.910 125.507  0.00  0.00    +0.000 C 
ATOM     26  N   UNL     1      -5.265  -1.568 124.616  0.00  0.00    +0.000 N 
ATOM     27  C   UNL     1      -6.643  -1.260 125.190  0.00  0.00    +0.000 C 
ATOM     28  O   UNL     1      -6.484  -2.391 124.167  0.00  0.00    +0.000 OA
ATOM     29  H   UNL     1      -8.142   1.423 130.114  0.00  0.00    +0.000 HD
ATOM     30  H   UNL     1      -4.623   2.902 132.499  0.00  0.00    +0.000 HD
ATOM     31  H   UNL     1      -5.314   7.753 131.363  0.00  0.00    +0.000 HD
ATOM     32  H   UNL     1      -4.455  -2.051 124.885  0.00  0.00    +0.000 HD
ENDROOT
BRANCH   1  33
ATOM     33  C   UNL     1      -8.440  -0.879 125.019  0.00  0.00    +0.000 C 
ATOM     34  C   UNL     1      -9.690  -0.500 125.427  0.00  0.00    +0.000 C 
BRANCH  33  36
ATOM     35  C   UNL     1      -9.387  -2.423 123.732  0.00  0.00    +0.000 C 
ATOM     36  C   UNL     1      -9.173  -1.065 123.302  0.00  0.00    +0.000 C 
ENDBRANCH  33  36
ENDBRANCH   1  33
BRANCH   5  37
ATOM     37  C   UNL     1      -5.709   5.142 133.757  0.00  0.00    +0.000 C 
ATOM     38  C   UNL     1      -4.165   5.705 134.122  0.00  0.00    +0.000 C 
BRANCH  37  39
ATOM     39  C   UNL     1      -6.330   5.806 135.393  0.00  0.00    +0.000 C 
ATOM     40  C   UNL     1      -7.692   5.229 135.596  0.00  0.00    +0.000 C 
ENDBRANCH  37  39
ENDBRANCH   5  37
BRANCH   9  41
ATOM     41  C   UNL     1      -7.226   6.101 132.282  0.00  0.00    +0.000 C 
BRANCH  41  42
ATOM     42  C   UNL     1      -8.916   6.087 132.190  0.00  0.00    +0.000 A 
ATOM     43  C   UNL     1      -9.951   5.160 132.536  0.00  0.00    +0.000 A 
ATOM     44  N   UNL     1     -11.165   5.337 131.848  0.00  0.00    +0.000 N 
ATOM     45  C   UNL     1     -10.804   6.203 130.874  0.00  0.00    +0.000 A 
ATOM     46  C   UNL     1     -11.562   6.680 129.882  0.00  0.00    +0.000 A 
ATOM     47  C   UNL     1     -10.998   7.582 129.028  0.00  0.00    +0.000 A 
ATOM     48  C   UNL     1      -9.683   7.962 129.053  0.00  0.00    +0.000 A 
ATOM     49  C   UNL     1      -8.897   7.539 130.072  0.00  0.00    +0.000 A 
ATOM     50  C   UNL     1      -9.521   6.742 131.097  0.00  0.00    +0.000 A 
ATOM     51  H   UNL     1     -11.830   4.595 132.061  0.00  0.00    +0.000 HD
ENDBRANCH  41  42
ENDBRANCH   9  41
BRANCH  25  52
ATOM     52  C   UNL     1      -6.710   0.338 124.072  0.00  0.00    +0.000 C 
BRANCH  52  53
ATOM     53  C   UNL     1      -6.720   1.826 123.859  0.00  0.00    +0.000 C 
ATOM     54  N   UNL     1      -6.015   2.661 124.652  0.00  0.00    +0.000 N 
ATOM     55  O   UNL     1      -7.462   2.208 122.948  0.00  0.00    +0.000 OA
ATOM     56  H   UNL     1      -5.320   2.353 125.333  0.00  0.00    +0.000 HD
ATOM     57  H   UNL     1      -6.156   3.660 124.573  0.00  0.00    +0.000 HD
ENDBRANCH  52  53
ENDBRANCH  25  52
TORSDOF 8
ENDMDL
MODEL 2
REMARK VINA RESULT:     -11.4      3.843      6.195
REMARK  Name = CHEMBL2112376
REMARK  12 active torsions:
REMARK  status: ('A' for Active; 'I' for Inactive)
REMARK    1  A    between atoms: C_1  and  C_2
REMARK    2  A    between atoms: C_2  and  C_3
REMARK    3  A    between atoms: C_3  and  C_4
REMARK    4  A    between atoms: C_3  and  C_5
REMARK    5  A    between atoms: C_9  and  C_10
REMARK    6  A    between atoms: C_10  and  C_11
REMARK    7  A    between atoms: C_10  and  C_12
REMARK    8  A    between atoms: C_12  and  C_13
REMARK    9  A    between atoms: C_17  and  C_18
REMARK   10  A    between atoms: C_18  and  C_19
REMARK   11  A    between atoms: C_43  and  C_44
REMARK   12  A    between atoms: C_44  and  C_45
REMARK                            x       y       z     vdW  Elec       q    Type
REMARK                         _______ _______ _______ _____ _____    ______ ____
ROOT
ATOM      1  C   UNL     1      -5.571   3.865 129.819  0.00  0.00    +0.000 C 
ATOM      2  N   UNL     1      -6.112   4.456 132.134  0.00  0.00    +0.000 N 
ATOM      3  C   UNL     1      -5.981   4.835 134.228  0.00  0.00    +0.000 C 
ATOM      4  O   UNL     1      -6.046   6.090 134.852  0.00  0.00    +0.000 OA
ATOM      5  C   UNL     1      -5.584   4.978 136.521  0.00  0.00    +0.000 C 
ATOM      6  N   UNL     1      -4.279   4.900 136.714  0.00  0.00    +0.000 N 
ATOM      7  C   UNL     1      -3.744   5.940 136.176  0.00  0.00    +0.000 C 
ATOM      8  O   UNL     1      -2.793   5.501 135.517  0.00  0.00    +0.000 OA
ATOM      9  C   UNL     1      -4.521   7.494 136.199  0.00  0.00    +0.000 C 
ATOM     10  N   UNL     1      -3.408   8.425 136.386  0.00  0.00    +0.000 N 
ATOM     11  C   UNL     1      -2.341   8.602 135.513  0.00  0.00    +0.000 C 
ATOM     12  O   UNL     1      -1.420   9.377 135.781  0.00  0.00    +0.000 OA
ATOM     13  C   UNL     1      -2.273   7.839 134.203  0.00  0.00    +0.000 C 
ATOM     14  C   UNL     1      -3.468   7.111 133.822  0.00  0.00    +0.000 C 
ATOM     15  C   UNL     1      -3.172   6.296 132.687  0.00  0.00    +0.000 C 
ATOM     16  S   UNL     1      -4.322   5.220 132.782  0.00  0.00    +0.000 S 
ATOM     17  C   UNL     1      -4.505   4.152 131.340  0.00  0.00    +0.000 C 
ATOM     18  C   UNL     1      -6.142   2.853 131.186  0.00  0.00    +0.000 C 
ATOM     19  C   UNL     1      -6.171   1.999 132.297  0.00  0.00    +0.000 C 
ATOM     20  C   UNL     1      -6.773   0.810 131.618  0.00  0.00    +0.000 C 
ATOM     21  C   UNL     1      -7.183   1.038 130.207  0.00  0.00    +0.000 C 
ATOM     22  N   UNL     1      -6.161   1.899 130.002  0.00  0.00    +0.000 N 
ATOM     23  C   UNL     1      -5.089   1.312 128.902  0.00  0.00    +0.000 C 
ATOM     24  O   UNL     1      -5.621   0.898 127.680  0.00  0.00    +0.000 OA
ATOM     25  C   UNL     1      -3.780   2.909 128.700  0.00  0.00    +0.000 C 
ATOM     26  N   UNL     1      -3.028   2.398 127.798  0.00  0.00    +0.000 N 
ATOM     27  C   UNL     1      -4.438   2.879 128.124  0.00  0.00    +0.000 C 
ATOM     28  O   UNL     1      -4.183   2.103 126.826  0.00  0.00    +0.000 OA
ATOM     29  H   UNL     1      -6.840   4.279 133.219  0.00  0.00    +0.000 HD
ATOM     30  H   UNL     1      -3.992   3.985 136.691  0.00  0.00    +0.000 HD
ATOM     31  H   UNL     1      -3.439   8.954 137.246  0.00  0.00    +0.000 HD
ATOM     32  H   UNL     1      -2.435   1.658 128.049  0.00  0.00    +0.000 HD
ENDROOT
BRANCH   1  33
ATOM     33  C   UNL     1      -6.004   3.760 127.707  0.00  0.00    +0.000 C 
ATOM     34  C   UNL     1      -7.276   4.199 127.951  0.00  0.00    +0.000 C 
BRANCH  33  36
ATOM     35  C   UNL     1      -7.042   3.094 125.859  0.00  0.00    +0.000 C 
ATOM     36  C   UNL     1      -6.269   4.308 125.933  0.00  0.00    +0.000 C 
ENDBRANCH  33  36
ENDBRANCH   1  33
BRANCH   5  37
ATOM     37  C   UNL     1      -4.989   5.956 138.394  0.00  0.00    +0.000 C 
ATOM     38  C   UNL     1      -3.548   5.956 139.265  0.00  0.00    +0.000 C 
BRANCH  37  39
ATOM     39  C   UNL     1      -5.941   6.239 139.981  0.00  0.00    +0.000 C 
ATOM     40  C   UNL     1      -7.360   5.874 139.696  0.00  0.00    +0.000 C 
ENDBRANCH  37  39
ENDBRANCH   5  37
BRANCH   9  41
ATOM     41  C   UNL     1      -5.800   7.679 137.064  0.00  0.00    +0.000 C 
BRANCH  41  42
ATOM     42  C   UNL     1      -6.428   9.080 137.778  0.00  0.00    +0.000 A 
ATOM     43  C   UNL     1      -6.043   9.939 138.856  0.00  0.00    +0.000 A 
ATOM     44  N   UNL     1      -7.088  10.689 139.424  0.00  0.00    +0.000 N 
ATOM     45  C   UNL     1      -8.176  10.097 138.881  0.00  0.00    +0.000 A 
ATOM     46  C   UNL     1      -9.462  10.376 139.118  0.00  0.00    +0.000 A 
ATOM     47  C   UNL     1     -10.403   9.675 138.422  0.00  0.00    +0.000 A 
ATOM     48  C   UNL     1     -10.130   8.639 137.570  0.00  0.00    +0.000 A 
ATOM     49  C   UNL     1      -8.839   8.361 137.267  0.00  0.00    +0.000 A 
ATOM     50  C   UNL     1      -7.831   9.216 137.838  0.00  0.00    +0.000 A 
ATOM     51  H   UNL     1      -6.777  11.207 140.245  0.00  0.00    +0.000 HD
ENDBRANCH  41  42
ENDBRANCH   9  41
BRANCH  25  52
ATOM     52  C   UNL     1      -3.882   4.693 127.667  0.00  0.00    +0.000 C 
BRANCH  52  53
ATOM     53  C   UNL     1      -3.363   6.082 127.915  0.00  0.00    +0.000 C 
ATOM     54  N   UNL     1      -2.045   6.329 128.074  0.00  0.00    +0.000 N 
ATOM     55  O   UNL     1      -4.240   6.947 128.013  0.00  0.00    +0.000 OA
ATOM     56  H   UNL     1      -1.309   5.647 127.889  0.00  0.00    +0.000 HD
ATOM     57  H   UNL     1      -1.744   7.245 128.380  0.00  0.00    +0.000 HD
ENDBRANCH  52  53
ENDBRANCH  25  52
TORSDOF 8
ENDMDL
MODEL 3
REMARK VINA RESULT:     -10.9      6.512      9.860
REMARK  Name = CHEMBL2112376
REMARK  12 active torsions:
REMARK  status: ('A' for Active; 'I' for Inactive)
REMARK    1  A    between atoms: C_1  and  C_2
REMARK    2  A    between atoms: C_2  and  C_3
REMARK    3  A    between atoms: C_3  and  C_4
REMARK    4  A    between atoms: C_3  and  C_5
REMARK    5  A    between atoms: C_9  and  C_10
REMARK    6  A    between atoms: C_10  and  C_11
REMARK    7  A    between atoms: C_10  and  C_12
REMARK    8  A    between atoms: C_12  and  C_13
REMARK    9  A    between atoms: C_17  and  C_18
REMARK   10  A    between atoms: C_18  and  C_19
REMARK   11  A    between atoms: C_43  and  C_44
REMARK   12  A    between atoms: C_44  and  C_45
REMARK                            x       y       z     vdW  Elec       q    Type
REMARK                         _______ _______ _______ _____ _____    ______ ____
ROOT
ATOM      1  C   UNL     1      -2.624  -3.453 135.530  0.00  0.00    +0.000 C 
ATOM      2  N   UNL     1      -3.427  -1.607 134.134  0.00  0.00    +0.000 N 
ATOM      3  C   UNL     1      -3.997  -0.408 132.466  0.00  0.00    +0.000 C 
ATOM      4  O   UNL     1      -5.305  -0.041 132.113  0.00  0.00    +0.000 OA
ATOM      5  C   UNL     1      -4.348   0.726 130.460  0.00  0.00    +0.000 C 
ATOM      6  N   UNL     1      -4.282  -0.155 129.477  0.00  0.00    +0.000 N 
ATOM      7  C   UNL     1      -5.265  -0.972 129.621  0.00  0.00    +0.000 C 
ATOM      8  O   UNL     1      -4.763  -2.096 129.493  0.00  0.00    +0.000 OA
ATOM      9  C   UNL     1      -6.819  -0.454 130.203  0.00  0.00    +0.000 C 
ATOM     10  N   UNL     1      -7.757  -1.253 129.415  0.00  0.00    +0.000 N 
ATOM     11  C   UNL     1      -7.848  -2.640 129.420  0.00  0.00    +0.000 C 
ATOM     12  O   UNL     1      -8.640  -3.230 128.682  0.00  0.00    +0.000 OA
ATOM     13  C   UNL     1      -6.968  -3.473 130.333  0.00  0.00    +0.000 C 
ATOM     14  C   UNL     1      -6.214  -2.747 131.336  0.00  0.00    +0.000 C 
ATOM     15  C   UNL     1      -5.296  -3.642 131.966  0.00  0.00    +0.000 C 
ATOM     16  S   UNL     1      -4.239  -2.627 132.550  0.00  0.00    +0.000 S 
ATOM     17  C   UNL     1      -3.044  -3.331 133.703  0.00  0.00    +0.000 C 
ATOM     18  C   UNL     1      -1.744  -2.084 134.773  0.00  0.00    +0.000 C 
ATOM     19  C   UNL     1      -0.997  -1.306 133.879  0.00  0.00    +0.000 C 
ATOM     20  C   UNL     1       0.247  -1.197 134.703  0.00  0.00    +0.000 C 
ATOM     21  C   UNL     1       0.149  -1.787 136.064  0.00  0.00    +0.000 C 
ATOM     22  N   UNL     1      -0.685  -2.760 135.631  0.00  0.00    +0.000 N 
ATOM     23  C   UNL     1       0.006  -4.247 135.756  0.00  0.00    +0.000 C 
ATOM     24  O   UNL     1       0.527  -4.583 137.006  0.00  0.00    +0.000 OA
ATOM     25  C   UNL     1      -1.560  -5.483 135.188  0.00  0.00    +0.000 C 
ATOM     26  N   UNL     1      -0.964  -6.603 135.370  0.00  0.00    +0.000 N 
ATOM     27  C   UNL     1      -1.481  -5.339 136.047  0.00  0.00    +0.000 C 
ATOM     28  O   UNL     1      -0.587  -6.308 136.831  0.00  0.00    +0.000 OA
ATOM     29  H   UNL     1      -3.355  -0.348 133.750  0.00  0.00    +0.000 HD
ATOM     30  H   UNL     1      -3.367  -0.333 129.250  0.00  0.00    +0.000 HD
ATOM     31  H   UNL     1      -8.363  -0.718 128.810  0.00  0.00    +0.000 HD
ATOM     32  H   UNL     1      -0.248  -6.856 134.749  0.00  0.00    +0.000 HD
ENDROOT
BRANCH   1  33
ATOM     33  C   UNL     1      -2.327  -4.448 137.423  0.00  0.00    +0.000 C 
ATOM     34  C   UNL     1      -2.884  -3.378 138.067  0.00  0.00    +0.000 C 
BRANCH  33  36
ATOM     35  C   UNL     1      -1.516  -4.784 139.464  0.00  0.00    +0.000 C 
ATOM     36  C   UNL     1      -2.701  -5.439 138.971  0.00  0.00    +0.000 C 
ENDBRANCH  33  36
ENDBRANCH   1  33
BRANCH   5  37
ATOM     37  C   UNL     1      -5.491   1.391 128.708  0.00  0.00    +0.000 C 
ATOM     38  C   UNL     1      -5.430   0.956 127.082  0.00  0.00    +0.000 C 
BRANCH  37  39
ATOM     39  C   UNL     1      -6.106   3.091 128.222  0.00  0.00    +0.000 C 
ATOM     40  C   UNL     1      -5.388   4.067 129.093  0.00  0.00    +0.000 C 
ENDBRANCH  37  39
ENDBRANCH   5  37
BRANCH   9  41
ATOM     41  C   UNL     1      -7.089   1.069 130.363  0.00  0.00    +0.000 C 
BRANCH  41  42
ATOM     42  C   UNL     1      -8.448   1.866 130.981  0.00  0.00    +0.000 A 
ATOM     43  C   UNL     1      -9.550   2.591 130.425  0.00  0.00    +0.000 A 
ATOM     44  N   UNL     1     -10.174   3.495 131.303  0.00  0.00    +0.000 N 
ATOM     45  C   UNL     1      -9.293   3.534 132.328  0.00  0.00    +0.000 A 
ATOM     46  C   UNL     1      -9.355   4.286 133.431  0.00  0.00    +0.000 A 
ATOM     47  C   UNL     1      -8.369   4.132 134.361  0.00  0.00    +0.000 A 
ATOM     48  C   UNL     1      -7.267   3.336 134.204  0.00  0.00    +0.000 A 
ATOM     49  C   UNL     1      -7.194   2.523 133.123  0.00  0.00    +0.000 A 
ATOM     50  C   UNL     1      -8.318   2.522 132.223  0.00  0.00    +0.000 A 
ATOM     51  H   UNL     1     -10.885   4.050 130.829  0.00  0.00    +0.000 HD
ENDBRANCH  41  42
ENDBRANCH   9  41
BRANCH  25  52
ATOM     52  C   UNL     1      -3.242  -6.169 136.169  0.00  0.00    +0.000 C 
BRANCH  52  53
ATOM     53  C   UNL     1      -4.673  -6.393 135.769  0.00  0.00    +0.000 C 
ATOM     54  N   UNL     1      -5.632  -6.662 136.681  0.00  0.00    +0.000 N 
ATOM     55  O   UNL     1      -4.875  -6.365 134.550  0.00  0.00    +0.000 OA
ATOM     56  H   UNL     1      -5.500  -6.582 137.690  0.00  0.00    +0.000 HD
ATOM     57  H   UNL     1      -6.551  -6.948 136.368  0.00  0.00    +0.000 HD
ENDBRANCH  52  53
ENDBRANCH  25  52
TORSDOF 8
ENDMDL
MODEL 4
REMARK VINA RESULT:     -10.8      4.592      8.111
REMARK  Name = CHEMBL2112376
REMARK  12 active torsions:
REMARK  status: ('A' for Active; 'I' for Inactive)
REMARK    1  A    between atoms: C_1  and  C_2
REMARK    2  A    between atoms: C_2  and  C_3
REMARK    3  A    between atoms: C_3  and  C_4
REMARK    4  A    between atoms: C_3  and  C_5
REMARK    5  A    between atoms: C_9  and  C_10
REMARK    6  A    between atoms: C_10  and  C_11
REMARK    7  A    between atoms: C_10  and  C_12
REMARK    8  A    between atoms: C_12  and  C_13
REMARK    9  A    between atoms: C_17  and  C_18
REMARK   10  A    between atoms: C_18  and  C_19
REMARK   11  A    between atoms: C_43  and  C_44
REMARK   12  A    between atoms: C_44  and  C_45
REMARK                            x       y       z     vdW  Elec       q    Type
REMARK                         _______ _______ _______ _____ _____    ______ ____
ROOT
ATOM      1  C   UNL     1      -4.525  -2.104 133.177  0.00  0.00    +0.000 C 
ATOM      2  N   UNL     1      -3.893   0.045 132.187  0.00  0.00    +0.000 N 
ATOM      3  C   UNL     1      -3.948   2.031 131.410  0.00  0.00    +0.000 C 
ATOM      4  O   UNL     1      -3.387   3.172 132.003  0.00  0.00    +0.000 OA
ATOM      5  C   UNL     1      -4.353   4.116 130.452  0.00  0.00    +0.000 C 
ATOM      6  N   UNL     1      -5.576   4.488 130.788  0.00  0.00    +0.000 N 
ATOM      7  C   UNL     1      -5.595   4.654 132.063  0.00  0.00    +0.000 C 
ATOM      8  O   UNL     1      -6.611   4.058 132.444  0.00  0.00    +0.000 OA
ATOM      9  C   UNL     1      -4.235   5.300 132.930  0.00  0.00    +0.000 C 
ATOM     10  N   UNL     1      -4.856   6.134 133.960  0.00  0.00    +0.000 N 
ATOM     11  C   UNL     1      -5.706   5.687 134.965  0.00  0.00    +0.000 C 
ATOM     12  O   UNL     1      -6.224   6.475 135.759  0.00  0.00    +0.000 OA
ATOM     13  C   UNL     1      -6.029   4.211 135.110  0.00  0.00    +0.000 C 
ATOM     14  C   UNL     1      -5.239   3.299 134.307  0.00  0.00    +0.000 C 
ATOM     15  C   UNL     1      -5.799   1.989 134.406  0.00  0.00    +0.000 C 
ATOM     16  S   UNL     1      -5.219   1.315 133.103  0.00  0.00    +0.000 S 
ATOM     17  C   UNL     1      -5.439  -0.472 132.992  0.00  0.00    +0.000 C 
ATOM     18  C   UNL     1      -4.501  -1.561 131.467  0.00  0.00    +0.000 C 
ATOM     19  C   UNL     1      -4.888  -1.053 130.220  0.00  0.00    +0.000 C 
ATOM     20  C   UNL     1      -4.815  -2.334 129.452  0.00  0.00    +0.000 C 
ATOM     21  C   UNL     1      -4.283  -3.493 130.218  0.00  0.00    +0.000 C 
ATOM     22  N   UNL     1      -4.833  -3.042 131.368  0.00  0.00    +0.000 N 
ATOM     23  C   UNL     1      -6.001  -4.062 131.917  0.00  0.00    +0.000 C 
ATOM     24  O   UNL     1      -5.638  -5.402 132.051  0.00  0.00    +0.000 OA
ATOM     25  C   UNL     1      -6.498  -3.187 133.731  0.00  0.00    +0.000 C 
ATOM     26  N   UNL     1      -7.353  -4.062 134.111  0.00  0.00    +0.000 N 
ATOM     27  C   UNL     1      -5.890  -3.814 133.764  0.00  0.00    +0.000 C 
ATOM     28  O   UNL     1      -6.388  -5.251 133.964  0.00  0.00    +0.000 OA
ATOM     29  H   UNL     1      -3.359   0.736 131.199  0.00  0.00    +0.000 HD
ATOM     30  H   UNL     1      -6.222   4.068 130.217  0.00  0.00    +0.000 HD
ATOM     31  H   UNL     1      -4.644   7.119 133.891  0.00  0.00    +0.000 HD
ATOM     32  H   UNL     1      -8.215  -4.106 133.644  0.00  0.00    +0.000 HD
ENDROOT
BRANCH   1  33
ATOM     33  C   UNL     1      -4.080  -4.025 134.055  0.00  0.00    +0.000 C 
ATOM     34  C   UNL     1      -2.743  -3.783 133.896  0.00  0.00    +0.000 C 
BRANCH  33  36
ATOM     35  C   UNL     1      -3.328  -6.113 134.165  0.00  0.00    +0.000 C 
ATOM     36  C   UNL     1      -3.586  -5.308 135.332  0.00  0.00    +0.000 C 
ENDBRANCH  33  36
ENDBRANCH   1  33
BRANCH   5  37
ATOM     37  C   UNL     1      -4.564   6.300 130.422  0.00  0.00    +0.000 C 
ATOM     38  C   UNL     1      -5.891   7.315 130.638  0.00  0.00    +0.000 C 
BRANCH  37  39
ATOM     39  C   UNL     1      -3.765   7.592 129.327  0.00  0.00    +0.000 C 
ATOM     40  C   UNL     1      -2.729   6.881 128.521  0.00  0.00    +0.000 C 
ENDBRANCH  37  39
ENDBRANCH   5  37
BRANCH   9  41
ATOM     41  C   UNL     1      -3.039   5.881 132.123  0.00  0.00    +0.000 C 
BRANCH  41  42
ATOM     42  C   UNL     1      -1.598   6.575 132.676  0.00  0.00    +0.000 A 
ATOM     43  C   UNL     1      -0.591   6.219 133.631  0.00  0.00    +0.000 A 
ATOM     44  N   UNL     1       0.164   7.295 134.130  0.00  0.00    +0.000 N 
ATOM     45  C   UNL     1      -0.549   8.357 133.693  0.00  0.00    +0.000 A 
ATOM     46  C   UNL     1      -0.315   9.652 133.928  0.00  0.00    +0.000 A 
ATOM     47  C   UNL     1      -1.148  10.564 133.348  0.00  0.00    +0.000 A 
ATOM     48  C   UNL     1      -2.264  10.249 132.622  0.00  0.00    +0.000 A 
ATOM     49  C   UNL     1      -2.506   8.950 132.322  0.00  0.00    +0.000 A 
ATOM     50  C   UNL     1      -1.533   7.982 132.756  0.00  0.00    +0.000 A 
ATOM     51  H   UNL     1       0.796   6.998 134.873  0.00  0.00    +0.000 HD
ENDBRANCH  41  42
ENDBRANCH   9  41
BRANCH  25  52
ATOM     52  C   UNL     1      -5.603  -3.191 135.591  0.00  0.00    +0.000 C 
BRANCH  52  53
ATOM     53  C   UNL     1      -5.600  -2.243 136.758  0.00  0.00    +0.000 C 
ATOM     54  N   UNL     1      -4.824  -2.454 137.842  0.00  0.00    +0.000 N 
ATOM     55  O   UNL     1      -6.399  -1.306 136.659  0.00  0.00    +0.000 OA
ATOM     56  H   UNL     1      -4.087  -3.159 137.889  0.00  0.00    +0.000 HD
ATOM     57  H   UNL     1      -4.951  -1.880 138.665  0.00  0.00    +0.000 HD
ENDBRANCH  52  53
ENDBRANCH  25  52
TORSDOF 8
ENDMDL
MODEL 5
REMARK VINA RESULT:     -10.7      2.829      9.437
REMARK  Name = CHEMBL2112376
REMARK  12 active torsions:
REMARK  status: ('A' for Active; 'I' for Inactive)
REMARK    1  A    between atoms: C_1  and  C_2
REMARK    2  A    between atoms: C_2  and  C_3
REMARK    3  A    between atoms: C_3  and  C_4
REMARK    4  A    between atoms: C_3  and  C_5
REMARK    5  A    between atoms: C_9  and  C_10
REMARK    6  A    between atoms: C_10  and  C_11
REMARK    7  A    between atoms: C_10  and  C_12
REMARK    8  A    between atoms: C_12  and  C_13
REMARK    9  A    between atoms: C_17  and  C_18
REMARK   10  A    between atoms: C_18  and  C_19
REMARK   11  A    between atoms: C_43  and  C_44
REMARK   12  A    between atoms: C_44  and  C_45
REMARK                            x       y       z     vdW  Elec       q    Type
REMARK                         _______ _______ _______ _____ _____    ______ ____
ROOT
ATOM      1  C   UNL     1      -5.968   3.158 131.130  0.00  0.00    +0.000 C 
ATOM      2  N   UNL     1      -6.918   2.037 129.170  0.00  0.00    +0.000 N 
ATOM      3  C   UNL     1      -7.863   1.650 127.298  0.00  0.00    +0.000 C 
ATOM      4  O   UNL     1      -7.239   1.180 126.132  0.00  0.00    +0.000 OA
ATOM      5  C   UNL     1      -9.100   1.530 125.326  0.00  0.00    +0.000 C 
ATOM      6  N   UNL     1      -9.201   2.752 124.833  0.00  0.00    +0.000 N 
ATOM      7  C   UNL     1      -8.018   3.138 124.508  0.00  0.00    +0.000 C 
ATOM      8  O   UNL     1      -7.916   4.277 124.981  0.00  0.00    +0.000 OA
ATOM      9  C   UNL     1      -6.837   2.045 123.852  0.00  0.00    +0.000 C 
ATOM     10  N   UNL     1      -6.140   2.859 122.856  0.00  0.00    +0.000 N 
ATOM     11  C   UNL     1      -5.412   4.015 123.115  0.00  0.00    +0.000 C 
ATOM     12  O   UNL     1      -4.900   4.665 122.201  0.00  0.00    +0.000 OA
ATOM     13  C   UNL     1      -5.231   4.517 124.535  0.00  0.00    +0.000 C 
ATOM     14  C   UNL     1      -5.654   3.619 125.593  0.00  0.00    +0.000 C 
ATOM     15  C   UNL     1      -5.606   4.315 126.839  0.00  0.00    +0.000 C 
ATOM     16  S   UNL     1      -6.590   3.440 127.709  0.00  0.00    +0.000 S 
ATOM     17  C   UNL     1      -6.589   3.799 129.476  0.00  0.00    +0.000 C 
ATOM     18  C   UNL     1      -7.630   2.561 130.809  0.00  0.00    +0.000 C 
ATOM     19  C   UNL     1      -8.979   2.498 130.435  0.00  0.00    +0.000 C 
ATOM     20  C   UNL     1      -9.556   2.329 131.805  0.00  0.00    +0.000 C 
ATOM     21  C   UNL     1      -8.553   2.176 132.891  0.00  0.00    +0.000 C 
ATOM     22  N   UNL     1      -7.682   2.999 132.265  0.00  0.00    +0.000 N 
ATOM     23  C   UNL     1      -7.427   4.376 133.126  0.00  0.00    +0.000 C 
ATOM     24  O   UNL     1      -7.056   4.211 134.461  0.00  0.00    +0.000 OA
ATOM     25  C   UNL     1      -5.955   5.306 132.000  0.00  0.00    +0.000 C 
ATOM     26  N   UNL     1      -5.777   6.322 132.761  0.00  0.00    +0.000 N 
ATOM     27  C   UNL     1      -5.672   4.804 132.657  0.00  0.00    +0.000 C 
ATOM     28  O   UNL     1      -5.497   5.485 134.021  0.00  0.00    +0.000 OA
ATOM     29  H   UNL     1      -7.752   1.162 128.645  0.00  0.00    +0.000 HD
ATOM     30  H   UNL     1      -9.901   3.234 125.277  0.00  0.00    +0.000 HD
ATOM     31  H   UNL     1      -6.236   2.536 121.904  0.00  0.00    +0.000 HD
ATOM     32  H   UNL     1      -6.482   7.001 132.804  0.00  0.00    +0.000 HD
ENDROOT
BRANCH   1  33
ATOM     33  C   UNL     1      -4.811   3.199 132.952  0.00  0.00    +0.000 C 
ATOM     34  C   UNL     1      -4.560   1.861 132.817  0.00  0.00    +0.000 C 
BRANCH  33  36
ATOM     35  C   UNL     1      -4.264   2.730 135.054  0.00  0.00    +0.000 C 
ATOM     36  C   UNL     1      -3.325   3.254 134.096  0.00  0.00    +0.000 C 
ENDBRANCH  33  36
ENDBRANCH   1  33
BRANCH   5  37
ATOM     37  C   UNL     1      -9.408   1.496 123.153  0.00  0.00    +0.000 C 
ATOM     38  C   UNL     1      -9.521   2.722 122.004  0.00  0.00    +0.000 C 
BRANCH  37  39
ATOM     39  C   UNL     1     -10.500   0.408 122.090  0.00  0.00    +0.000 C 
ATOM     40  C   UNL     1      -9.990  -0.986 122.245  0.00  0.00    +0.000 C 
ENDBRANCH  37  39
ENDBRANCH   5  37
BRANCH   9  41
ATOM     41  C   UNL     1      -7.283   0.608 123.459  0.00  0.00    +0.000 C 
BRANCH  41  42
ATOM     42  C   UNL     1      -6.545  -0.880 123.783  0.00  0.00    +0.000 A 
ATOM     43  C   UNL     1      -5.629  -1.739 123.095  0.00  0.00    +0.000 A 
ATOM     44  N   UNL     1      -5.660  -3.087 123.494  0.00  0.00    +0.000 N 
ATOM     45  C   UNL     1      -6.786  -3.125 124.242  0.00  0.00    +0.000 A 
ATOM     46  C   UNL     1      -7.338  -4.188 124.836  0.00  0.00    +0.000 A 
ATOM     47  C   UNL     1      -8.462  -3.986 125.582  0.00  0.00    +0.000 A 
ATOM     48  C   UNL     1      -9.123  -2.793 125.689  0.00  0.00    +0.000 A 
ATOM     49  C   UNL     1      -8.568  -1.684 125.143  0.00  0.00    +0.000 A 
ATOM     50  C   UNL     1      -7.280  -1.834 124.517  0.00  0.00    +0.000 A 
ATOM     51  H   UNL     1      -5.061  -3.667 122.909  0.00  0.00    +0.000 HD
ENDBRANCH  41  42
ENDBRANCH   9  41
BRANCH  25  52
ATOM     52  C   UNL     1      -3.917   5.021 131.831  0.00  0.00    +0.000 C 
BRANCH  52  53
ATOM     53  C   UNL     1      -2.888   5.379 130.796  0.00  0.00    +0.000 C 
ATOM     54  N   UNL     1      -2.875   4.798 129.576  0.00  0.00    +0.000 N 
ATOM     55  O   UNL     1      -2.040   6.193 131.176  0.00  0.00    +0.000 OA
ATOM     56  H   UNL     1      -3.628   4.210 129.215  0.00  0.00    +0.000 HD
ATOM     57  H   UNL     1      -2.090   4.954 128.959  0.00  0.00    +0.000 HD
ENDBRANCH  52  53
ENDBRANCH  25  52
TORSDOF 8
ENDMDL
MODEL 6
REMARK VINA RESULT:     -10.5      3.998     11.027
REMARK  Name = CHEMBL2112376
REMARK  12 active torsions:
REMARK  status: ('A' for Active; 'I' for Inactive)
REMARK    1  A    between atoms: C_1  and  C_2
REMARK    2  A    between atoms: C_2  and  C_3
REMARK    3  A    between atoms: C_3  and  C_4
REMARK    4  A    between atoms: C_3  and  C_5
REMARK    5  A    between atoms: C_9  and  C_10
REMARK    6  A    between atoms: C_10  and  C_11
REMARK    7  A    between atoms: C_10  and  C_12
REMARK    8  A    between atoms: C_12  and  C_13
REMARK    9  A    between atoms: C_17  and  C_18
REMARK   10  A    between atoms: C_18  and  C_19
REMARK   11  A    between atoms: C_43  and  C_44
REMARK   12  A    between atoms: C_44  and  C_45
REMARK                            x       y       z     vdW  Elec       q    Type
REMARK                         _______ _______ _______ _____ _____    ______ ____
ROOT
ATOM      1  C   UNL     1      -5.913   6.463 136.578  0.00  0.00    +0.000 C 
ATOM      2  N   UNL     1      -5.537   5.000 134.650  0.00  0.00    +0.000 N 
ATOM      3  C   UNL     1      -5.718   3.447 133.200  0.00  0.00    +0.000 C 
ATOM      4  O   UNL     1      -6.095   3.602 131.858  0.00  0.00    +0.000 OA
ATOM      5  C   UNL     1      -6.051   1.545 131.895  0.00  0.00    +0.000 C 
ATOM      6  N   UNL     1      -7.228   1.033 132.213  0.00  0.00    +0.000 N 
ATOM      7  C   UNL     1      -8.128   1.886 131.867  0.00  0.00    +0.000 C 
ATOM      8  O   UNL     1      -8.875   1.971 132.850  0.00  0.00    +0.000 OA
ATOM      9  C   UNL     1      -7.976   2.859 130.436  0.00  0.00    +0.000 C 
ATOM     10  N   UNL     1      -9.345   2.923 129.925  0.00  0.00    +0.000 N 
ATOM     11  C   UNL     1     -10.436   3.476 130.586  0.00  0.00    +0.000 C 
ATOM     12  O   UNL     1     -11.566   3.437 130.095  0.00  0.00    +0.000 OA
ATOM     13  C   UNL     1     -10.268   4.139 131.941  0.00  0.00    +0.000 C 
ATOM     14  C   UNL     1      -8.906   4.360 132.384  0.00  0.00    +0.000 C 
ATOM     15  C   UNL     1      -8.925   4.798 133.743  0.00  0.00    +0.000 C 
ATOM     16  S   UNL     1      -7.457   4.436 134.195  0.00  0.00    +0.000 S 
ATOM     17  C   UNL     1      -6.949   5.109 135.790  0.00  0.00    +0.000 C 
ATOM     18  C   UNL     1      -4.957   4.953 136.419  0.00  0.00    +0.000 C 
ATOM     19  C   UNL     1      -4.574   3.606 136.437  0.00  0.00    +0.000 C 
ATOM     20  C   UNL     1      -3.603   3.690 137.572  0.00  0.00    +0.000 C 
ATOM     21  C   UNL     1      -3.360   5.064 138.086  0.00  0.00    +0.000 C 
ATOM     22  N   UNL     1      -4.635   5.434 137.826  0.00  0.00    +0.000 N 
ATOM     23  C   UNL     1      -5.457   5.776 139.208  0.00  0.00    +0.000 C 
ATOM     24  O   UNL     1      -4.858   6.691 140.074  0.00  0.00    +0.000 OA
ATOM     25  C   UNL     1      -7.268   6.457 138.459  0.00  0.00    +0.000 C 
ATOM     26  N   UNL     1      -7.813   6.752 139.580  0.00  0.00    +0.000 N 
ATOM     27  C   UNL     1      -6.668   7.072 138.625  0.00  0.00    +0.000 C 
ATOM     28  O   UNL     1      -6.669   7.673 140.036  0.00  0.00    +0.000 OA
ATOM     29  H   UNL     1      -4.754   4.192 133.963  0.00  0.00    +0.000 HD
ATOM     30  H   UNL     1      -7.159   0.508 133.013  0.00  0.00    +0.000 HD
ATOM     31  H   UNL     1      -9.477   2.499 129.018  0.00  0.00    +0.000 HD
ATOM     32  H   UNL     1      -8.083   6.020 140.174  0.00  0.00    +0.000 HD
ENDROOT
BRANCH   1  33
ATOM     33  C   UNL     1      -5.553   8.246 137.742  0.00  0.00    +0.000 C 
ATOM     34  C   UNL     1      -4.571   8.615 136.864  0.00  0.00    +0.000 C 
BRANCH  33  36
ATOM     35  C   UNL     1      -4.416   9.680 139.000  0.00  0.00    +0.000 C 
ATOM     36  C   UNL     1      -5.605  10.044 138.274  0.00  0.00    +0.000 C 
ENDBRANCH  33  36
ENDBRANCH   1  33
BRANCH   5  37
ATOM     37  C   UNL     1      -6.891   0.372 130.240  0.00  0.00    +0.000 C 
ATOM     38  C   UNL     1      -8.069  -0.829 130.185  0.00  0.00    +0.000 C 
BRANCH  37  39
ATOM     39  C   UNL     1      -6.072  -0.371 128.729  0.00  0.00    +0.000 C 
ATOM     40  C   UNL     1      -4.645  -0.610 129.095  0.00  0.00    +0.000 C 
ENDBRANCH  37  39
ENDBRANCH   5  37
BRANCH   9  41
ATOM     41  C   UNL     1      -6.822   2.552 129.440  0.00  0.00    +0.000 C 
BRANCH  41  42
ATOM     42  C   UNL     1      -6.365   3.371 128.031  0.00  0.00    +0.000 A 
ATOM     43  C   UNL     1      -6.920   3.543 126.722  0.00  0.00    +0.000 A 
ATOM     44  N   UNL     1      -5.993   3.880 125.720  0.00  0.00    +0.000 N 
ATOM     45  C   UNL     1      -4.817   3.653 126.348  0.00  0.00    +0.000 A 
ATOM     46  C   UNL     1      -3.585   3.759 125.839  0.00  0.00    +0.000 A 
ATOM     47  C   UNL     1      -2.531   3.519 126.672  0.00  0.00    +0.000 A 
ATOM     48  C   UNL     1      -2.643   3.082 127.964  0.00  0.00    +0.000 A 
ATOM     49  C   UNL     1      -3.872   3.010 128.528  0.00  0.00    +0.000 A 
ATOM     50  C   UNL     1      -4.989   3.447 127.731  0.00  0.00    +0.000 A 
ATOM     51  H   UNL     1      -6.425   3.896 124.797  0.00  0.00    +0.000 HD
ENDBRANCH  41  42
ENDBRANCH   9  41
BRANCH  25  52
ATOM     52  C   UNL     1      -7.869   8.255 137.642  0.00  0.00    +0.000 C 
BRANCH  52  53
ATOM     53  C   UNL     1      -9.173   9.001 137.588  0.00  0.00    +0.000 C 
ATOM     54  N   UNL     1     -10.174   8.622 136.764  0.00  0.00    +0.000 N 
ATOM     55  O   UNL     1      -9.220  10.003 138.309  0.00  0.00    +0.000 OA
ATOM     56  H   UNL     1     -10.187   7.741 136.248  0.00  0.00    +0.000 HD
ATOM     57  H   UNL     1     -10.977   9.225 136.647  0.00  0.00    +0.000 HD
ENDBRANCH  52  53
ENDBRANCH  25  52
TORSDOF 8
ENDMDL
MODEL 7
REMARK VINA RESULT:     -10.4      6.620     13.302
REMARK  Name = CHEMBL2112376
REMARK  12 active torsions:
REMARK  status: ('A' for Active; 'I' for Inactive)
REMARK    1  A    between atoms: C_1  and  C_2
REMARK    2  A    between atoms: C_2  and  C_3
REMARK    3  A    between atoms: C_3  and  C_4
REMARK    4  A    between atoms: C_3  and  C_5
REMARK    5  A    between atoms: C_9  and  C_10
REMARK    6  A    between atoms: C_10  and  C_11
REMARK    7  A    between atoms: C_10  and  C_12
REMARK    8  A    between atoms: C_12  and  C_13
REMARK    9  A    between atoms: C_17  and  C_18
REMARK   10  A    between atoms: C_18  and  C_19
REMARK   11  A    between atoms: C_43  and  C_44
REMARK   12  A    between atoms: C_44  and  C_45
REMARK                            x       y       z     vdW  Elec       q    Type
REMARK                         _______ _______ _______ _____ _____    ______ ____
ROOT
ATOM      1  C   UNL     1      -1.398  12.508 135.163  0.00  0.00    +0.000 C 
ATOM      2  N   UNL     1      -1.986  10.568 133.788  0.00  0.00    +0.000 N 
ATOM      3  C   UNL     1      -2.265   8.575 133.083  0.00  0.00    +0.000 C 
ATOM      4  O   UNL     1      -3.491   7.910 132.930  0.00  0.00    +0.000 OA
ATOM      5  C   UNL     1      -2.260   6.318 132.503  0.00  0.00    +0.000 C 
ATOM      6  N   UNL     1      -1.965   5.619 133.585  0.00  0.00    +0.000 N 
ATOM      7  C   UNL     1      -2.923   5.786 134.428  0.00  0.00    +0.000 C 
ATOM      8  O   UNL     1      -2.360   6.041 135.500  0.00  0.00    +0.000 OA
ATOM      9  C   UNL     1      -4.581   5.927 133.925  0.00  0.00    +0.000 C 
ATOM     10  N   UNL     1      -5.312   5.212 134.971  0.00  0.00    +0.000 N 
ATOM     11  C   UNL     1      -5.346   5.553 136.318  0.00  0.00    +0.000 C 
ATOM     12  O   UNL     1      -5.951   4.858 137.137  0.00  0.00    +0.000 OA
ATOM     13  C   UNL     1      -4.629   6.791 136.824  0.00  0.00    +0.000 C 
ATOM     14  C   UNL     1      -4.118   7.696 135.813  0.00  0.00    +0.000 C 
ATOM     15  C   UNL     1      -3.306   8.687 136.445  0.00  0.00    +0.000 C 
ATOM     16  S   UNL     1      -2.428   9.175 135.229  0.00  0.00    +0.000 S 
ATOM     17  C   UNL     1      -1.455  10.665 135.524  0.00  0.00    +0.000 C 
ATOM     18  C   UNL     1      -0.444  11.600 133.945  0.00  0.00    +0.000 C 
ATOM     19  C   UNL     1       0.433  10.688 133.343  0.00  0.00    +0.000 C 
ATOM     20  C   UNL     1       1.484  11.667 132.928  0.00  0.00    +0.000 C 
ATOM     21  C   UNL     1       1.144  13.093 133.178  0.00  0.00    +0.000 C 
ATOM     22  N   UNL     1       0.452  12.778 134.297  0.00  0.00    +0.000 N 
ATOM     23  C   UNL     1       1.165  13.399 135.642  0.00  0.00    +0.000 C 
ATOM     24  O   UNL     1       1.444  14.766 135.619  0.00  0.00    +0.000 OA
ATOM     25  C   UNL     1      -0.206  12.891 137.113  0.00  0.00    +0.000 C 
ATOM     26  N   UNL     1       0.388  13.455 138.099  0.00  0.00    +0.000 N 
ATOM     27  C   UNL     1      -0.303  13.685 136.759  0.00  0.00    +0.000 C 
ATOM     28  O   UNL     1       0.458  14.837 137.427  0.00  0.00    +0.000 OA
ATOM     29  H   UNL     1      -1.891   9.897 132.658  0.00  0.00    +0.000 HD
ATOM     30  H   UNL     1      -1.017   5.614 133.731  0.00  0.00    +0.000 HD
ATOM     31  H   UNL     1      -5.809   4.392 134.654  0.00  0.00    +0.000 HD
ATOM     32  H   UNL     1       1.222  13.059 138.429  0.00  0.00    +0.000 HD
ENDROOT
BRANCH   1  33
ATOM     33  C   UNL     1      -1.439  14.613 135.642  0.00  0.00    +0.000 C 
ATOM     34  C   UNL     1      -2.167  14.851 134.508  0.00  0.00    +0.000 C 
BRANCH  33  36
ATOM     35  C   UNL     1      -0.923  16.772 135.550  0.00  0.00    +0.000 C 
ATOM     36  C   UNL     1      -2.068  16.267 136.264  0.00  0.00    +0.000 C 
ENDBRANCH  33  36
ENDBRANCH   1  33
BRANCH   5  37
ATOM     37  C   UNL     1      -3.062   4.278 132.385  0.00  0.00    +0.000 C 
ATOM     38  C   UNL     1      -2.630   2.843 133.155  0.00  0.00    +0.000 C 
BRANCH  37  39
ATOM     39  C   UNL     1      -3.693   3.294 130.922  0.00  0.00    +0.000 C 
ATOM     40  C   UNL     1      -3.361   4.088 129.702  0.00  0.00    +0.000 C 
ENDBRANCH  37  39
ENDBRANCH   5  37
BRANCH   9  41
ATOM     41  C   UNL     1      -4.940   5.644 132.438  0.00  0.00    +0.000 C 
BRANCH  41  42
ATOM     42  C   UNL     1      -6.437   5.724 131.655  0.00  0.00    +0.000 A 
ATOM     43  C   UNL     1      -7.357   6.766 131.310  0.00  0.00    +0.000 A 
ATOM     44  N   UNL     1      -8.685   6.348 131.111  0.00  0.00    +0.000 N 
ATOM     45  C   UNL     1      -8.651   5.086 131.596  0.00  0.00    +0.000 A 
ATOM     46  C   UNL     1      -9.667   4.225 131.707  0.00  0.00    +0.000 A 
ATOM     47  C   UNL     1      -9.394   2.979 132.191  0.00  0.00    +0.000 A 
ATOM     48  C   UNL     1      -8.174   2.576 132.663  0.00  0.00    +0.000 A 
ATOM     49  C   UNL     1      -7.111   3.403 132.521  0.00  0.00    +0.000 A 
ATOM     50  C   UNL     1      -7.333   4.648 131.834  0.00  0.00    +0.000 A 
ATOM     51  H   UNL     1      -9.311   7.139 130.964  0.00  0.00    +0.000 HD
ENDBRANCH  41  42
ENDBRANCH   9  41
BRANCH  25  52
ATOM     52  C   UNL     1      -2.018  13.693 137.689  0.00  0.00    +0.000 C 
BRANCH  52  53
ATOM     53  C   UNL     1      -3.239  13.147 138.375  0.00  0.00    +0.000 C 
ATOM     54  N   UNL     1      -3.583  11.845 138.281  0.00  0.00    +0.000 N 
ATOM     55  O   UNL     1      -3.913  13.993 138.973  0.00  0.00    +0.000 OA
ATOM     56  H   UNL     1      -2.982  11.121 137.885  0.00  0.00    +0.000 HD
ATOM     57  H   UNL     1      -4.482  11.541 138.633  0.00  0.00    +0.000 HD
ENDBRANCH  52  53
ENDBRANCH  25  52
TORSDOF 8
ENDMDL
MODEL 8
REMARK VINA RESULT:     -10.4      4.813      8.610
REMARK  Name = CHEMBL2112376
REMARK  12 active torsions:
REMARK  status: ('A' for Active; 'I' for Inactive)
REMARK    1  A    between atoms: C_1  and  C_2
REMARK    2  A    between atoms: C_2  and  C_3
REMARK    3  A    between atoms: C_3  and  C_4
REMARK    4  A    between atoms: C_3  and  C_5
REMARK    5  A    between atoms: C_9  and  C_10
REMARK    6  A    between atoms: C_10  and  C_11
REMARK    7  A    between atoms: C_10  and  C_12
REMARK    8  A    between atoms: C_12  and  C_13
REMARK    9  A    between atoms: C_17  and  C_18
REMARK   10  A    between atoms: C_18  and  C_19
REMARK   11  A    between atoms: C_43  and  C_44
REMARK   12  A    between atoms: C_44  and  C_45
REMARK                            x       y       z     vdW  Elec       q    Type
REMARK                         _______ _______ _______ _____ _____    ______ ____
ROOT
ATOM      1  C   UNL     1      -5.511  -2.282 134.122  0.00  0.00    +0.000 C 
ATOM      2  N   UNL     1      -5.085  -0.791 132.225  0.00  0.00    +0.000 N 
ATOM      3  C   UNL     1      -5.337   0.543 130.580  0.00  0.00    +0.000 C 
ATOM      4  O   UNL     1      -5.001   1.905 130.555  0.00  0.00    +0.000 OA
ATOM      5  C   UNL     1      -5.929   1.817 128.721  0.00  0.00    +0.000 C 
ATOM      6  N   UNL     1      -7.218   2.090 128.808  0.00  0.00    +0.000 N 
ATOM      7  C   UNL     1      -7.388   2.838 129.841  0.00  0.00    +0.000 C 
ATOM      8  O   UNL     1      -8.344   2.333 130.443  0.00  0.00    +0.000 OA
ATOM      9  C   UNL     1      -6.224   4.039 130.313  0.00  0.00    +0.000 C 
ATOM     10  N   UNL     1      -7.055   5.143 130.793  0.00  0.00    +0.000 N 
ATOM     11  C   UNL     1      -7.932   5.091 131.872  0.00  0.00    +0.000 C 
ATOM     12  O   UNL     1      -8.631   6.062 132.172  0.00  0.00    +0.000 OA
ATOM     13  C   UNL     1      -8.061   3.833 132.709  0.00  0.00    +0.000 C 
ATOM     14  C   UNL     1      -7.075   2.797 132.467  0.00  0.00    +0.000 C 
ATOM     15  C   UNL     1      -7.456   1.619 133.179  0.00  0.00    +0.000 C 
ATOM     16  S   UNL     1      -6.660   0.515 132.381  0.00  0.00    +0.000 S 
ATOM     17  C   UNL     1      -6.618  -1.117 133.148  0.00  0.00    +0.000 C 
ATOM     18  C   UNL     1      -5.390  -2.623 132.365  0.00  0.00    +0.000 C 
ATOM     19  C   UNL     1      -5.716  -2.844 131.020  0.00  0.00    +0.000 C 
ATOM     20  C   UNL     1      -5.390  -4.303 130.974  0.00  0.00    +0.000 C 
ATOM     21  C   UNL     1      -4.782  -4.848 132.217  0.00  0.00    +0.000 C 
ATOM     22  N   UNL     1      -5.502  -4.005 132.991  0.00  0.00    +0.000 N 
ATOM     23  C   UNL     1      -6.567  -4.821 133.943  0.00  0.00    +0.000 C 
ATOM     24  O   UNL     1      -6.037  -5.852 134.719  0.00  0.00    +0.000 OA
ATOM     25  C   UNL     1      -7.360  -3.287 135.092  0.00  0.00    +0.000 C 
ATOM     26  N   UNL     1      -8.120  -4.007 135.831  0.00  0.00    +0.000 N 
ATOM     27  C   UNL     1      -6.677  -3.709 135.438  0.00  0.00    +0.000 C 
ATOM     28  O   UNL     1      -6.990  -4.938 136.301  0.00  0.00    +0.000 OA
ATOM     29  H   UNL     1      -4.556  -0.575 131.037  0.00  0.00    +0.000 HD
ATOM     30  H   UNL     1      -7.739   1.346 128.500  0.00  0.00    +0.000 HD
ATOM     31  H   UNL     1      -6.975   5.996 130.259  0.00  0.00    +0.000 HD
ATOM     32  H   UNL     1      -8.916  -4.413 135.427  0.00  0.00    +0.000 HD
ENDROOT
BRANCH   1  33
ATOM     33  C   UNL     1      -4.895  -3.446 135.832  0.00  0.00    +0.000 C 
ATOM     34  C   UNL     1      -3.589  -3.138 135.565  0.00  0.00    +0.000 C 
BRANCH  33  36
ATOM     35  C   UNL     1      -3.888  -5.080 136.951  0.00  0.00    +0.000 C 
ATOM     36  C   UNL     1      -4.330  -3.858 137.573  0.00  0.00    +0.000 C 
ENDBRANCH  33  36
ENDBRANCH   1  33
BRANCH   5  37
ATOM     37  C   UNL     1      -6.436   3.652 127.628  0.00  0.00    +0.000 C 
ATOM     38  C   UNL     1      -7.898   4.272 127.070  0.00  0.00    +0.000 C 
BRANCH  37  39
ATOM     39  C   UNL     1      -5.540   4.538 126.243  0.00  0.00    +0.000 C 
ATOM     40  C   UNL     1      -4.419   3.645 125.824  0.00  0.00    +0.000 C 
ENDBRANCH  37  39
ENDBRANCH   5  37
BRANCH   9  41
ATOM     41  C   UNL     1      -5.045   4.359 129.350  0.00  0.00    +0.000 C 
BRANCH  41  42
ATOM     42  C   UNL     1      -3.854   5.556 129.461  0.00  0.00    +0.000 A 
ATOM     43  C   UNL     1      -3.005   6.243 128.535  0.00  0.00    +0.000 A 
ATOM     44  N   UNL     1      -1.836   6.792 129.091  0.00  0.00    +0.000 N 
ATOM     45  C   UNL     1      -1.818   6.216 130.314  0.00  0.00    +0.000 A 
ATOM     46  C   UNL     1      -0.884   6.340 131.262  0.00  0.00    +0.000 A 
ATOM     47  C   UNL     1      -1.091   5.694 132.446  0.00  0.00    +0.000 A 
ATOM     48  C   UNL     1      -2.138   4.850 132.701  0.00  0.00    +0.000 A 
ATOM     49  C   UNL     1      -3.128   4.738 131.784  0.00  0.00    +0.000 A 
ATOM     50  C   UNL     1      -3.031   5.562 130.607  0.00  0.00    +0.000 A 
ATOM     51  H   UNL     1      -1.226   7.183 128.374  0.00  0.00    +0.000 HD
ENDBRANCH  41  42
ENDBRANCH   9  41
BRANCH  25  52
ATOM     52  C   UNL     1      -6.664  -2.252 136.737  0.00  0.00    +0.000 C 
BRANCH  52  53
ATOM     53  C   UNL     1      -7.303  -1.710 137.984  0.00  0.00    +0.000 C 
ATOM     54  N   UNL     1      -6.566  -1.209 138.999  0.00  0.00    +0.000 N 
ATOM     55  O   UNL     1      -8.534  -1.815 138.017  0.00  0.00    +0.000 OA
ATOM     56  H   UNL     1      -5.565  -1.019 138.939  0.00  0.00    +0.000 HD
ATOM     57  H   UNL     1      -7.016  -0.986 139.877  0.00  0.00    +0.000 HD
ENDBRANCH  52  53
ENDBRANCH  25  52
TORSDOF 8
ENDMDL
MODEL 9
REMARK VINA RESULT:     -10.3      5.482     10.290
REMARK  Name = CHEMBL2112376
REMARK  12 active torsions:
REMARK  status: ('A' for Active; 'I' for Inactive)
REMARK    1  A    between atoms: C_1  and  C_2
REMARK    2  A    between atoms: C_2  and  C_3
REMARK    3  A    between atoms: C_3  and  C_4
REMARK    4  A    between atoms: C_3  and  C_5
REMARK    5  A    between atoms: C_9  and  C_10
REMARK    6  A    between atoms: C_10  and  C_11
REMARK    7  A    between atoms: C_10  and  C_12
REMARK    8  A    between atoms: C_12  and  C_13
REMARK    9  A    between atoms: C_17  and  C_18
REMARK   10  A    between atoms: C_18  and  C_19
REMARK   11  A    between atoms: C_43  and  C_44
REMARK   12  A    between atoms: C_44  and  C_45
REMARK                            x       y       z     vdW  Elec       q    Type
REMARK                         _______ _______ _______ _____ _____    ______ ____
ROOT
ATOM      1  C   UNL     1      -4.547   3.279 131.927  0.00  0.00    +0.000 C 
ATOM      2  N   UNL     1      -4.687   1.417 133.513  0.00  0.00    +0.000 N 
ATOM      3  C   UNL     1      -5.306  -0.343 134.546  0.00  0.00    +0.000 C 
ATOM      4  O   UNL     1      -4.645  -1.580 134.551  0.00  0.00    +0.000 OA
ATOM      5  C   UNL     1      -6.328  -2.163 135.582  0.00  0.00    +0.000 C 
ATOM      6  N   UNL     1      -7.269  -2.618 134.772  0.00  0.00    +0.000 N 
ATOM      7  C   UNL     1      -6.687  -3.067 133.716  0.00  0.00    +0.000 C 
ATOM      8  O   UNL     1      -7.329  -2.587 132.773  0.00  0.00    +0.000 OA
ATOM      9  C   UNL     1      -5.150  -3.875 133.781  0.00  0.00    +0.000 C 
ATOM     10  N   UNL     1      -5.279  -4.927 132.773  0.00  0.00    +0.000 N 
ATOM     11  C   UNL     1      -5.490  -4.729 131.413  0.00  0.00    +0.000 C 
ATOM     12  O   UNL     1      -5.637  -5.683 130.646  0.00  0.00    +0.000 OA
ATOM     13  C   UNL     1      -5.555  -3.329 130.832  0.00  0.00    +0.000 C 
ATOM     14  C   UNL     1      -5.163  -2.249 131.716  0.00  0.00    +0.000 C 
ATOM     15  C   UNL     1      -5.472  -1.002 131.091  0.00  0.00    +0.000 C 
ATOM     16  S   UNL     1      -5.527  -0.044 132.343  0.00  0.00    +0.000 S 
ATOM     17  C   UNL     1      -5.594   1.719 131.967  0.00  0.00    +0.000 C 
ATOM     18  C   UNL     1      -5.403   3.136 133.498  0.00  0.00    +0.000 C 
ATOM     19  C   UNL     1      -6.390   2.917 134.467  0.00  0.00    +0.000 C 
ATOM     20  C   UNL     1      -6.569   4.340 134.893  0.00  0.00    +0.000 C 
ATOM     21  C   UNL     1      -5.622   5.302 134.272  0.00  0.00    +0.000 C 
ATOM     22  N   UNL     1      -5.593   4.597 133.119  0.00  0.00    +0.000 N 
ATOM     23  C   UNL     1      -6.243   5.451 131.873  0.00  0.00    +0.000 C 
ATOM     24  O   UNL     1      -5.729   6.731 131.666  0.00  0.00    +0.000 OA
ATOM     25  C   UNL     1      -5.891   4.183 130.269  0.00  0.00    +0.000 C 
ATOM     26  N   UNL     1      -6.365   4.938 129.350  0.00  0.00    +0.000 N 
ATOM     27  C   UNL     1      -5.282   4.794 130.413  0.00  0.00    +0.000 C 
ATOM     28  O   UNL     1      -5.477   6.142 129.707  0.00  0.00    +0.000 OA
ATOM     29  H   UNL     1      -4.766   0.974 134.752  0.00  0.00    +0.000 HD
ATOM     30  H   UNL     1      -8.064  -2.088 134.853  0.00  0.00    +0.000 HD
ATOM     31  H   UNL     1      -5.225  -5.868 133.135  0.00  0.00    +0.000 HD
ATOM     32  H   UNL     1      -7.336   5.075 129.313  0.00  0.00    +0.000 HD
ENDROOT
BRANCH   1  33
ATOM     33  C   UNL     1      -3.546   4.958 131.013  0.00  0.00    +0.000 C 
ATOM     34  C   UNL     1      -2.484   4.779 131.857  0.00  0.00    +0.000 C 
BRANCH  33  36
ATOM     35  C   UNL     1      -2.649   6.985 130.852  0.00  0.00    +0.000 C 
ATOM     36  C   UNL     1      -2.372   5.927 129.915  0.00  0.00    +0.000 C 
ENDBRANCH  33  36
ENDBRANCH   1  33
BRANCH   5  37
ATOM     37  C   UNL     1      -6.744  -4.287 135.947  0.00  0.00    +0.000 C 
ATOM     38  C   UNL     1      -8.074  -5.259 135.597  0.00  0.00    +0.000 C 
BRANCH  37  39
ATOM     39  C   UNL     1      -6.342  -5.378 137.415  0.00  0.00    +0.000 C 
ATOM     40  C   UNL     1      -5.982  -4.462 138.537  0.00  0.00    +0.000 C 
ENDBRANCH  37  39
ENDBRANCH   5  37
BRANCH   9  41
ATOM     41  C   UNL     1      -4.555  -4.242 135.170  0.00  0.00    +0.000 C 
BRANCH  41  42
ATOM     42  C   UNL     1      -3.048  -4.907 135.558  0.00  0.00    +0.000 A 
ATOM     43  C   UNL     1      -2.538  -5.747 136.600  0.00  0.00    +0.000 A 
ATOM     44  N   UNL     1      -1.151  -5.654 136.817  0.00  0.00    +0.000 N 
ATOM     45  C   UNL     1      -0.834  -4.556 136.094  0.00  0.00    +0.000 A 
ATOM     46  C   UNL     1       0.360  -3.966 135.984  0.00  0.00    +0.000 A 
ATOM     47  C   UNL     1       0.461  -2.883 135.161  0.00  0.00    +0.000 A 
ATOM     48  C   UNL     1      -0.592  -2.295 134.514  0.00  0.00    +0.000 A 
ATOM     49  C   UNL     1      -1.807  -2.892 134.562  0.00  0.00    +0.000 A 
ATOM     50  C   UNL     1      -1.897  -4.146 135.264  0.00  0.00    +0.000 A 
ATOM     51  H   UNL     1      -0.860  -6.197 137.628  0.00  0.00    +0.000 HD
ENDBRANCH  41  42
ENDBRANCH   9  41
BRANCH  25  52
ATOM     52  C   UNL     1      -4.215   3.778 129.133  0.00  0.00    +0.000 C 
BRANCH  52  53
ATOM     53  C   UNL     1      -3.757   2.602 128.318  0.00  0.00    +0.000 C 
ATOM     54  N   UNL     1      -4.143   1.341 128.611  0.00  0.00    +0.000 N 
ATOM     55  O   UNL     1      -2.967   2.883 127.410  0.00  0.00    +0.000 OA
ATOM     56  H   UNL     1      -4.874   1.109 129.285  0.00  0.00    +0.000 HD
ATOM     57  H   UNL     1      -3.705   0.563 128.135  0.00  0.00    +0.000 HD
ENDBRANCH  52  53
ENDBRANCH  25  52
TORSDOF 8
ENDMDL
