MODEL 1
REMARK VINA RESULT:      -9.1      0.000      0.000
REMARK  Name = CHEMBL271657
REMARK  13 active torsions:
REMARK  status: ('A' for Active; 'I' for Inactive)
REMARK    1  A    between atoms: C_1  and  C_2
REMARK    2  A    between atoms: C_4  and  C_5
REMARK    3  A    between atoms: C_5  and  C_6
REMARK    4  A    between atoms: C_5  and  N_12
REMARK    5  A    between atoms: N_8  and  C_9
REMARK    6  A    between atoms: C_9  and  C_10
REMARK    7  A    between atoms: C_9  and  C_11
REMARK    8  A    between atoms: C_15  and  C_16
REMARK    9  A    between atoms: CA_28  and  CB_29
REMARK   10  A    between atoms: CB_29  and  CG_30
REMARK   11  A    between atoms: CG_30  and  CD1_31
REMARK   12  A    between atoms: CG_30  and  CD2_32
REMARK   13  A    between atoms: C_34  and  C_35
REMARK                            x       y       z     vdW  Elec       q    Type
REMARK                         _______ _______ _______ _____ _____    ______ ____
ROOT
ATOM      1  N   LEU A   1      -6.638   1.803 126.359  0.00  0.00    +0.000 N 
ATOM      2  C   UNK A   2      -6.653   1.716 124.977  0.00  0.00    +0.000 C 
ATOM      3  O   UNK A   2      -6.334   0.674 124.409  0.00  0.00    +0.000 OA
ATOM      4  C   UNK A   2      -6.953   3.023 124.223  0.00  0.00    +0.000 C 
ATOM      5  N   UNK A   2      -8.149   3.548 124.804  0.00  0.00    +0.000 N 
ATOM      6  C   LEU A   1      -8.025   3.977 126.096  0.00  0.00    +0.000 C 
ATOM      7  O   LEU A   1      -8.656   4.955 126.445  0.00  0.00    +0.000 OA
ATOM      8  CA  LEU A   1      -7.054   3.121 126.985  0.00  0.00    +0.000 C 
ATOM      9  H   UNK A   2      -8.809   4.087 124.257  0.00  0.00    +0.000 HD
ENDROOT
BRANCH   4  10
ATOM     10  C   UNK A   2      -7.125   2.791 122.743  0.00  0.00    +0.000 C 
ATOM     11  C   UNK A   2      -8.548   3.153 122.286  0.00  0.00    +0.000 C 
ATOM     12  C   UNK A   2      -8.295   3.649 120.910  0.00  0.00    +0.000 A 
ATOM     13  C   UNK A   2      -9.234   3.905 119.933  0.00  0.00    +0.000 A 
ATOM     14  C   UNK A   2      -8.775   4.368 118.703  0.00  0.00    +0.000 A 
ATOM     15  C   UNK A   2      -7.407   4.610 118.490  0.00  0.00    +0.000 A 
ATOM     16  C   UNK A   2      -6.477   4.403 119.505  0.00  0.00    +0.000 A 
ATOM     17  C   UNK A   2      -6.937   3.909 120.704  0.00  0.00    +0.000 A 
ATOM     18  C   UNK A   2      -6.132   3.646 121.926  0.00  0.00    +0.000 C 
ENDBRANCH   4  10
BRANCH   1  19
ATOM     19  C   UNK A   0      -5.939   0.630 127.056  0.00  0.00    +0.000 C 
BRANCH  19  23
ATOM     20  C   UNK A   0      -7.894  -2.634 130.517  0.00  0.00    +0.000 C 
ATOM     21  C   UNK A   0      -7.674  -1.830 129.290  0.00  0.00    +0.000 A 
ATOM     22  C   UNK A   0      -7.161  -0.515 129.135  0.00  0.00    +0.000 A 
ATOM     23  C   UNK A   0      -6.825  -0.367 127.787  0.00  0.00    +0.000 A 
ATOM     24  O   UNK A   0      -7.380  -1.415 127.098  0.00  0.00    +0.000 OA
ATOM     25  C   UNK A   0      -7.925  -2.260 128.010  0.00  0.00    +0.000 A 
ATOM     26  C   UNK A   0      -8.655  -3.452 127.548  0.00  0.00    +0.000 C 
ENDBRANCH  19  23
BRANCH  19  27
ATOM     27  C   UNK A   0      -4.763   1.193 127.932  0.00  0.00    +0.000 C 
ATOM     28  O   UNK A   0      -4.585   0.946 129.119  0.00  0.00    +0.000 OA
ATOM     29  N   UNK A   0      -3.892   2.045 127.251  0.00  0.00    +0.000 N 
ATOM     30  H   UNK A   0      -3.944   2.066 126.230  0.00  0.00    +0.000 HD
BRANCH  29  31
ATOM     31  C   UNK A   0      -2.863   2.829 127.901  0.00  0.00    +0.000 C 
ATOM     32  C   UNK A   0      -1.733   3.125 126.932  0.00  0.00    +0.000 C 
ATOM     33  C   UNK A   0      -3.410   4.145 128.454  0.00  0.00    +0.000 C 
ENDBRANCH  29  31
ENDBRANCH  19  27
ENDBRANCH   1  19
BRANCH   8  34
ATOM     34  CB  LEU A   1      -7.800   2.823 128.271  0.00  0.00    +0.000 C 
BRANCH  34  35
ATOM     35  CG  LEU A   1      -7.300   3.186 129.662  0.00  0.00    +0.000 C 
ATOM     36  CD1 LEU A   1      -7.026   4.705 129.759  0.00  0.00    +0.000 C 
ATOM     37  CD2 LEU A   1      -8.374   2.916 130.703  0.00  0.00    +0.000 C 
ENDBRANCH  34  35
ENDBRANCH   8  34
TORSDOF 7
ENDMDL
MODEL 2
REMARK VINA RESULT:      -8.8      2.287      4.379
REMARK  Name = CHEMBL271657
REMARK  13 active torsions:
REMARK  status: ('A' for Active; 'I' for Inactive)
REMARK    1  A    between atoms: C_1  and  C_2
REMARK    2  A    between atoms: C_4  and  C_5
REMARK    3  A    between atoms: C_5  and  C_6
REMARK    4  A    between atoms: C_5  and  N_12
REMARK    5  A    between atoms: N_8  and  C_9
REMARK    6  A    between atoms: C_9  and  C_10
REMARK    7  A    between atoms: C_9  and  C_11
REMARK    8  A    between atoms: C_15  and  C_16
REMARK    9  A    between atoms: CA_28  and  CB_29
REMARK   10  A    between atoms: CB_29  and  CG_30
REMARK   11  A    between atoms: CG_30  and  CD1_31
REMARK   12  A    between atoms: CG_30  and  CD2_32
REMARK   13  A    between atoms: C_34  and  C_35
REMARK                            x       y       z     vdW  Elec       q    Type
REMARK                         _______ _______ _______ _____ _____    ______ ____
ROOT
ATOM      1  N   LEU A   1      -7.750   0.857 126.566  0.00  0.00    +0.000 N 
ATOM      2  C   UNK A   2      -7.552   1.958 125.748  0.00  0.00    +0.000 C 
ATOM      3  O   UNK A   2      -6.800   2.868 126.090  0.00  0.00    +0.000 OA
ATOM      4  C   UNK A   2      -8.423   2.021 124.482  0.00  0.00    +0.000 C 
ATOM      5  N   UNK A   2      -8.270   0.756 123.833  0.00  0.00    +0.000 N 
ATOM      6  C   LEU A   1      -8.806  -0.307 124.505  0.00  0.00    +0.000 C 
ATOM      7  O   LEU A   1      -9.317  -1.201 123.860  0.00  0.00    +0.000 OA
ATOM      8  CA  LEU A   1      -8.685  -0.228 126.069  0.00  0.00    +0.000 C 
ATOM      9  H   UNK A   2      -8.321   0.670 122.826  0.00  0.00    +0.000 HD
ENDROOT
BRANCH   4  10
ATOM     10  C   UNK A   2      -8.010   3.150 123.572  0.00  0.00    +0.000 C 
ATOM     11  C   UNK A   2      -6.497   3.121 123.300  0.00  0.00    +0.000 C 
ATOM     12  C   UNK A   2      -6.440   3.644 121.913  0.00  0.00    +0.000 A 
ATOM     13  C   UNK A   2      -5.316   4.048 121.223  0.00  0.00    +0.000 A 
ATOM     14  C   UNK A   2      -5.490   4.510 119.921  0.00  0.00    +0.000 A 
ATOM     15  C   UNK A   2      -6.762   4.515 119.323  0.00  0.00    +0.000 A 
ATOM     16  C   UNK A   2      -7.878   4.047 120.010  0.00  0.00    +0.000 A 
ATOM     17  C   UNK A   2      -7.701   3.629 121.310  0.00  0.00    +0.000 A 
ATOM     18  C   UNK A   2      -8.739   3.066 122.213  0.00  0.00    +0.000 C 
ENDBRANCH   4  10
BRANCH   1  19
ATOM     19  C   UNK A   0      -7.200   1.023 127.987  0.00  0.00    +0.000 C 
BRANCH  19  23
ATOM     20  C   UNK A   0      -4.419  -3.245 128.694  0.00  0.00    +0.000 C 
ATOM     21  C   UNK A   0      -5.302  -2.074 128.913  0.00  0.00    +0.000 A 
ATOM     22  C   UNK A   0      -5.258  -0.773 128.346  0.00  0.00    +0.000 A 
ATOM     23  C   UNK A   0      -6.497  -0.178 128.601  0.00  0.00    +0.000 A 
ATOM     24  O   UNK A   0      -7.150  -0.946 129.529  0.00  0.00    +0.000 OA
ATOM     25  C   UNK A   0      -6.398  -2.058 129.741  0.00  0.00    +0.000 A 
ATOM     26  C   UNK A   0      -6.828  -3.041 130.748  0.00  0.00    +0.000 C 
ENDBRANCH  19  23
BRANCH  19  27
ATOM     27  C   UNK A   0      -8.330   1.627 128.896  0.00  0.00    +0.000 C 
ATOM     28  O   UNK A   0      -9.385   2.102 128.490  0.00  0.00    +0.000 OA
ATOM     29  N   UNK A   0      -8.048   1.601 130.262  0.00  0.00    +0.000 N 
ATOM     30  H   UNK A   0      -7.270   1.019 130.580  0.00  0.00    +0.000 HD
BRANCH  29  31
ATOM     31  C   UNK A   0      -8.851   2.276 131.261  0.00  0.00    +0.000 C 
ATOM     32  C   UNK A   0      -9.743   1.283 131.981  0.00  0.00    +0.000 C 
ATOM     33  C   UNK A   0      -7.987   3.012 132.286  0.00  0.00    +0.000 C 
ENDBRANCH  29  31
ENDBRANCH  19  27
ENDBRANCH   1  19
BRANCH   8  34
ATOM     34  CB  LEU A   1      -8.143  -1.569 126.525  0.00  0.00    +0.000 C 
BRANCH  34  35
ATOM     35  CG  LEU A   1      -8.913  -2.880 126.452  0.00  0.00    +0.000 C 
ATOM     36  CD1 LEU A   1      -8.261  -3.835 125.425  0.00  0.00    +0.000 C 
ATOM     37  CD2 LEU A   1      -8.833  -3.621 127.778  0.00  0.00    +0.000 C 
ENDBRANCH  34  35
ENDBRANCH   8  34
TORSDOF 7
ENDMDL
MODEL 3
REMARK VINA RESULT:      -8.5      1.869      4.348
REMARK  Name = CHEMBL271657
REMARK  13 active torsions:
REMARK  status: ('A' for Active; 'I' for Inactive)
REMARK    1  A    between atoms: C_1  and  C_2
REMARK    2  A    between atoms: C_4  and  C_5
REMARK    3  A    between atoms: C_5  and  C_6
REMARK    4  A    between atoms: C_5  and  N_12
REMARK    5  A    between atoms: N_8  and  C_9
REMARK    6  A    between atoms: C_9  and  C_10
REMARK    7  A    between atoms: C_9  and  C_11
REMARK    8  A    between atoms: C_15  and  C_16
REMARK    9  A    between atoms: CA_28  and  CB_29
REMARK   10  A    between atoms: CB_29  and  CG_30
REMARK   11  A    between atoms: CG_30  and  CD1_31
REMARK   12  A    between atoms: CG_30  and  CD2_32
REMARK   13  A    between atoms: C_34  and  C_35
REMARK                            x       y       z     vdW  Elec       q    Type
REMARK                         _______ _______ _______ _____ _____    ______ ____
ROOT
ATOM      1  N   LEU A   1      -6.820   1.741 126.681  0.00  0.00    +0.000 N 
ATOM      2  C   UNK A   2      -7.128   2.497 125.561  0.00  0.00    +0.000 C 
ATOM      3  O   UNK A   2      -8.290   2.806 125.312  0.00  0.00    +0.000 OA
ATOM      4  C   UNK A   2      -5.958   2.793 124.606  0.00  0.00    +0.000 C 
ATOM      5  N   UNK A   2      -4.910   3.325 125.419  0.00  0.00    +0.000 N 
ATOM      6  C   LEU A   1      -4.353   2.438 126.298  0.00  0.00    +0.000 C 
ATOM      7  O   LEU A   1      -3.161   2.514 126.520  0.00  0.00    +0.000 OA
ATOM      8  CA  LEU A   1      -5.360   1.409 126.924  0.00  0.00    +0.000 C 
ATOM      9  H   UNK A   2      -4.254   4.005 125.056  0.00  0.00    +0.000 HD
ENDROOT
BRANCH   4  10
ATOM     10  C   UNK A   2      -6.351   3.765 123.523  0.00  0.00    +0.000 C 
ATOM     11  C   UNK A   2      -5.113   4.310 122.790  0.00  0.00    +0.000 C 
ATOM     12  C   UNK A   2      -5.646   4.496 121.417  0.00  0.00    +0.000 A 
ATOM     13  C   UNK A   2      -5.043   5.172 120.377  0.00  0.00    +0.000 A 
ATOM     14  C   UNK A   2      -5.723   5.225 119.163  0.00  0.00    +0.000 A 
ATOM     15  C   UNK A   2      -6.955   4.570 118.999  0.00  0.00    +0.000 A 
ATOM     16  C   UNK A   2      -7.522   3.841 120.040  0.00  0.00    +0.000 A 
ATOM     17  C   UNK A   2      -6.861   3.826 121.247  0.00  0.00    +0.000 A 
ATOM     18  C   UNK A   2      -7.265   3.093 122.476  0.00  0.00    +0.000 C 
ENDBRANCH   4  10
BRANCH   1  19
ATOM     19  C   UNK A   0      -8.037   1.116 127.371  0.00  0.00    +0.000 C 
BRANCH  19  23
ATOM     20  C   UNK A   0      -9.714   1.664 132.203  0.00  0.00    +0.000 C 
ATOM     21  C   UNK A   0      -9.199   1.939 130.840  0.00  0.00    +0.000 A 
ATOM     22  C   UNK A   0      -8.310   1.187 130.026  0.00  0.00    +0.000 A 
ATOM     23  C   UNK A   0      -8.431   1.685 128.726  0.00  0.00    +0.000 A 
ATOM     24  O   UNK A   0      -9.121   2.868 128.791  0.00  0.00    +0.000 OA
ATOM     25  C   UNK A   0      -9.535   3.028 130.074  0.00  0.00    +0.000 A 
ATOM     26  C   UNK A   0     -10.252   4.256 130.455  0.00  0.00    +0.000 C 
ENDBRANCH  19  23
BRANCH  19  27
ATOM     27  C   UNK A   0      -7.872  -0.446 127.364  0.00  0.00    +0.000 C 
ATOM     28  O   UNK A   0      -7.401  -1.111 128.280  0.00  0.00    +0.000 OA
ATOM     29  N   UNK A   0      -8.304  -1.067 126.192  0.00  0.00    +0.000 N 
ATOM     30  H   UNK A   0      -8.875  -0.521 125.543  0.00  0.00    +0.000 HD
BRANCH  29  31
ATOM     31  C   UNK A   0      -8.068  -2.464 125.888  0.00  0.00    +0.000 C 
ATOM     32  C   UNK A   0      -9.164  -3.327 126.484  0.00  0.00    +0.000 C 
ATOM     33  C   UNK A   0      -7.991  -2.715 124.382  0.00  0.00    +0.000 C 
ENDBRANCH  29  31
ENDBRANCH  19  27
ENDBRANCH   1  19
BRANCH   8  34
ATOM     34  CB  LEU A   1      -5.112   1.422 128.420  0.00  0.00    +0.000 C 
BRANCH  34  35
ATOM     35  CG  LEU A   1      -4.606   2.627 129.200  0.00  0.00    +0.000 C 
ATOM     36  CD1 LEU A   1      -5.687   3.732 129.249  0.00  0.00    +0.000 C 
ATOM     37  CD2 LEU A   1      -4.360   2.257 130.654  0.00  0.00    +0.000 C 
ENDBRANCH  34  35
ENDBRANCH   8  34
TORSDOF 7
ENDMDL
MODEL 4
REMARK VINA RESULT:      -8.3      4.097      6.371
REMARK  Name = CHEMBL271657
REMARK  13 active torsions:
REMARK  status: ('A' for Active; 'I' for Inactive)
REMARK    1  A    between atoms: C_1  and  C_2
REMARK    2  A    between atoms: C_4  and  C_5
REMARK    3  A    between atoms: C_5  and  C_6
REMARK    4  A    between atoms: C_5  and  N_12
REMARK    5  A    between atoms: N_8  and  C_9
REMARK    6  A    between atoms: C_9  and  C_10
REMARK    7  A    between atoms: C_9  and  C_11
REMARK    8  A    between atoms: C_15  and  C_16
REMARK    9  A    between atoms: CA_28  and  CB_29
REMARK   10  A    between atoms: CB_29  and  CG_30
REMARK   11  A    between atoms: CG_30  and  CD1_31
REMARK   12  A    between atoms: CG_30  and  CD2_32
REMARK   13  A    between atoms: C_34  and  C_35
REMARK                            x       y       z     vdW  Elec       q    Type
REMARK                         _______ _______ _______ _____ _____    ______ ____
ROOT
ATOM      1  N   LEU A   1      -8.115   2.419 129.467  0.00  0.00    +0.000 N 
ATOM      2  C   UNK A   2      -8.774   3.634 129.557  0.00  0.00    +0.000 C 
ATOM      3  O   UNK A   2      -8.776   4.419 128.611  0.00  0.00    +0.000 OA
ATOM      4  C   UNK A   2      -9.367   3.979 130.933  0.00  0.00    +0.000 C 
ATOM      5  N   UNK A   2     -10.145   2.844 131.324  0.00  0.00    +0.000 N 
ATOM      6  C   LEU A   1      -9.425   1.713 131.589  0.00  0.00    +0.000 C 
ATOM      7  O   LEU A   1      -9.802   0.983 132.484  0.00  0.00    +0.000 OA
ATOM      8  CA  LEU A   1      -8.167   1.501 130.673  0.00  0.00    +0.000 C 
ATOM      9  H   UNK A   2     -10.974   2.944 131.896  0.00  0.00    +0.000 HD
ENDROOT
BRANCH   4  10
ATOM     10  C   UNK A   2     -10.214   5.225 130.884  0.00  0.00    +0.000 C 
ATOM     11  C   UNK A   2      -9.510   6.345 130.099  0.00  0.00    +0.000 C 
ATOM     12  C   UNK A   2     -10.667   7.040 129.482  0.00  0.00    +0.000 A 
ATOM     13  C   UNK A   2     -10.657   8.263 128.844  0.00  0.00    +0.000 A 
ATOM     14  C   UNK A   2     -11.864   8.734 128.335  0.00  0.00    +0.000 A 
ATOM     15  C   UNK A   2     -13.035   7.962 128.429  0.00  0.00    +0.000 A 
ATOM     16  C   UNK A   2     -13.017   6.703 129.022  0.00  0.00    +0.000 A 
ATOM     17  C   UNK A   2     -11.827   6.264 129.557  0.00  0.00    +0.000 A 
ATOM     18  C   UNK A   2     -11.572   4.950 130.204  0.00  0.00    +0.000 C 
ENDBRANCH   4  10
BRANCH   1  19
ATOM     19  C   UNK A   0      -7.193   2.292 128.249  0.00  0.00    +0.000 C 
BRANCH  19  23
ATOM     20  C   UNK A   0      -8.904  -2.055 126.098  0.00  0.00    +0.000 C 
ATOM     21  C   UNK A   0      -8.057  -0.903 126.487  0.00  0.00    +0.000 A 
ATOM     22  C   UNK A   0      -8.409   0.448 126.749  0.00  0.00    +0.000 A 
ATOM     23  C   UNK A   0      -7.324   1.029 127.412  0.00  0.00    +0.000 A 
ATOM     24  O   UNK A   0      -6.255   0.179 127.293  0.00  0.00    +0.000 OA
ATOM     25  C   UNK A   0      -6.700  -0.956 126.695  0.00  0.00    +0.000 A 
ATOM     26  C   UNK A   0      -5.745  -2.030 126.378  0.00  0.00    +0.000 C 
ENDBRANCH  19  23
BRANCH  19  27
ATOM     27  C   UNK A   0      -5.720   2.604 128.698  0.00  0.00    +0.000 C 
ATOM     28  O   UNK A   0      -5.315   2.585 129.854  0.00  0.00    +0.000 OA
ATOM     29  N   UNK A   0      -4.855   2.933 127.653  0.00  0.00    +0.000 N 
ATOM     30  H   UNK A   0      -5.164   2.739 126.698  0.00  0.00    +0.000 HD
BRANCH  29  31
ATOM     31  C   UNK A   0      -3.515   3.445 127.850  0.00  0.00    +0.000 C 
ATOM     32  C   UNK A   0      -2.604   2.988 126.726  0.00  0.00    +0.000 C 
ATOM     33  C   UNK A   0      -3.493   4.971 127.928  0.00  0.00    +0.000 C 
ENDBRANCH  29  31
ENDBRANCH  19  27
ENDBRANCH   1  19
BRANCH   8  34
ATOM     34  CB  LEU A   1      -8.232   0.069 130.180  0.00  0.00    +0.000 C 
BRANCH  34  35
ATOM     35  CG  LEU A   1      -7.415  -1.080 130.754  0.00  0.00    +0.000 C 
ATOM     36  CD1 LEU A   1      -7.715  -2.391 129.991  0.00  0.00    +0.000 C 
ATOM     37  CD2 LEU A   1      -5.929  -0.836 130.543  0.00  0.00    +0.000 C 
ENDBRANCH  34  35
ENDBRANCH   8  34
TORSDOF 7
ENDMDL
MODEL 5
REMARK VINA RESULT:      -8.2      1.561      4.370
REMARK  Name = CHEMBL271657
REMARK  13 active torsions:
REMARK  status: ('A' for Active; 'I' for Inactive)
REMARK    1  A    between atoms: C_1  and  C_2
REMARK    2  A    between atoms: C_4  and  C_5
REMARK    3  A    between atoms: C_5  and  C_6
REMARK    4  A    between atoms: C_5  and  N_12
REMARK    5  A    between atoms: N_8  and  C_9
REMARK    6  A    between atoms: C_9  and  C_10
REMARK    7  A    between atoms: C_9  and  C_11
REMARK    8  A    between atoms: C_15  and  C_16
REMARK    9  A    between atoms: CA_28  and  CB_29
REMARK   10  A    between atoms: CB_29  and  CG_30
REMARK   11  A    between atoms: CG_30  and  CD1_31
REMARK   12  A    between atoms: CG_30  and  CD2_32
REMARK   13  A    between atoms: C_34  and  C_35
REMARK                            x       y       z     vdW  Elec       q    Type
REMARK                         _______ _______ _______ _____ _____    ______ ____
ROOT
ATOM      1  N   LEU A   1      -7.441   0.890 127.428  0.00  0.00    +0.000 N 
ATOM      2  C   UNK A   2      -7.432   1.941 126.525  0.00  0.00    +0.000 C 
ATOM      3  O   UNK A   2      -6.880   3.002 126.803  0.00  0.00    +0.000 OA
ATOM      4  C   UNK A   2      -8.258   1.736 125.244  0.00  0.00    +0.000 C 
ATOM      5  N   UNK A   2      -7.846   0.478 124.705  0.00  0.00    +0.000 N 
ATOM      6  C   LEU A   1      -8.189  -0.613 125.453  0.00  0.00    +0.000 C 
ATOM      7  O   LEU A   1      -8.499  -1.637 124.877  0.00  0.00    +0.000 OA
ATOM      8  CA  LEU A   1      -8.135  -0.392 127.007  0.00  0.00    +0.000 C 
ATOM      9  H   UNK A   2      -7.848   0.306 123.707  0.00  0.00    +0.000 HD
ENDROOT
BRANCH   4  10
ATOM     10  C   UNK A   2      -8.041   2.849 124.252  0.00  0.00    +0.000 C 
ATOM     11  C   UNK A   2      -6.611   2.819 123.687  0.00  0.00    +0.000 C 
ATOM     12  C   UNK A   2      -6.832   3.317 122.306  0.00  0.00    +0.000 A 
ATOM     13  C   UNK A   2      -5.869   3.712 121.401  0.00  0.00    +0.000 A 
ATOM     14  C   UNK A   2      -6.300   4.149 120.152  0.00  0.00    +0.000 A 
ATOM     15  C   UNK A   2      -7.665   4.138 119.816  0.00  0.00    +0.000 A 
ATOM     16  C   UNK A   2      -8.620   3.680 120.719  0.00  0.00    +0.000 A 
ATOM     17  C   UNK A   2      -8.188   3.286 121.965  0.00  0.00    +0.000 A 
ATOM     18  C   UNK A   2      -9.023   2.737 123.065  0.00  0.00    +0.000 C 
ENDBRANCH   4  10
BRANCH   1  19
ATOM     19  C   UNK A   0      -6.979   1.269 128.840  0.00  0.00    +0.000 C 
BRANCH  19  23
ATOM     20  C   UNK A   0     -10.078   5.244 129.862  0.00  0.00    +0.000 C 
ATOM     21  C   UNK A   0      -8.981   4.248 129.921  0.00  0.00    +0.000 A 
ATOM     22  C   UNK A   0      -8.980   2.865 129.599  0.00  0.00    +0.000 A 
ATOM     23  C   UNK A   0      -7.642   2.477 129.483  0.00  0.00    +0.000 A 
ATOM     24  O   UNK A   0      -6.866   3.483 130.000  0.00  0.00    +0.000 OA
ATOM     25  C   UNK A   0      -7.689   4.520 130.301  0.00  0.00    +0.000 A 
ATOM     26  C   UNK A   0      -7.133   5.724 130.939  0.00  0.00    +0.000 C 
ENDBRANCH  19  23
BRANCH  19  27
ATOM     27  C   UNK A   0      -5.409   1.324 128.857  0.00  0.00    +0.000 C 
ATOM     28  O   UNK A   0      -4.675   0.423 129.247  0.00  0.00    +0.000 OA
ATOM     29  N   UNK A   0      -4.868   2.522 128.388  0.00  0.00    +0.000 N 
ATOM     30  H   UNK A   0      -5.486   3.161 127.883  0.00  0.00    +0.000 HD
BRANCH  29  31
ATOM     31  C   UNK A   0      -3.466   2.867 128.497  0.00  0.00    +0.000 C 
ATOM     32  C   UNK A   0      -2.849   3.013 127.119  0.00  0.00    +0.000 C 
ATOM     33  C   UNK A   0      -3.255   4.161 129.283  0.00  0.00    +0.000 C 
ENDBRANCH  29  31
ENDBRANCH  19  27
ENDBRANCH   1  19
BRANCH   8  34
ATOM     34  CB  LEU A   1      -7.361  -1.563 127.580  0.00  0.00    +0.000 C 
BRANCH  34  35
ATOM     35  CG  LEU A   1      -7.907  -2.530 128.621  0.00  0.00    +0.000 C 
ATOM     36  CD1 LEU A   1      -8.688  -3.677 127.936  0.00  0.00    +0.000 C 
ATOM     37  CD2 LEU A   1      -6.770  -3.219 129.359  0.00  0.00    +0.000 C 
ENDBRANCH  34  35
ENDBRANCH   8  34
TORSDOF 7
ENDMDL
MODEL 6
REMARK VINA RESULT:      -8.2      4.818      6.527
REMARK  Name = CHEMBL271657
REMARK  13 active torsions:
REMARK  status: ('A' for Active; 'I' for Inactive)
REMARK    1  A    between atoms: C_1  and  C_2
REMARK    2  A    between atoms: C_4  and  C_5
REMARK    3  A    between atoms: C_5  and  C_6
REMARK    4  A    between atoms: C_5  and  N_12
REMARK    5  A    between atoms: N_8  and  C_9
REMARK    6  A    between atoms: C_9  and  C_10
REMARK    7  A    between atoms: C_9  and  C_11
REMARK    8  A    between atoms: C_15  and  C_16
REMARK    9  A    between atoms: CA_28  and  CB_29
REMARK   10  A    between atoms: CB_29  and  CG_30
REMARK   11  A    between atoms: CG_30  and  CD1_31
REMARK   12  A    between atoms: CG_30  and  CD2_32
REMARK   13  A    between atoms: C_34  and  C_35
REMARK                            x       y       z     vdW  Elec       q    Type
REMARK                         _______ _______ _______ _____ _____    ______ ____
ROOT
ATOM      1  N   LEU A   1      -7.560   2.443 130.196  0.00  0.00    +0.000 N 
ATOM      2  C   UNK A   2      -8.499   3.311 129.663  0.00  0.00    +0.000 C 
ATOM      3  O   UNK A   2      -8.665   3.387 128.448  0.00  0.00    +0.000 OA
ATOM      4  C   UNK A   2      -9.198   4.246 130.665  0.00  0.00    +0.000 C 
ATOM      5  N   UNK A   2      -9.685   3.406 131.714  0.00  0.00    +0.000 N 
ATOM      6  C   LEU A   1      -8.719   2.821 132.484  0.00  0.00    +0.000 C 
ATOM      7  O   LEU A   1      -8.932   2.677 133.671  0.00  0.00    +0.000 OA
ATOM      8  CA  LEU A   1      -7.421   2.400 131.706  0.00  0.00    +0.000 C 
ATOM      9  H   UNK A   2     -10.530   3.635 132.224  0.00  0.00    +0.000 HD
ENDROOT
BRANCH   4  10
ATOM     10  C   UNK A   2     -10.321   5.018 130.022  0.00  0.00    +0.000 C 
ATOM     11  C   UNK A   2     -11.303   5.554 131.078  0.00  0.00    +0.000 C 
ATOM     12  C   UNK A   2     -11.740   6.827 130.451  0.00  0.00    +0.000 A 
ATOM     13  C   UNK A   2     -12.790   7.629 130.845  0.00  0.00    +0.000 A 
ATOM     14  C   UNK A   2     -13.027   8.787 130.110  0.00  0.00    +0.000 A 
ATOM     15  C   UNK A   2     -12.190   9.144 129.038  0.00  0.00    +0.000 A 
ATOM     16  C   UNK A   2     -11.097   8.355 128.690  0.00  0.00    +0.000 A 
ATOM     17  C   UNK A   2     -10.895   7.192 129.399  0.00  0.00    +0.000 A 
ATOM     18  C   UNK A   2      -9.782   6.223 129.221  0.00  0.00    +0.000 C 
ENDBRANCH   4  10
BRANCH   1  19
ATOM     19  C   UNK A   0      -6.600   1.842 129.163  0.00  0.00    +0.000 C 
BRANCH  19  23
ATOM     20  C   UNK A   0      -7.558  -3.178 129.744  0.00  0.00    +0.000 C 
ATOM     21  C   UNK A   0      -6.967  -1.886 129.320  0.00  0.00    +0.000 A 
ATOM     22  C   UNK A   0      -7.588  -0.636 129.055  0.00  0.00    +0.000 A 
ATOM     23  C   UNK A   0      -6.574   0.326 129.044  0.00  0.00    +0.000 A 
ATOM     24  O   UNK A   0      -5.371  -0.331 129.000  0.00  0.00    +0.000 OA
ATOM     25  C   UNK A   0      -5.627  -1.659 129.120  0.00  0.00    +0.000 A 
ATOM     26  C   UNK A   0      -4.516  -2.621 129.040  0.00  0.00    +0.000 C 
ENDBRANCH  19  23
BRANCH  19  27
ATOM     27  C   UNK A   0      -5.181   2.486 129.360  0.00  0.00    +0.000 C 
ATOM     28  O   UNK A   0      -4.682   2.778 130.441  0.00  0.00    +0.000 OA
ATOM     29  N   UNK A   0      -4.488   2.731 128.174  0.00  0.00    +0.000 N 
ATOM     30  H   UNK A   0      -4.835   2.293 127.318  0.00  0.00    +0.000 HD
BRANCH  29  31
ATOM     31  C   UNK A   0      -3.259   3.493 128.105  0.00  0.00    +0.000 C 
ATOM     32  C   UNK A   0      -2.400   3.007 126.952  0.00  0.00    +0.000 C 
ATOM     33  C   UNK A   0      -3.523   4.990 127.939  0.00  0.00    +0.000 C 
ENDBRANCH  29  31
ENDBRANCH  19  27
ENDBRANCH   1  19
BRANCH   8  34
ATOM     34  CB  LEU A   1      -7.121   0.971 132.116  0.00  0.00    +0.000 C 
BRANCH  34  35
ATOM     35  CG  LEU A   1      -5.854   0.529 132.835  0.00  0.00    +0.000 C 
ATOM     36  CD1 LEU A   1      -5.961   0.821 134.350  0.00  0.00    +0.000 C 
ATOM     37  CD2 LEU A   1      -5.684  -0.979 132.739  0.00  0.00    +0.000 C 
ENDBRANCH  34  35
ENDBRANCH   8  34
TORSDOF 7
ENDMDL
MODEL 7
REMARK VINA RESULT:      -8.2      3.701      6.360
REMARK  Name = CHEMBL271657
REMARK  13 active torsions:
REMARK  status: ('A' for Active; 'I' for Inactive)
REMARK    1  A    between atoms: C_1  and  C_2
REMARK    2  A    between atoms: C_4  and  C_5
REMARK    3  A    between atoms: C_5  and  C_6
REMARK    4  A    between atoms: C_5  and  N_12
REMARK    5  A    between atoms: N_8  and  C_9
REMARK    6  A    between atoms: C_9  and  C_10
REMARK    7  A    between atoms: C_9  and  C_11
REMARK    8  A    between atoms: C_15  and  C_16
REMARK    9  A    between atoms: CA_28  and  CB_29
REMARK   10  A    between atoms: CB_29  and  CG_30
REMARK   11  A    between atoms: CG_30  and  CD1_31
REMARK   12  A    between atoms: CG_30  and  CD2_32
REMARK   13  A    between atoms: C_34  and  C_35
REMARK                            x       y       z     vdW  Elec       q    Type
REMARK                         _______ _______ _______ _____ _____    ______ ____
ROOT
ATOM      1  N   LEU A   1      -7.036   2.744 129.434  0.00  0.00    +0.000 N 
ATOM      2  C   UNK A   2      -7.320   1.643 128.642  0.00  0.00    +0.000 C 
ATOM      3  O   UNK A   2      -8.414   1.087 128.708  0.00  0.00    +0.000 OA
ATOM      4  C   UNK A   2      -6.153   1.100 127.800  0.00  0.00    +0.000 C 
ATOM      5  N   UNK A   2      -5.616   2.223 127.097  0.00  0.00    +0.000 N 
ATOM      6  C   LEU A   1      -5.002   3.158 127.882  0.00  0.00    +0.000 C 
ATOM      7  O   LEU A   1      -4.020   3.726 127.446  0.00  0.00    +0.000 OA
ATOM      8  CA  LEU A   1      -5.668   3.381 129.287  0.00  0.00    +0.000 C 
ATOM      9  H   UNK A   2      -5.198   2.121 126.181  0.00  0.00    +0.000 HD
ENDROOT
BRANCH   4  10
ATOM     10  C   UNK A   2      -6.602   0.025 126.844  0.00  0.00    +0.000 C 
ATOM     11  C   UNK A   2      -6.928   0.613 125.460  0.00  0.00    +0.000 C 
ATOM     12  C   UNK A   2      -6.532  -0.505 124.568  0.00  0.00    +0.000 A 
ATOM     13  C   UNK A   2      -6.808  -0.632 123.222  0.00  0.00    +0.000 A 
ATOM     14  C   UNK A   2      -6.338  -1.770 122.573  0.00  0.00    +0.000 A 
ATOM     15  C   UNK A   2      -5.570  -2.726 123.259  0.00  0.00    +0.000 A 
ATOM     16  C   UNK A   2      -5.248  -2.554 124.603  0.00  0.00    +0.000 A 
ATOM     17  C   UNK A   2      -5.750  -1.445 125.245  0.00  0.00    +0.000 A 
ATOM     18  C   UNK A   2      -5.509  -1.049 126.658  0.00  0.00    +0.000 C 
ENDBRANCH   4  10
BRANCH   1  19
ATOM     19  C   UNK A   0      -8.058   2.997 130.548  0.00  0.00    +0.000 C 
BRANCH  19  23
ATOM     20  C   UNK A   0      -9.893   7.690 129.518  0.00  0.00    +0.000 C 
ATOM     21  C   UNK A   0      -9.764   6.286 129.977  0.00  0.00    +0.000 A 
ATOM     22  C   UNK A   0      -9.054   5.196 129.408  0.00  0.00    +0.000 A 
ATOM     23  C   UNK A   0      -8.959   4.213 130.397  0.00  0.00    +0.000 A 
ATOM     24  O   UNK A   0      -9.820   4.550 131.409  0.00  0.00    +0.000 OA
ATOM     25  C   UNK A   0     -10.330   5.775 131.120  0.00  0.00    +0.000 A 
ATOM     26  C   UNK A   0     -11.343   6.367 132.009  0.00  0.00    +0.000 C 
ENDBRANCH  19  23
BRANCH  19  27
ATOM     27  C   UNK A   0      -7.320   2.924 131.933  0.00  0.00    +0.000 C 
ATOM     28  O   UNK A   0      -6.741   1.938 132.373  0.00  0.00    +0.000 OA
ATOM     29  N   UNK A   0      -7.371   4.103 132.678  0.00  0.00    +0.000 N 
ATOM     30  H   UNK A   0      -7.674   4.956 132.203  0.00  0.00    +0.000 HD
BRANCH  29  31
ATOM     31  C   UNK A   0      -6.934   4.203 134.055  0.00  0.00    +0.000 C 
ATOM     32  C   UNK A   0      -5.555   4.831 134.127  0.00  0.00    +0.000 C 
ATOM     33  C   UNK A   0      -7.906   5.023 134.904  0.00  0.00    +0.000 C 
ENDBRANCH  29  31
ENDBRANCH  19  27
ENDBRANCH   1  19
BRANCH   8  34
ATOM     34  CB  LEU A   1      -5.820   4.880 129.456  0.00  0.00    +0.000 C 
BRANCH  34  35
ATOM     35  CG  LEU A   1      -5.072   5.711 130.489  0.00  0.00    +0.000 C 
ATOM     36  CD1 LEU A   1      -3.836   6.385 129.849  0.00  0.00    +0.000 C 
ATOM     37  CD2 LEU A   1      -5.937   6.863 130.975  0.00  0.00    +0.000 C 
ENDBRANCH  34  35
ENDBRANCH   8  34
TORSDOF 7
ENDMDL
MODEL 8
REMARK VINA RESULT:      -8.2      4.039      6.701
REMARK  Name = CHEMBL271657
REMARK  13 active torsions:
REMARK  status: ('A' for Active; 'I' for Inactive)
REMARK    1  A    between atoms: C_1  and  C_2
REMARK    2  A    between atoms: C_4  and  C_5
REMARK    3  A    between atoms: C_5  and  C_6
REMARK    4  A    between atoms: C_5  and  N_12
REMARK    5  A    between atoms: N_8  and  C_9
REMARK    6  A    between atoms: C_9  and  C_10
REMARK    7  A    between atoms: C_9  and  C_11
REMARK    8  A    between atoms: C_15  and  C_16
REMARK    9  A    between atoms: CA_28  and  CB_29
REMARK   10  A    between atoms: CB_29  and  CG_30
REMARK   11  A    between atoms: CG_30  and  CD1_31
REMARK   12  A    between atoms: CG_30  and  CD2_32
REMARK   13  A    between atoms: C_34  and  C_35
REMARK                            x       y       z     vdW  Elec       q    Type
REMARK                         _______ _______ _______ _____ _____    ______ ____
ROOT
ATOM      1  N   LEU A   1      -8.218   2.857 129.184  0.00  0.00    +0.000 N 
ATOM      2  C   UNK A   2      -8.201   2.581 127.827  0.00  0.00    +0.000 C 
ATOM      3  O   UNK A   2      -8.066   3.483 127.004  0.00  0.00    +0.000 OA
ATOM      4  C   UNK A   2      -8.494   1.123 127.432  0.00  0.00    +0.000 C 
ATOM      5  N   UNK A   2      -7.616   0.316 128.219  0.00  0.00    +0.000 N 
ATOM      6  C   LEU A   1      -7.878   0.315 129.561  0.00  0.00    +0.000 C 
ATOM      7  O   LEU A   1      -7.708  -0.715 130.183  0.00  0.00    +0.000 OA
ATOM      8  CA  LEU A   1      -8.379   1.687 130.136  0.00  0.00    +0.000 C 
ATOM      9  H   UNK A   2      -7.256  -0.565 127.873  0.00  0.00    +0.000 HD
ENDROOT
BRANCH   4  10
ATOM     10  C   UNK A   2      -8.276   0.886 125.959  0.00  0.00    +0.000 C 
ATOM     11  C   UNK A   2      -6.895   0.261 125.696  0.00  0.00    +0.000 C 
ATOM     12  C   UNK A   2      -7.182  -0.593 124.517  0.00  0.00    +0.000 A 
ATOM     13  C   UNK A   2      -6.262  -1.223 123.704  0.00  0.00    +0.000 A 
ATOM     14  C   UNK A   2      -6.752  -1.982 122.644  0.00  0.00    +0.000 A 
ATOM     15  C   UNK A   2      -8.135  -2.135 122.447  0.00  0.00    +0.000 A 
ATOM     16  C   UNK A   2      -9.051  -1.542 123.311  0.00  0.00    +0.000 A 
ATOM     17  C   UNK A   2      -8.557  -0.763 124.333  0.00  0.00    +0.000 A 
ATOM     18  C   UNK A   2      -9.346  -0.067 125.384  0.00  0.00    +0.000 C 
ENDBRANCH   4  10
BRANCH   1  19
ATOM     19  C   UNK A   0      -8.344   4.347 129.522  0.00  0.00    +0.000 C 
BRANCH  19  23
ATOM     20  C   UNK A   0      -4.041   5.288 132.177  0.00  0.00    +0.000 C 
ATOM     21  C   UNK A   0      -5.436   5.324 131.677  0.00  0.00    +0.000 A 
ATOM     22  C   UNK A   0      -5.943   5.161 130.360  0.00  0.00    +0.000 A 
ATOM     23  C   UNK A   0      -7.316   4.927 130.481  0.00  0.00    +0.000 A 
ATOM     24  O   UNK A   0      -7.683   5.232 131.766  0.00  0.00    +0.000 OA
ATOM     25  C   UNK A   0      -6.549   5.513 132.459  0.00  0.00    +0.000 A 
ATOM     26  C   UNK A   0      -6.646   5.942 133.863  0.00  0.00    +0.000 C 
ENDBRANCH  19  23
BRANCH  19  27
ATOM     27  C   UNK A   0      -9.831   4.646 129.929  0.00  0.00    +0.000 C 
ATOM     28  O   UNK A   0     -10.717   3.806 130.035  0.00  0.00    +0.000 OA
ATOM     29  N   UNK A   0     -10.104   5.994 130.167  0.00  0.00    +0.000 N 
ATOM     30  H   UNK A   0      -9.312   6.631 130.275  0.00  0.00    +0.000 HD
BRANCH  29  31
ATOM     31  C   UNK A   0     -11.439   6.521 130.361  0.00  0.00    +0.000 C 
ATOM     32  C   UNK A   0     -11.746   6.651 131.841  0.00  0.00    +0.000 C 
ATOM     33  C   UNK A   0     -11.619   7.882 129.688  0.00  0.00    +0.000 C 
ENDBRANCH  29  31
ENDBRANCH  19  27
ENDBRANCH   1  19
BRANCH   8  34
ATOM     34  CB  LEU A   1      -7.547   1.963 131.374  0.00  0.00    +0.000 C 
BRANCH  34  35
ATOM     35  CG  LEU A   1      -8.036   1.770 132.802  0.00  0.00    +0.000 C 
ATOM     36  CD1 LEU A   1      -6.949   2.212 133.810  0.00  0.00    +0.000 C 
ATOM     37  CD2 LEU A   1      -9.223   2.675 133.087  0.00  0.00    +0.000 C 
ENDBRANCH  34  35
ENDBRANCH   8  34
TORSDOF 7
ENDMDL
MODEL 9
REMARK VINA RESULT:      -8.1      4.766      7.480
REMARK  Name = CHEMBL271657
REMARK  13 active torsions:
REMARK  status: ('A' for Active; 'I' for Inactive)
REMARK    1  A    between atoms: C_1  and  C_2
REMARK    2  A    between atoms: C_4  and  C_5
REMARK    3  A    between atoms: C_5  and  C_6
REMARK    4  A    between atoms: C_5  and  N_12
REMARK    5  A    between atoms: N_8  and  C_9
REMARK    6  A    between atoms: C_9  and  C_10
REMARK    7  A    between atoms: C_9  and  C_11
REMARK    8  A    between atoms: C_15  and  C_16
REMARK    9  A    between atoms: CA_28  and  CB_29
REMARK   10  A    between atoms: CB_29  and  CG_30
REMARK   11  A    between atoms: CG_30  and  CD1_31
REMARK   12  A    between atoms: CG_30  and  CD2_32
REMARK   13  A    between atoms: C_34  and  C_35
REMARK                            x       y       z     vdW  Elec       q    Type
REMARK                         _______ _______ _______ _____ _____    ______ ____
ROOT
ATOM      1  N   LEU A   1      -6.851   3.722 130.796  0.00  0.00    +0.000 N 
ATOM      2  C   UNK A   2      -6.520   2.501 130.232  0.00  0.00    +0.000 C 
ATOM      3  O   UNK A   2      -5.438   1.970 130.473  0.00  0.00    +0.000 OA
ATOM      4  C   UNK A   2      -7.518   1.941 129.204  0.00  0.00    +0.000 C 
ATOM      5  N   UNK A   2      -8.800   1.984 129.834  0.00  0.00    +0.000 N 
ATOM      6  C   LEU A   1      -9.290   3.239 130.065  0.00  0.00    +0.000 C 
ATOM      7  O   LEU A   1     -10.486   3.424 129.953  0.00  0.00    +0.000 OA
ATOM      8  CA  LEU A   1      -8.208   4.308 130.457  0.00  0.00    +0.000 C 
ATOM      9  H   UNK A   2      -9.515   1.299 129.621  0.00  0.00    +0.000 HD
ENDROOT
BRANCH   4  10
ATOM     10  C   UNK A   2      -7.165   0.536 128.786  0.00  0.00    +0.000 C 
ATOM     11  C   UNK A   2      -7.687  -0.494 129.801  0.00  0.00    +0.000 C 
ATOM     12  C   UNK A   2      -7.997  -1.644 128.917  0.00  0.00    +0.000 A 
ATOM     13  C   UNK A   2      -8.291  -2.935 129.304  0.00  0.00    +0.000 A 
ATOM     14  C   UNK A   2      -8.553  -3.865 128.302  0.00  0.00    +0.000 A 
ATOM     15  C   UNK A   2      -8.563  -3.483 126.950  0.00  0.00    +0.000 A 
ATOM     16  C   UNK A   2      -8.324  -2.163 126.577  0.00  0.00    +0.000 A 
ATOM     17  C   UNK A   2      -8.029  -1.260 127.573  0.00  0.00    +0.000 A 
ATOM     18  C   UNK A   2      -7.773   0.195 127.408  0.00  0.00    +0.000 C 
ENDBRANCH   4  10
BRANCH   1  19
ATOM     19  C   UNK A   0      -5.677   4.441 131.472  0.00  0.00    +0.000 C 
BRANCH  19  23
ATOM     20  C   UNK A   0      -7.606   5.708 136.068  0.00  0.00    +0.000 C 
ATOM     21  C   UNK A   0      -6.676   5.382 134.961  0.00  0.00    +0.000 A 
ATOM     22  C   UNK A   0      -6.813   4.462 133.888  0.00  0.00    +0.000 A 
ATOM     23  C   UNK A   0      -5.837   4.792 132.943  0.00  0.00    +0.000 A 
ATOM     24  O   UNK A   0      -4.958   5.663 133.533  0.00  0.00    +0.000 OA
ATOM     25  C   UNK A   0      -5.451   5.971 134.761  0.00  0.00    +0.000 A 
ATOM     26  C   UNK A   0      -4.674   6.845 135.654  0.00  0.00    +0.000 C 
ENDBRANCH  19  23
BRANCH  19  27
ATOM     27  C   UNK A   0      -5.248   5.656 130.574  0.00  0.00    +0.000 C 
ATOM     28  O   UNK A   0      -5.851   6.720 130.488  0.00  0.00    +0.000 OA
ATOM     29  N   UNK A   0      -4.084   5.444 129.833  0.00  0.00    +0.000 N 
ATOM     30  H   UNK A   0      -3.499   4.643 130.080  0.00  0.00    +0.000 HD
BRANCH  29  31
ATOM     31  C   UNK A   0      -3.616   6.342 128.798  0.00  0.00    +0.000 C 
ATOM     32  C   UNK A   0      -2.105   6.474 128.857  0.00  0.00    +0.000 C 
ATOM     33  C   UNK A   0      -4.027   5.871 127.404  0.00  0.00    +0.000 C 
ENDBRANCH  29  31
ENDBRANCH  19  27
ENDBRANCH   1  19
BRANCH   8  34
ATOM     34  CB  LEU A   1      -8.738   5.024 131.684  0.00  0.00    +0.000 C 
BRANCH  34  35
ATOM     35  CG  LEU A   1      -9.378   6.404 131.668  0.00  0.00    +0.000 C 
ATOM     36  CD1 LEU A   1      -9.374   6.986 130.234  0.00  0.00    +0.000 C 
ATOM     37  CD2 LEU A   1     -10.847   6.317 132.049  0.00  0.00    +0.000 C 
ENDBRANCH  34  35
ENDBRANCH   8  34
TORSDOF 7
ENDMDL
