MODEL 1
REMARK VINA RESULT:      -8.3      0.000      0.000
REMARK  Name = CHEMBL565189
REMARK  7 active torsions:
REMARK  status: ('A' for Active; 'I' for Inactive)
REMARK    1  A    between atoms: C_1  and  O_2
REMARK    2  A    between atoms: O_2  and  C_3
REMARK    3  A    between atoms: C_6  and  N_7
REMARK    4  A    between atoms: C_8  and  C_9
REMARK    5  A    between atoms: C_12  and  C_13
REMARK    6  A    between atoms: C_16  and  O_17
REMARK    7  A    between atoms: O_17  and  C_18
REMARK                            x       y       z     vdW  Elec       q    Type
REMARK                         _______ _______ _______ _____ _____    ______ ____
ROOT
ATOM      1  C   UNL     1      -6.667   5.704 131.421  0.00  0.00    +0.000 A 
ATOM      2  C   UNL     1      -7.170   6.941 131.023  0.00  0.00    +0.000 A 
ATOM      3  N   UNL     1      -8.301   7.083 130.288  0.00  0.00    +0.000 NA
ATOM      4  C   UNL     1      -8.885   5.928 129.901  0.00  0.00    +0.000 A 
ATOM      5  C   UNL     1      -8.381   4.689 130.279  0.00  0.00    +0.000 A 
ATOM      6  N   UNL     1      -7.274   4.548 131.056  0.00  0.00    +0.000 NA
ENDROOT
BRANCH   1  12
ATOM      7  N   UNL     1      -4.218   5.104 131.780  0.00  0.00    +0.000 N 
ATOM      8  C   UNL     1      -3.441   5.006 132.934  0.00  0.00    +0.000 A 
ATOM      9  C   UNL     1      -2.002   4.657 133.066  0.00  0.00    +0.000 C 
ATOM     10  N   UNL     1      -4.157   5.407 133.966  0.00  0.00    +0.000 NA
ATOM     11  N   UNL     1      -5.394   5.770 133.527  0.00  0.00    +0.000 NA
ATOM     12  C   UNL     1      -5.455   5.577 132.223  0.00  0.00    +0.000 A 
BRANCH   7  16
ATOM     13  C   UNL     1      -3.051   4.254 127.853  0.00  0.00    +0.000 A 
ATOM     14  C   UNL     1      -3.517   3.216 128.647  0.00  0.00    +0.000 A 
ATOM     15  C   UNL     1      -3.925   3.496 129.957  0.00  0.00    +0.000 A 
ATOM     16  C   UNL     1      -3.881   4.809 130.433  0.00  0.00    +0.000 A 
ATOM     17  C   UNL     1      -3.363   5.778 129.588  0.00  0.00    +0.000 A 
ATOM     18  N   UNL     1      -2.940   5.520 128.320  0.00  0.00    +0.000 NA
BRANCH  13  20
ATOM     19  C   UNL     1      -1.622   3.003 126.446  0.00  0.00    +0.000 C 
ATOM     20  O   UNL     1      -2.563   4.066 126.586  0.00  0.00    +0.000 OA
ENDBRANCH  13  20
ENDBRANCH   7  16
ENDBRANCH   1  12
BRANCH   4  21
ATOM     21  O   UNL     1     -10.049   5.938 129.151  0.00  0.00    +0.000 OA
BRANCH  21  22
ATOM     22  C   UNL     1     -11.118   6.669 129.616  0.00  0.00    +0.000 A 
ATOM     23  C   UNL     1     -11.767   6.366 130.815  0.00  0.00    +0.000 A 
ATOM     24  F   UNL     1     -11.433   5.270 131.518  0.00  0.00    +0.000 F 
ATOM     25  C   UNL     1     -12.741   7.208 131.345  0.00  0.00    +0.000 A 
ATOM     26  C   UNL     1     -12.986   8.439 130.736  0.00  0.00    +0.000 A 
ATOM     27  C   UNL     1     -12.381   8.726 129.517  0.00  0.00    +0.000 A 
ATOM     28  F   UNL     1     -12.699   9.881 128.907  0.00  0.00    +0.000 F 
ATOM     29  C   UNL     1     -11.473   7.841 128.934  0.00  0.00    +0.000 A 
ATOM     30 CL   UNL     1     -10.819   8.196 127.375  0.00  0.00    +0.000 Cl
ENDBRANCH  21  22
ENDBRANCH   4  21
TORSDOF 5
ENDMDL
MODEL 2
REMARK VINA RESULT:      -8.3      7.648      9.529
REMARK  Name = CHEMBL565189
REMARK  7 active torsions:
REMARK  status: ('A' for Active; 'I' for Inactive)
REMARK    1  A    between atoms: C_1  and  O_2
REMARK    2  A    between atoms: O_2  and  C_3
REMARK    3  A    between atoms: C_6  and  N_7
REMARK    4  A    between atoms: C_8  and  C_9
REMARK    5  A    between atoms: C_12  and  C_13
REMARK    6  A    between atoms: C_16  and  O_17
REMARK    7  A    between atoms: O_17  and  C_18
REMARK                            x       y       z     vdW  Elec       q    Type
REMARK                         _______ _______ _______ _____ _____    ______ ____
ROOT
ATOM      1  C   UNL     1      -8.249   0.082 124.742  0.00  0.00    +0.000 A 
ATOM      2  C   UNL     1      -7.252   0.074 123.767  0.00  0.00    +0.000 A 
ATOM      3  N   UNL     1      -6.769   1.201 123.188  0.00  0.00    +0.000 NA
ATOM      4  C   UNL     1      -7.371   2.348 123.572  0.00  0.00    +0.000 A 
ATOM      5  C   UNL     1      -8.378   2.364 124.530  0.00  0.00    +0.000 A 
ATOM      6  N   UNL     1      -8.828   1.239 125.146  0.00  0.00    +0.000 NA
ENDROOT
BRANCH   1  12
ATOM      7  N   UNL     1      -8.279  -1.716 126.546  0.00  0.00    +0.000 N 
ATOM      8  C   UNL     1      -8.931  -2.946 126.627  0.00  0.00    +0.000 A 
ATOM      9  C   UNL     1      -8.908  -3.946 127.727  0.00  0.00    +0.000 C 
ATOM     10  N   UNL     1      -9.729  -3.075 125.585  0.00  0.00    +0.000 NA
ATOM     11  N   UNL     1      -9.623  -1.960 124.810  0.00  0.00    +0.000 NA
ATOM     12  C   UNL     1      -8.744  -1.144 125.361  0.00  0.00    +0.000 A 
BRANCH   7  16
ATOM     13  C   UNL     1      -5.460   0.120 129.033  0.00  0.00    +0.000 A 
ATOM     14  C   UNL     1      -6.788   0.509 129.134  0.00  0.00    +0.000 A 
ATOM     15  C   UNL     1      -7.740  -0.112 128.317  0.00  0.00    +0.000 A 
ATOM     16  C   UNL     1      -7.346  -1.124 127.438  0.00  0.00    +0.000 A 
ATOM     17  C   UNL     1      -5.993  -1.422 127.370  0.00  0.00    +0.000 A 
ATOM     18  N   UNL     1      -5.052  -0.812 128.141  0.00  0.00    +0.000 NA
BRANCH  13  20
ATOM     19  C   UNL     1      -4.088   2.027 129.295  0.00  0.00    +0.000 C 
ATOM     20  O   UNL     1      -4.449   0.720 129.739  0.00  0.00    +0.000 OA
ENDBRANCH  13  20
ENDBRANCH   7  16
ENDBRANCH   1  12
BRANCH   4  21
ATOM     21  O   UNL     1      -6.965   3.569 123.057  0.00  0.00    +0.000 OA
BRANCH  21  22
ATOM     22  C   UNL     1      -7.056   3.766 121.698  0.00  0.00    +0.000 A 
ATOM     23  C   UNL     1      -8.253   3.599 120.997  0.00  0.00    +0.000 A 
ATOM     24  F   UNL     1      -9.351   3.133 121.615  0.00  0.00    +0.000 F 
ATOM     25  C   UNL     1      -8.361   3.954 119.655  0.00  0.00    +0.000 A 
ATOM     26  C   UNL     1      -7.296   4.603 119.030  0.00  0.00    +0.000 A 
ATOM     27  C   UNL     1      -6.087   4.728 119.706  0.00  0.00    +0.000 A 
ATOM     28  F   UNL     1      -5.049   5.279 119.053  0.00  0.00    +0.000 F 
ATOM     29  C   UNL     1      -5.945   4.287 121.023  0.00  0.00    +0.000 A 
ATOM     30 CL   UNL     1      -4.399   4.377 121.788  0.00  0.00    +0.000 Cl
ENDBRANCH  21  22
ENDBRANCH   4  21
TORSDOF 5
ENDMDL
MODEL 3
REMARK VINA RESULT:      -8.2      5.639      7.492
REMARK  Name = CHEMBL565189
REMARK  7 active torsions:
REMARK  status: ('A' for Active; 'I' for Inactive)
REMARK    1  A    between atoms: C_1  and  O_2
REMARK    2  A    between atoms: O_2  and  C_3
REMARK    3  A    between atoms: C_6  and  N_7
REMARK    4  A    between atoms: C_8  and  C_9
REMARK    5  A    between atoms: C_12  and  C_13
REMARK    6  A    between atoms: C_16  and  O_17
REMARK    7  A    between atoms: O_17  and  C_18
REMARK                            x       y       z     vdW  Elec       q    Type
REMARK                         _______ _______ _______ _____ _____    ______ ____
ROOT
ATOM      1  C   UNL     1      -6.831   3.847 125.499  0.00  0.00    +0.000 A 
ATOM      2  C   UNL     1      -7.950   4.509 126.001  0.00  0.00    +0.000 A 
ATOM      3  N   UNL     1      -8.393   4.362 127.274  0.00  0.00    +0.000 NA
ATOM      4  C   UNL     1      -7.711   3.467 128.021  0.00  0.00    +0.000 A 
ATOM      5  C   UNL     1      -6.603   2.789 127.524  0.00  0.00    +0.000 A 
ATOM      6  N   UNL     1      -6.130   2.973 126.263  0.00  0.00    +0.000 NA
ENDROOT
BRANCH   1  12
ATOM      7  N   UNL     1      -6.586   3.163 123.058  0.00  0.00    +0.000 N 
ATOM      8  C   UNL     1      -5.809   3.674 122.019  0.00  0.00    +0.000 A 
ATOM      9  C   UNL     1      -5.725   3.225 120.605  0.00  0.00    +0.000 C 
ATOM     10  N   UNL     1      -5.197   4.764 122.440  0.00  0.00    +0.000 NA
ATOM     11  N   UNL     1      -5.548   4.991 123.736  0.00  0.00    +0.000 NA
ATOM     12  C   UNL     1      -6.364   4.031 124.129  0.00  0.00    +0.000 A 
BRANCH   7  16
ATOM     13  C   UNL     1      -9.065  -0.198 123.304  0.00  0.00    +0.000 A 
ATOM     14  C   UNL     1      -9.640   1.032 123.019  0.00  0.00    +0.000 A 
ATOM     15  C   UNL     1      -8.815   2.158 122.919  0.00  0.00    +0.000 A 
ATOM     16  C   UNL     1      -7.434   2.024 123.080  0.00  0.00    +0.000 A 
ATOM     17  C   UNL     1      -6.946   0.767 123.404  0.00  0.00    +0.000 A 
ATOM     18  N   UNL     1      -7.737  -0.334 123.527  0.00  0.00    +0.000 NA
BRANCH  13  20
ATOM     19  C   UNL     1      -9.120  -2.559 123.179  0.00  0.00    +0.000 C 
ATOM     20  O   UNL     1      -9.798  -1.342 123.492  0.00  0.00    +0.000 OA
ENDBRANCH  13  20
ENDBRANCH   7  16
ENDBRANCH   1  12
BRANCH   4  21
ATOM     21  O   UNL     1      -8.061   3.230 129.340  0.00  0.00    +0.000 OA
BRANCH  21  22
ATOM     22  C   UNL     1      -8.283   4.312 130.160  0.00  0.00    +0.000 A 
ATOM     23  C   UNL     1      -7.281   5.237 130.466  0.00  0.00    +0.000 A 
ATOM     24  F   UNL     1      -6.019   5.045 130.047  0.00  0.00    +0.000 F 
ATOM     25  C   UNL     1      -7.565   6.407 131.166  0.00  0.00    +0.000 A 
ATOM     26  C   UNL     1      -8.891   6.724 131.461  0.00  0.00    +0.000 A 
ATOM     27  C   UNL     1      -9.886   5.787 131.204  0.00  0.00    +0.000 A 
ATOM     28  F   UNL     1     -11.144   6.080 131.576  0.00  0.00    +0.000 F 
ATOM     29  C   UNL     1      -9.593   4.570 130.586  0.00  0.00    +0.000 A 
ATOM     30 CL   UNL     1     -10.845   3.400 130.373  0.00  0.00    +0.000 Cl
ENDBRANCH  21  22
ENDBRANCH   4  21
TORSDOF 5
ENDMDL
MODEL 4
REMARK VINA RESULT:      -8.1      4.774      6.044
REMARK  Name = CHEMBL565189
REMARK  7 active torsions:
REMARK  status: ('A' for Active; 'I' for Inactive)
REMARK    1  A    between atoms: C_1  and  O_2
REMARK    2  A    between atoms: O_2  and  C_3
REMARK    3  A    between atoms: C_6  and  N_7
REMARK    4  A    between atoms: C_8  and  C_9
REMARK    5  A    between atoms: C_12  and  C_13
REMARK    6  A    between atoms: C_16  and  O_17
REMARK    7  A    between atoms: O_17  and  C_18
REMARK                            x       y       z     vdW  Elec       q    Type
REMARK                         _______ _______ _______ _____ _____    ______ ____
ROOT
ATOM      1  C   UNL     1      -8.211   2.244 128.844  0.00  0.00    +0.000 A 
ATOM      2  C   UNL     1      -9.362   2.617 129.536  0.00  0.00    +0.000 A 
ATOM      3  N   UNL     1      -9.698   3.908 129.781  0.00  0.00    +0.000 NA
ATOM      4  C   UNL     1      -8.799   4.825 129.365  0.00  0.00    +0.000 A 
ATOM      5  C   UNL     1      -7.639   4.462 128.689  0.00  0.00    +0.000 A 
ATOM      6  N   UNL     1      -7.327   3.171 128.400  0.00  0.00    +0.000 NA
ENDROOT
BRANCH   1  12
ATOM      7  N   UNL     1      -8.042   0.175 127.369  0.00  0.00    +0.000 N 
ATOM      8  C   UNL     1      -7.752  -1.158 127.661  0.00  0.00    +0.000 A 
ATOM      9  C   UNL     1      -7.661  -2.319 126.737  0.00  0.00    +0.000 C 
ATOM     10  N   UNL     1      -7.424  -1.254 128.934  0.00  0.00    +0.000 NA
ATOM     11  N   UNL     1      -7.490  -0.017 129.499  0.00  0.00    +0.000 NA
ATOM     12  C   UNL     1      -7.877   0.848 128.581  0.00  0.00    +0.000 A 
BRANCH   7  16
ATOM     13  C   UNL     1      -9.085   1.792 123.654  0.00  0.00    +0.000 A 
ATOM     14  C   UNL     1     -10.086   1.250 124.446  0.00  0.00    +0.000 A 
ATOM     15  C   UNL     1      -9.747   0.721 125.698  0.00  0.00    +0.000 A 
ATOM     16  C   UNL     1      -8.422   0.771 126.137  0.00  0.00    +0.000 A 
ATOM     17  C   UNL     1      -7.478   1.292 125.266  0.00  0.00    +0.000 A 
ATOM     18  N   UNL     1      -7.787   1.789 124.037  0.00  0.00    +0.000 NA
BRANCH  13  20
ATOM     19  C   UNL     1      -8.375   3.245 121.929  0.00  0.00    +0.000 C 
ATOM     20  O   UNL     1      -9.308   2.267 122.387  0.00  0.00    +0.000 OA
ENDBRANCH  13  20
ENDBRANCH   7  16
ENDBRANCH   1  12
BRANCH   4  21
ATOM     21  O   UNL     1      -9.027   6.179 129.550  0.00  0.00    +0.000 OA
BRANCH  21  22
ATOM     22  C   UNL     1     -10.289   6.667 129.297  0.00  0.00    +0.000 A 
ATOM     23  C   UNL     1     -10.732   6.959 128.004  0.00  0.00    +0.000 A 
ATOM     24  F   UNL     1      -9.897   6.868 126.956  0.00  0.00    +0.000 F 
ATOM     25  C   UNL     1     -12.058   7.301 127.754  0.00  0.00    +0.000 A 
ATOM     26  C   UNL     1     -12.991   7.232 128.789  0.00  0.00    +0.000 A 
ATOM     27  C   UNL     1     -12.549   6.991 130.086  0.00  0.00    +0.000 A 
ATOM     28  F   UNL     1     -13.454   7.015 131.079  0.00  0.00    +0.000 F 
ATOM     29  C   UNL     1     -11.203   6.740 130.356  0.00  0.00    +0.000 A 
ATOM     30 CL   UNL     1     -10.686   6.541 131.992  0.00  0.00    +0.000 Cl
ENDBRANCH  21  22
ENDBRANCH   4  21
TORSDOF 5
ENDMDL
MODEL 5
REMARK VINA RESULT:      -8.1      3.067      4.002
REMARK  Name = CHEMBL565189
REMARK  7 active torsions:
REMARK  status: ('A' for Active; 'I' for Inactive)
REMARK    1  A    between atoms: C_1  and  O_2
REMARK    2  A    between atoms: O_2  and  C_3
REMARK    3  A    between atoms: C_6  and  N_7
REMARK    4  A    between atoms: C_8  and  C_9
REMARK    5  A    between atoms: C_12  and  C_13
REMARK    6  A    between atoms: C_16  and  O_17
REMARK    7  A    between atoms: O_17  and  C_18
REMARK                            x       y       z     vdW  Elec       q    Type
REMARK                         _______ _______ _______ _____ _____    ______ ____
ROOT
ATOM      1  C   UNL     1      -6.642   4.483 129.034  0.00  0.00    +0.000 A 
ATOM      2  C   UNL     1      -7.620   3.634 128.519  0.00  0.00    +0.000 A 
ATOM      3  N   UNL     1      -8.950   3.848 128.676  0.00  0.00    +0.000 NA
ATOM      4  C   UNL     1      -9.275   4.918 129.434  0.00  0.00    +0.000 A 
ATOM      5  C   UNL     1      -8.306   5.762 129.966  0.00  0.00    +0.000 A 
ATOM      6  N   UNL     1      -6.974   5.574 129.768  0.00  0.00    +0.000 NA
ENDROOT
BRANCH   1  12
ATOM      7  N   UNL     1      -4.600   3.852 127.649  0.00  0.00    +0.000 N 
ATOM      8  C   UNL     1      -3.280   3.578 128.006  0.00  0.00    +0.000 A 
ATOM      9  C   UNL     1      -2.130   3.223 127.133  0.00  0.00    +0.000 C 
ATOM     10  N   UNL     1      -3.130   3.806 129.296  0.00  0.00    +0.000 NA
ATOM     11  N   UNL     1      -4.320   4.224 129.809  0.00  0.00    +0.000 NA
ATOM     12  C   UNL     1      -5.216   4.239 128.841  0.00  0.00    +0.000 A 
BRANCH   7  16
ATOM     13  C   UNL     1      -6.298   3.660 123.831  0.00  0.00    +0.000 A 
ATOM     14  C   UNL     1      -6.133   2.482 124.544  0.00  0.00    +0.000 A 
ATOM     15  C   UNL     1      -5.581   2.540 125.830  0.00  0.00    +0.000 A 
ATOM     16  C   UNL     1      -5.231   3.775 126.380  0.00  0.00    +0.000 A 
ATOM     17  C   UNL     1      -5.389   4.899 125.583  0.00  0.00    +0.000 A 
ATOM     18  N   UNL     1      -5.903   4.858 124.323  0.00  0.00    +0.000 NA
BRANCH  13  20
ATOM     19  C   UNL     1      -5.775   3.958 121.544  0.00  0.00    +0.000 C 
ATOM     20  O   UNL     1      -6.762   3.695 122.541  0.00  0.00    +0.000 OA
ENDBRANCH  13  20
ENDBRANCH   7  16
ENDBRANCH   1  12
BRANCH   4  21
ATOM     21  O   UNL     1     -10.600   5.248 129.665  0.00  0.00    +0.000 OA
BRANCH  21  22
ATOM     22  C   UNL     1     -11.005   6.538 129.406  0.00  0.00    +0.000 A 
ATOM     23  C   UNL     1     -10.829   7.141 128.159  0.00  0.00    +0.000 A 
ATOM     24  F   UNL     1     -10.155   6.511 127.181  0.00  0.00    +0.000 F 
ATOM     25  C   UNL     1     -11.384   8.385 127.870  0.00  0.00    +0.000 A 
ATOM     26  C   UNL     1     -12.236   8.986 128.798  0.00  0.00    +0.000 A 
ATOM     27  C   UNL     1     -12.376   8.416 130.059  0.00  0.00    +0.000 A 
ATOM     28  F   UNL     1     -13.133   9.059 130.965  0.00  0.00    +0.000 F 
ATOM     29  C   UNL     1     -11.744   7.215 130.385  0.00  0.00    +0.000 A 
ATOM     30 CL   UNL     1     -11.871   6.596 131.992  0.00  0.00    +0.000 Cl
ENDBRANCH  21  22
ENDBRANCH   4  21
TORSDOF 5
ENDMDL
MODEL 6
REMARK VINA RESULT:      -8.0      6.506      8.717
REMARK  Name = CHEMBL565189
REMARK  7 active torsions:
REMARK  status: ('A' for Active; 'I' for Inactive)
REMARK    1  A    between atoms: C_1  and  O_2
REMARK    2  A    between atoms: O_2  and  C_3
REMARK    3  A    between atoms: C_6  and  N_7
REMARK    4  A    between atoms: C_8  and  C_9
REMARK    5  A    between atoms: C_12  and  C_13
REMARK    6  A    between atoms: C_16  and  O_17
REMARK    7  A    between atoms: O_17  and  C_18
REMARK                            x       y       z     vdW  Elec       q    Type
REMARK                         _______ _______ _______ _____ _____    ______ ____
ROOT
ATOM      1  C   UNL     1      -7.679   2.727 126.731  0.00  0.00    +0.000 A 
ATOM      2  C   UNL     1      -6.415   2.496 126.192  0.00  0.00    +0.000 A 
ATOM      3  N   UNL     1      -6.203   1.729 125.094  0.00  0.00    +0.000 NA
ATOM      4  C   UNL     1      -7.305   1.135 124.586  0.00  0.00    +0.000 A 
ATOM      5  C   UNL     1      -8.568   1.346 125.127  0.00  0.00    +0.000 A 
ATOM      6  N   UNL     1      -8.786   2.154 126.198  0.00  0.00    +0.000 NA
ENDROOT
BRANCH   1  12
ATOM      7  N   UNL     1      -7.815   3.156 129.238  0.00  0.00    +0.000 N 
ATOM      8  C   UNL     1      -8.251   4.258 129.974  0.00  0.00    +0.000 A 
ATOM      9  C   UNL     1      -8.292   4.441 131.449  0.00  0.00    +0.000 C 
ATOM     10  N   UNL     1      -8.532   5.242 129.142  0.00  0.00    +0.000 NA
ATOM     11  N   UNL     1      -8.295   4.822 127.869  0.00  0.00    +0.000 NA
ATOM     12  C   UNL     1      -7.884   3.569 127.906  0.00  0.00    +0.000 A 
BRANCH   7  16
ATOM     13  C   UNL     1      -6.511  -0.531 130.722  0.00  0.00    +0.000 A 
ATOM     14  C   UNL     1      -7.868  -0.346 130.503  0.00  0.00    +0.000 A 
ATOM     15  C   UNL     1      -8.311   0.879 129.991  0.00  0.00    +0.000 A 
ATOM     16  C   UNL     1      -7.384   1.880 129.687  0.00  0.00    +0.000 A 
ATOM     17  C   UNL     1      -6.052   1.628 129.976  0.00  0.00    +0.000 A 
ATOM     18  N   UNL     1      -5.607   0.451 130.495  0.00  0.00    +0.000 NA
BRANCH  13  20
ATOM     19  C   UNL     1      -6.016  -2.828 130.455  0.00  0.00    +0.000 C 
ATOM     20  O   UNL     1      -5.992  -1.668 131.287  0.00  0.00    +0.000 OA
ENDBRANCH  13  20
ENDBRANCH   7  16
ENDBRANCH   1  12
BRANCH   4  21
ATOM     21  O   UNL     1      -7.223   0.330 123.461  0.00  0.00    +0.000 OA
BRANCH  21  22
ATOM     22  C   UNL     1      -7.380  -1.028 123.620  0.00  0.00    +0.000 A 
ATOM     23  C   UNL     1      -6.415  -1.826 124.239  0.00  0.00    +0.000 A 
ATOM     24  F   UNL     1      -5.234  -1.305 124.615  0.00  0.00    +0.000 F 
ATOM     25  C   UNL     1      -6.659  -3.165 124.530  0.00  0.00    +0.000 A 
ATOM     26  C   UNL     1      -7.934  -3.690 124.315  0.00  0.00    +0.000 A 
ATOM     27  C   UNL     1      -8.884  -2.918 123.656  0.00  0.00    +0.000 A 
ATOM     28  F   UNL     1     -10.076  -3.476 123.383  0.00  0.00    +0.000 F 
ATOM     29  C   UNL     1      -8.611  -1.603 123.277  0.00  0.00    +0.000 A 
ATOM     30 CL   UNL     1      -9.788  -0.715 122.376  0.00  0.00    +0.000 Cl
ENDBRANCH  21  22
ENDBRANCH   4  21
TORSDOF 5
ENDMDL
MODEL 7
REMARK VINA RESULT:      -7.8      6.960      9.561
REMARK  Name = CHEMBL565189
REMARK  7 active torsions:
REMARK  status: ('A' for Active; 'I' for Inactive)
REMARK    1  A    between atoms: C_1  and  O_2
REMARK    2  A    between atoms: O_2  and  C_3
REMARK    3  A    between atoms: C_6  and  N_7
REMARK    4  A    between atoms: C_8  and  C_9
REMARK    5  A    between atoms: C_12  and  C_13
REMARK    6  A    between atoms: C_16  and  O_17
REMARK    7  A    between atoms: O_17  and  C_18
REMARK                            x       y       z     vdW  Elec       q    Type
REMARK                         _______ _______ _______ _____ _____    ______ ____
ROOT
ATOM      1  C   UNL     1      -6.086   2.414 126.343  0.00  0.00    +0.000 A 
ATOM      2  C   UNL     1      -6.939   2.734 127.398  0.00  0.00    +0.000 A 
ATOM      3  N   UNL     1      -6.878   2.132 128.612  0.00  0.00    +0.000 NA
ATOM      4  C   UNL     1      -5.969   1.139 128.717  0.00  0.00    +0.000 A 
ATOM      5  C   UNL     1      -5.126   0.801 127.665  0.00  0.00    +0.000 A 
ATOM      6  N   UNL     1      -5.154   1.437 126.464  0.00  0.00    +0.000 NA
ENDROOT
BRANCH   1  12
ATOM      7  N   UNL     1      -6.730   2.568 123.883  0.00  0.00    +0.000 N 
ATOM      8  C   UNL     1      -6.405   3.491 122.890  0.00  0.00    +0.000 A 
ATOM      9  C   UNL     1      -6.830   3.521 121.466  0.00  0.00    +0.000 C 
ATOM     10  N   UNL     1      -5.719   4.478 123.432  0.00  0.00    +0.000 NA
ATOM     11  N   UNL     1      -5.579   4.234 124.765  0.00  0.00    +0.000 NA
ATOM     12  C   UNL     1      -6.161   3.085 125.049  0.00  0.00    +0.000 A 
BRANCH   7  16
ATOM     13  C   UNL     1      -8.989  -0.927 123.459  0.00  0.00    +0.000 A 
ATOM     14  C   UNL     1      -7.625  -0.984 123.212  0.00  0.00    +0.000 A 
ATOM     15  C   UNL     1      -6.860   0.178 123.368  0.00  0.00    +0.000 A 
ATOM     16  C   UNL     1      -7.471   1.360 123.791  0.00  0.00    +0.000 A 
ATOM     17  C   UNL     1      -8.845   1.340 123.975  0.00  0.00    +0.000 A 
ATOM     18  N   UNL     1      -9.608   0.226 123.806  0.00  0.00    +0.000 NA
BRANCH  13  20
ATOM     19  C   UNL     1      -9.338  -3.251 123.726  0.00  0.00    +0.000 C 
ATOM     20  O   UNL     1      -9.830  -1.993 123.265  0.00  0.00    +0.000 OA
ENDBRANCH  13  20
ENDBRANCH   7  16
ENDBRANCH   1  12
BRANCH   4  21
ATOM     21  O   UNL     1      -5.806   0.449 129.908  0.00  0.00    +0.000 OA
BRANCH  21  22
ATOM     22  C   UNL     1      -6.213  -0.864 129.961  0.00  0.00    +0.000 A 
ATOM     23  C   UNL     1      -7.558  -1.234 129.896  0.00  0.00    +0.000 A 
ATOM     24  F   UNL     1      -8.526  -0.302 129.882  0.00  0.00    +0.000 F 
ATOM     25  C   UNL     1      -7.938  -2.570 129.792  0.00  0.00    +0.000 A 
ATOM     26  C   UNL     1      -6.958  -3.549 129.625  0.00  0.00    +0.000 A 
ATOM     27  C   UNL     1      -5.618  -3.195 129.738  0.00  0.00    +0.000 A 
ATOM     28  F   UNL     1      -4.696  -4.170 129.660  0.00  0.00    +0.000 F 
ATOM     29  C   UNL     1      -5.235  -1.868 129.936  0.00  0.00    +0.000 A 
ATOM     30 CL   UNL     1      -3.565  -1.489 130.166  0.00  0.00    +0.000 Cl
ENDBRANCH  21  22
ENDBRANCH   4  21
TORSDOF 5
ENDMDL
MODEL 8
REMARK VINA RESULT:      -7.7      5.639      7.469
REMARK  Name = CHEMBL565189
REMARK  7 active torsions:
REMARK  status: ('A' for Active; 'I' for Inactive)
REMARK    1  A    between atoms: C_1  and  O_2
REMARK    2  A    between atoms: O_2  and  C_3
REMARK    3  A    between atoms: C_6  and  N_7
REMARK    4  A    between atoms: C_8  and  C_9
REMARK    5  A    between atoms: C_12  and  C_13
REMARK    6  A    between atoms: C_16  and  O_17
REMARK    7  A    between atoms: O_17  and  C_18
REMARK                            x       y       z     vdW  Elec       q    Type
REMARK                         _______ _______ _______ _____ _____    ______ ____
ROOT
ATOM      1  C   UNL     1      -6.895   3.846 125.660  0.00  0.00    +0.000 A 
ATOM      2  C   UNL     1      -8.070   4.417 126.148  0.00  0.00    +0.000 A 
ATOM      3  N   UNL     1      -8.506   4.247 127.421  0.00  0.00    +0.000 NA
ATOM      4  C   UNL     1      -7.755   3.421 128.181  0.00  0.00    +0.000 A 
ATOM      5  C   UNL     1      -6.592   2.833 127.697  0.00  0.00    +0.000 A 
ATOM      6  N   UNL     1      -6.129   3.042 126.437  0.00  0.00    +0.000 NA
ENDROOT
BRANCH   1  12
ATOM      7  N   UNL     1      -6.637   3.187 123.213  0.00  0.00    +0.000 N 
ATOM      8  C   UNL     1      -5.877   3.729 122.176  0.00  0.00    +0.000 A 
ATOM      9  C   UNL     1      -5.784   3.292 120.758  0.00  0.00    +0.000 C 
ATOM     10  N   UNL     1      -5.297   4.833 122.604  0.00  0.00    +0.000 NA
ATOM     11  N   UNL     1      -5.652   5.041 123.902  0.00  0.00    +0.000 NA
ATOM     12  C   UNL     1      -6.438   4.054 124.289  0.00  0.00    +0.000 A 
BRANCH   7  16
ATOM     13  C   UNL     1      -9.031  -0.236 123.441  0.00  0.00    +0.000 A 
ATOM     14  C   UNL     1      -9.611   0.954 123.026  0.00  0.00    +0.000 A 
ATOM     15  C   UNL     1      -8.813   2.101 122.931  0.00  0.00    +0.000 A 
ATOM     16  C   UNL     1      -7.450   2.024 123.229  0.00  0.00    +0.000 A 
ATOM     17  C   UNL     1      -6.960   0.806 123.676  0.00  0.00    +0.000 A 
ATOM     18  N   UNL     1      -7.727  -0.312 123.795  0.00  0.00    +0.000 NA
BRANCH  13  20
ATOM     19  C   UNL     1      -9.139  -2.575 123.119  0.00  0.00    +0.000 C 
ATOM     20  O   UNL     1      -9.746  -1.390 123.632  0.00  0.00    +0.000 OA
ENDBRANCH  13  20
ENDBRANCH   7  16
ENDBRANCH   1  12
BRANCH   4  21
ATOM     21  O   UNL     1      -8.092   3.169 129.501  0.00  0.00    +0.000 OA
BRANCH  21  22
ATOM     22  C   UNL     1      -8.439   4.235 130.299  0.00  0.00    +0.000 A 
ATOM     23  C   UNL     1      -9.767   4.535 130.611  0.00  0.00    +0.000 A 
ATOM     24  F   UNL     1     -10.776   3.845 130.052  0.00  0.00    +0.000 F 
ATOM     25  C   UNL     1     -10.088   5.518 131.544  0.00  0.00    +0.000 A 
ATOM     26  C   UNL     1      -9.068   6.130 132.272  0.00  0.00    +0.000 A 
ATOM     27  C   UNL     1      -7.744   5.873 131.933  0.00  0.00    +0.000 A 
ATOM     28  F   UNL     1      -6.780   6.540 132.591  0.00  0.00    +0.000 F 
ATOM     29  C   UNL     1      -7.418   4.956 130.933  0.00  0.00    +0.000 A 
ATOM     30 CL   UNL     1      -5.765   4.741 130.481  0.00  0.00    +0.000 Cl
ENDBRANCH  21  22
ENDBRANCH   4  21
TORSDOF 5
ENDMDL
MODEL 9
REMARK VINA RESULT:      -7.7      6.140      8.083
REMARK  Name = CHEMBL565189
REMARK  7 active torsions:
REMARK  status: ('A' for Active; 'I' for Inactive)
REMARK    1  A    between atoms: C_1  and  O_2
REMARK    2  A    between atoms: O_2  and  C_3
REMARK    3  A    between atoms: C_6  and  N_7
REMARK    4  A    between atoms: C_8  and  C_9
REMARK    5  A    between atoms: C_12  and  C_13
REMARK    6  A    between atoms: C_16  and  O_17
REMARK    7  A    between atoms: O_17  and  C_18
REMARK                            x       y       z     vdW  Elec       q    Type
REMARK                         _______ _______ _______ _____ _____    ______ ____
ROOT
ATOM      1  C   UNL     1      -8.333   1.489 128.505  0.00  0.00    +0.000 A 
ATOM      2  C   UNL     1      -8.524   1.282 127.140  0.00  0.00    +0.000 A 
ATOM      3  N   UNL     1      -8.277   0.098 126.526  0.00  0.00    +0.000 NA
ATOM      4  C   UNL     1      -7.761  -0.866 127.319  0.00  0.00    +0.000 A 
ATOM      5  C   UNL     1      -7.551  -0.663 128.679  0.00  0.00    +0.000 A 
ATOM      6  N   UNL     1      -7.844   0.508 129.304  0.00  0.00    +0.000 NA
ENDROOT
BRANCH   1  12
ATOM      7  N   UNL     1      -7.692   3.774 129.429  0.00  0.00    +0.000 N 
ATOM      8  C   UNL     1      -8.399   4.704 130.191  0.00  0.00    +0.000 A 
ATOM      9  C   UNL     1      -7.959   6.034 130.689  0.00  0.00    +0.000 C 
ATOM     10  N   UNL     1      -9.643   4.288 130.326  0.00  0.00    +0.000 NA
ATOM     11  N   UNL     1      -9.781   3.101 129.674  0.00  0.00    +0.000 NA
ATOM     12  C   UNL     1      -8.618   2.768 129.147  0.00  0.00    +0.000 A 
BRANCH   7  16
ATOM     13  C   UNL     1      -3.704   3.649 128.173  0.00  0.00    +0.000 A 
ATOM     14  C   UNL     1      -4.672   4.057 127.268  0.00  0.00    +0.000 A 
ATOM     15  C   UNL     1      -6.008   4.118 127.686  0.00  0.00    +0.000 A 
ATOM     16  C   UNL     1      -6.338   3.793 129.004  0.00  0.00    +0.000 A 
ATOM     17  C   UNL     1      -5.315   3.355 129.831  0.00  0.00    +0.000 A 
ATOM     18  N   UNL     1      -4.015   3.268 129.434  0.00  0.00    +0.000 NA
BRANCH  13  20
ATOM     19  C   UNL     1      -2.125   3.340 126.440  0.00  0.00    +0.000 C 
ATOM     20  O   UNL     1      -2.384   3.490 127.836  0.00  0.00    +0.000 OA
ENDBRANCH  13  20
ENDBRANCH   7  16
ENDBRANCH   1  12
BRANCH   4  21
ATOM     21  O   UNL     1      -7.470  -2.122 126.813  0.00  0.00    +0.000 OA
BRANCH  21  22
ATOM     22  C   UNL     1      -7.792  -2.386 125.501  0.00  0.00    +0.000 A 
ATOM     23  C   UNL     1      -9.055  -2.846 125.118  0.00  0.00    +0.000 A 
ATOM     24  F   UNL     1      -9.983  -3.149 126.042  0.00  0.00    +0.000 F 
ATOM     25  C   UNL     1      -9.409  -2.956 123.777  0.00  0.00    +0.000 A 
ATOM     26  C   UNL     1      -8.536  -2.483 122.797  0.00  0.00    +0.000 A 
ATOM     27  C   UNL     1      -7.260  -2.071 123.166  0.00  0.00    +0.000 A 
ATOM     28  F   UNL     1      -6.407  -1.701 122.195  0.00  0.00    +0.000 F 
ATOM     29  C   UNL     1      -6.867  -2.047 124.505  0.00  0.00    +0.000 A 
ATOM     30 CL   UNL     1      -5.243  -1.618 124.908  0.00  0.00    +0.000 Cl
ENDBRANCH  21  22
ENDBRANCH   4  21
TORSDOF 5
ENDMDL
