MODEL 1
REMARK VINA RESULT:      -9.2      0.000      0.000
REMARK  Name = CHEMBL372978
REMARK  12 active torsions:
REMARK  status: ('A' for Active; 'I' for Inactive)
REMARK    1  A    between atoms: CD1_1  and  CG_2
REMARK    2  A    between atoms: CG_2  and  CD2_3
REMARK    3  A    between atoms: CG_2  and  CB_4
REMARK    4  A    between atoms: CB_4  and  CA_5
REMARK    5  A    between atoms: C_9  and  C_10
REMARK    6  A    between atoms: N_21  and  C_22
REMARK    7  A    between atoms: C_22  and  C_23
REMARK    8  A    between atoms: C_22  and  C_30
REMARK    9  A    between atoms: N_25  and  C_26
REMARK   10  A    between atoms: N_25  and  C_27
REMARK   11  A    between atoms: C_27  and  C_28
REMARK   12  A    between atoms: C_27  and  C_29
REMARK                            x       y       z     vdW  Elec       q    Type
REMARK                         _______ _______ _______ _____ _____    ______ ____
ROOT
ATOM      1  CA  LEU A   2      -7.844   1.015 129.480  0.00  0.00    +0.000 C 
ATOM      2  C   LEU A   2      -6.883  -0.197 129.081  0.00  0.00    +0.000 C 
ATOM      3  O   LEU A   2      -6.319  -1.015 129.763  0.00  0.00    +0.000 OA
ATOM      4  N   UNK A   1      -6.753  -0.228 127.743  0.00  0.00    +0.000 N 
ATOM      5  C   UNK A   1      -7.556   0.641 126.913  0.00  0.00    +0.000 C 
ATOM      6  C   UNK A   1      -7.515   2.079 127.359  0.00  0.00    +0.000 C 
ATOM      7  O   UNK A   1      -7.585   2.983 126.578  0.00  0.00    +0.000 OA
ATOM      8  N   LEU A   2      -7.451   2.170 128.724  0.00  0.00    +0.000 N 
ATOM      9  H   UNK A   1      -6.135  -0.967 127.435  0.00  0.00    +0.000 HD
ENDROOT
BRANCH   5  10
ATOM     10  C   UNK A   1      -7.011   0.740 125.510  0.00  0.00    +0.000 C 
ATOM     11  C   UNK A   1      -8.182   0.455 124.595  0.00  0.00    +0.000 C 
ATOM     12  C   UNK A   1      -8.034  -1.028 124.420  0.00  0.00    +0.000 A 
ATOM     13  C   UNK A   1      -9.053  -1.929 124.179  0.00  0.00    +0.000 A 
ATOM     14  C   UNK A   1      -8.756  -3.291 124.234  0.00  0.00    +0.000 A 
ATOM     15  C   UNK A   1      -7.464  -3.739 124.565  0.00  0.00    +0.000 A 
ATOM     16  C   UNK A   1      -6.452  -2.830 124.876  0.00  0.00    +0.000 A 
ATOM     17  C   UNK A   1      -6.749  -1.480 124.794  0.00  0.00    +0.000 A 
ATOM     18  C   UNK A   1      -5.904  -0.329 125.245  0.00  0.00    +0.000 C 
ENDBRANCH   5  10
BRANCH   1  19
ATOM     19  CB  LEU A   2      -7.588   1.193 130.887  0.00  0.00    +0.000 C 
BRANCH  19  21
ATOM     20  CD1 LEU A   2      -8.586   2.922 133.306  0.00  0.00    +0.000 C 
ATOM     21  CG  LEU A   2      -8.676   1.694 132.281  0.00  0.00    +0.000 C 
ATOM     22  CD2 LEU A   2     -10.085   1.958 131.905  0.00  0.00    +0.000 C 
ENDBRANCH  19  21
ENDBRANCH   1  19
BRANCH   8  23
ATOM     23  C   UNK A   0      -6.756   3.287 129.310  0.00  0.00    +0.000 C 
BRANCH  23  24
ATOM     24  C   UNK A   0      -7.664   4.424 129.898  0.00  0.00    +0.000 A 
ATOM     25  C   UNK A   0      -8.936   4.653 129.433  0.00  0.00    +0.000 A 
ATOM     26  C   UNK A   0      -9.685   5.679 129.979  0.00  0.00    +0.000 A 
ATOM     27  C   UNK A   0      -9.210   6.412 131.071  0.00  0.00    +0.000 A 
ATOM     28  C   UNK A   0      -7.894   6.298 131.488  0.00  0.00    +0.000 A 
ATOM     29  C   UNK A   0      -7.097   5.381 130.829  0.00  0.00    +0.000 A 
ENDBRANCH  23  24
BRANCH  23  30
ATOM     30  C   UNK A   0      -5.016   3.535 129.027  0.00  0.00    +0.000 C 
ATOM     31  O   UNK A   0      -4.329   3.456 130.068  0.00  0.00    +0.000 OA
ATOM     32  N   UNK A   0      -4.183   3.683 127.650  0.00  0.00    +0.000 N 
ATOM     33  C   UNK A   0      -4.361   4.079 125.905  0.00  0.00    +0.000 C 
BRANCH  32  34
ATOM     34  C   UNK A   0      -2.784   3.839 127.975  0.00  0.00    +0.000 C 
ATOM     35  C   UNK A   0      -1.885   3.143 126.956  0.00  0.00    +0.000 C 
ATOM     36  C   UNK A   0      -2.476   5.331 128.007  0.00  0.00    +0.000 C 
ENDBRANCH  32  34
ENDBRANCH  23  30
ENDBRANCH   8  23
TORSDOF 7
ENDMDL
MODEL 2
REMARK VINA RESULT:      -9.1      2.596      3.504
REMARK  Name = CHEMBL372978
REMARK  12 active torsions:
REMARK  status: ('A' for Active; 'I' for Inactive)
REMARK    1  A    between atoms: CD1_1  and  CG_2
REMARK    2  A    between atoms: CG_2  and  CD2_3
REMARK    3  A    between atoms: CG_2  and  CB_4
REMARK    4  A    between atoms: CB_4  and  CA_5
REMARK    5  A    between atoms: C_9  and  C_10
REMARK    6  A    between atoms: N_21  and  C_22
REMARK    7  A    between atoms: C_22  and  C_23
REMARK    8  A    between atoms: C_22  and  C_30
REMARK    9  A    between atoms: N_25  and  C_26
REMARK   10  A    between atoms: N_25  and  C_27
REMARK   11  A    between atoms: C_27  and  C_28
REMARK   12  A    between atoms: C_27  and  C_29
REMARK                            x       y       z     vdW  Elec       q    Type
REMARK                         _______ _______ _______ _____ _____    ______ ____
ROOT
ATOM      1  CA  LEU A   2      -7.350   1.963 131.758  0.00  0.00    +0.000 C 
ATOM      2  C   LEU A   2      -5.991   1.132 131.646  0.00  0.00    +0.000 C 
ATOM      3  O   LEU A   2      -4.996   1.149 132.326  0.00  0.00    +0.000 OA
ATOM      4  N   UNK A   1      -6.074   0.298 130.594  0.00  0.00    +0.000 N 
ATOM      5  C   UNK A   1      -7.322   0.153 129.878  0.00  0.00    +0.000 C 
ATOM      6  C   UNK A   1      -7.931   1.473 129.486  0.00  0.00    +0.000 C 
ATOM      7  O   UNK A   1      -8.562   1.601 128.478  0.00  0.00    +0.000 OA
ATOM      8  N   LEU A   2      -7.707   2.423 130.446  0.00  0.00    +0.000 N 
ATOM      9  H   UNK A   1      -5.228  -0.240 130.463  0.00  0.00    +0.000 HD
ENDROOT
BRANCH   5  10
ATOM     10  C   UNK A   1      -7.127  -0.505 128.536  0.00  0.00    +0.000 C 
ATOM     11  C   UNK A   1      -7.832  -1.841 128.627  0.00  0.00    +0.000 C 
ATOM     12  C   UNK A   1      -6.700  -2.713 129.086  0.00  0.00    +0.000 A 
ATOM     13  C   UNK A   1      -6.809  -3.854 129.857  0.00  0.00    +0.000 A 
ATOM     14  C   UNK A   1      -5.637  -4.432 130.347  0.00  0.00    +0.000 A 
ATOM     15  C   UNK A   1      -4.382  -3.849 130.100  0.00  0.00    +0.000 A 
ATOM     16  C   UNK A   1      -4.278  -2.659 129.379  0.00  0.00    +0.000 A 
ATOM     17  C   UNK A   1      -5.444  -2.106 128.874  0.00  0.00    +0.000 A 
ATOM     18  C   UNK A   1      -5.616  -0.763 128.234  0.00  0.00    +0.000 C 
ENDBRANCH   5  10
BRANCH   1  19
ATOM     19  CB  LEU A   2      -6.999   3.059 132.625  0.00  0.00    +0.000 C 
BRANCH  19  21
ATOM     20  CD1 LEU A   2      -7.880   5.403 134.513  0.00  0.00    +0.000 C 
ATOM     21  CG  LEU A   2      -7.911   3.891 133.987  0.00  0.00    +0.000 C 
ATOM     22  CD2 LEU A   2      -9.388   3.837 133.869  0.00  0.00    +0.000 C 
ENDBRANCH  19  21
ENDBRANCH   1  19
BRANCH   8  23
ATOM     23  C   UNK A   0      -7.576   3.799 130.040  0.00  0.00    +0.000 C 
BRANCH  23  24
ATOM     24  C   UNK A   0      -8.808   4.721 130.344  0.00  0.00    +0.000 A 
ATOM     25  C   UNK A   0      -8.659   6.002 130.817  0.00  0.00    +0.000 A 
ATOM     26  C   UNK A   0      -9.782   6.764 131.081  0.00  0.00    +0.000 A 
ATOM     27  C   UNK A   0     -11.060   6.292 130.767  0.00  0.00    +0.000 A 
ATOM     28  C   UNK A   0     -11.263   4.970 130.407  0.00  0.00    +0.000 A 
ATOM     29  C   UNK A   0     -10.146   4.163 130.301  0.00  0.00    +0.000 A 
ENDBRANCH  23  24
BRANCH  23  30
ATOM     30  C   UNK A   0      -6.282   4.307 128.926  0.00  0.00    +0.000 C 
ATOM     31  O   UNK A   0      -6.698   4.587 127.782  0.00  0.00    +0.000 OA
ATOM     32  N   UNK A   0      -4.719   4.610 129.196  0.00  0.00    +0.000 N 
ATOM     33  C   UNK A   0      -3.379   4.300 130.355  0.00  0.00    +0.000 C 
BRANCH  32  34
ATOM     34  C   UNK A   0      -4.110   5.020 127.951  0.00  0.00    +0.000 C 
ATOM     35  C   UNK A   0      -3.354   6.338 128.098  0.00  0.00    +0.000 C 
ATOM     36  C   UNK A   0      -3.153   3.917 127.515  0.00  0.00    +0.000 C 
ENDBRANCH  32  34
ENDBRANCH  23  30
ENDBRANCH   8  23
TORSDOF 7
ENDMDL
MODEL 3
REMARK VINA RESULT:      -9.0      2.591      7.106
REMARK  Name = CHEMBL372978
REMARK  12 active torsions:
REMARK  status: ('A' for Active; 'I' for Inactive)
REMARK    1  A    between atoms: CD1_1  and  CG_2
REMARK    2  A    between atoms: CG_2  and  CD2_3
REMARK    3  A    between atoms: CG_2  and  CB_4
REMARK    4  A    between atoms: CB_4  and  CA_5
REMARK    5  A    between atoms: C_9  and  C_10
REMARK    6  A    between atoms: N_21  and  C_22
REMARK    7  A    between atoms: C_22  and  C_23
REMARK    8  A    between atoms: C_22  and  C_30
REMARK    9  A    between atoms: N_25  and  C_26
REMARK   10  A    between atoms: N_25  and  C_27
REMARK   11  A    between atoms: C_27  and  C_28
REMARK   12  A    between atoms: C_27  and  C_29
REMARK                            x       y       z     vdW  Elec       q    Type
REMARK                         _______ _______ _______ _____ _____    ______ ____
ROOT
ATOM      1  CA  LEU A   2      -7.545   2.397 129.399  0.00  0.00    +0.000 C 
ATOM      2  C   LEU A   2      -8.057   3.664 128.570  0.00  0.00    +0.000 C 
ATOM      3  O   LEU A   2      -8.216   3.821 127.386  0.00  0.00    +0.000 OA
ATOM      4  N   UNK A   1      -8.338   4.661 129.427  0.00  0.00    +0.000 N 
ATOM      5  C   UNK A   1      -8.310   4.426 130.853  0.00  0.00    +0.000 C 
ATOM      6  C   UNK A   1      -7.044   3.751 131.311  0.00  0.00    +0.000 C 
ATOM      7  O   UNK A   1      -6.562   3.975 132.383  0.00  0.00    +0.000 OA
ATOM      8  N   LEU A   2      -6.600   2.851 130.378  0.00  0.00    +0.000 N 
ATOM      9  H   UNK A   1      -8.648   5.498 128.952  0.00  0.00    +0.000 HD
ENDROOT
BRANCH   5  10
ATOM     10  C   UNK A   1      -8.270   5.714 131.636  0.00  0.00    +0.000 C 
ATOM     11  C   UNK A   1      -9.536   5.729 132.465  0.00  0.00    +0.000 C 
ATOM     12  C   UNK A   1     -10.459   6.462 131.534  0.00  0.00    +0.000 A 
ATOM     13  C   UNK A   1     -11.830   6.312 131.458  0.00  0.00    +0.000 A 
ATOM     14  C   UNK A   1     -12.504   6.933 130.406  0.00  0.00    +0.000 A 
ATOM     15  C   UNK A   1     -11.805   7.659 129.425  0.00  0.00    +0.000 A 
ATOM     16  C   UNK A   1     -10.413   7.752 129.463  0.00  0.00    +0.000 A 
ATOM     17  C   UNK A   1      -9.755   7.153 130.525  0.00  0.00    +0.000 A 
ATOM     18  C   UNK A   1      -8.279   6.961 130.695  0.00  0.00    +0.000 C 
ENDBRANCH   5  10
BRANCH   1  19
ATOM     19  CB  LEU A   2      -6.914   1.577 128.396  0.00  0.00    +0.000 C 
BRANCH  19  21
ATOM     20  CD1 LEU A   2      -7.436  -1.473 128.906  0.00  0.00    +0.000 C 
ATOM     21  CG  LEU A   2      -7.071  -0.209 127.992  0.00  0.00    +0.000 C 
ATOM     22  CD2 LEU A   2      -8.075  -0.524 126.948  0.00  0.00    +0.000 C 
ENDBRANCH  19  21
ENDBRANCH   1  19
BRANCH   8  23
ATOM     23  C   UNK A   0      -5.183   2.621 130.260  0.00  0.00    +0.000 C 
BRANCH  23  24
ATOM     24  C   UNK A   0      -4.639   1.333 130.973  0.00  0.00    +0.000 A 
ATOM     25  C   UNK A   0      -4.409   1.293 132.326  0.00  0.00    +0.000 A 
ATOM     26  C   UNK A   0      -3.916   0.135 132.898  0.00  0.00    +0.000 A 
ATOM     27  C   UNK A   0      -3.755  -1.029 132.139  0.00  0.00    +0.000 A 
ATOM     28  C   UNK A   0      -3.856  -0.998 130.759  0.00  0.00    +0.000 A 
ATOM     29  C   UNK A   0      -4.193   0.208 130.173  0.00  0.00    +0.000 A 
ENDBRANCH  23  24
BRANCH  23  30
ATOM     30  C   UNK A   0      -4.088   3.906 129.693  0.00  0.00    +0.000 C 
ATOM     31  O   UNK A   0      -3.310   3.529 128.791  0.00  0.00    +0.000 OA
ATOM     32  N   UNK A   0      -4.050   5.484 130.036  0.00  0.00    +0.000 N 
ATOM     33  C   UNK A   0      -4.593   6.700 131.243  0.00  0.00    +0.000 C 
BRANCH  32  34
ATOM     34  C   UNK A   0      -2.976   6.090 129.284  0.00  0.00    +0.000 C 
ATOM     35  C   UNK A   0      -3.440   7.342 128.543  0.00  0.00    +0.000 C 
ATOM     36  C   UNK A   0      -1.864   6.447 130.264  0.00  0.00    +0.000 C 
ENDBRANCH  32  34
ENDBRANCH  23  30
ENDBRANCH   8  23
TORSDOF 7
ENDMDL
MODEL 4
REMARK VINA RESULT:      -9.0      3.871      7.128
REMARK  Name = CHEMBL372978
REMARK  12 active torsions:
REMARK  status: ('A' for Active; 'I' for Inactive)
REMARK    1  A    between atoms: CD1_1  and  CG_2
REMARK    2  A    between atoms: CG_2  and  CD2_3
REMARK    3  A    between atoms: CG_2  and  CB_4
REMARK    4  A    between atoms: CB_4  and  CA_5
REMARK    5  A    between atoms: C_9  and  C_10
REMARK    6  A    between atoms: N_21  and  C_22
REMARK    7  A    between atoms: C_22  and  C_23
REMARK    8  A    between atoms: C_22  and  C_30
REMARK    9  A    between atoms: N_25  and  C_26
REMARK   10  A    between atoms: N_25  and  C_27
REMARK   11  A    between atoms: C_27  and  C_28
REMARK   12  A    between atoms: C_27  and  C_29
REMARK                            x       y       z     vdW  Elec       q    Type
REMARK                         _______ _______ _______ _____ _____    ______ ____
ROOT
ATOM      1  CA  LEU A   2      -8.533   3.474 130.595  0.00  0.00    +0.000 C 
ATOM      2  C   LEU A   2      -8.600   4.166 129.156  0.00  0.00    +0.000 C 
ATOM      3  O   LEU A   2      -8.182   3.804 128.086  0.00  0.00    +0.000 OA
ATOM      4  N   UNK A   1      -9.259   5.334 129.264  0.00  0.00    +0.000 N 
ATOM      5  C   UNK A   1      -9.906   5.692 130.506  0.00  0.00    +0.000 C 
ATOM      6  C   UNK A   1      -9.003   5.547 131.701  0.00  0.00    +0.000 C 
ATOM      7  O   UNK A   1      -9.087   6.275 132.648  0.00  0.00    +0.000 OA
ATOM      8  N   LEU A   2      -8.165   4.472 131.559  0.00  0.00    +0.000 N 
ATOM      9  H   UNK A   1      -9.312   5.826 128.382  0.00  0.00    +0.000 HD
ENDROOT
BRANCH   5  10
ATOM     10  C   UNK A   1     -10.249   7.160 130.558  0.00  0.00    +0.000 C 
ATOM     11  C   UNK A   1     -11.757   7.225 130.667  0.00  0.00    +0.000 C 
ATOM     12  C   UNK A   1     -12.129   7.312 129.215  0.00  0.00    +0.000 A 
ATOM     13  C   UNK A   1     -13.298   6.851 128.643  0.00  0.00    +0.000 A 
ATOM     14  C   UNK A   1     -13.392   6.845 127.251  0.00  0.00    +0.000 A 
ATOM     15  C   UNK A   1     -12.314   7.257 126.449  0.00  0.00    +0.000 A 
ATOM     16  C   UNK A   1     -11.108   7.658 127.026  0.00  0.00    +0.000 A 
ATOM     17  C   UNK A   1     -11.032   7.685 128.409  0.00  0.00    +0.000 A 
ATOM     18  C   UNK A   1      -9.814   7.900 129.253  0.00  0.00    +0.000 C 
ENDBRANCH   5  10
BRANCH   1  19
ATOM     19  CB  LEU A   2      -7.498   2.483 130.440  0.00  0.00    +0.000 C 
BRANCH  19  21
ATOM     20  CD1 LEU A   2      -8.101  -0.090 132.127  0.00  0.00    +0.000 C 
ATOM     21  CG  LEU A   2      -7.407   0.714 130.928  0.00  0.00    +0.000 C 
ATOM     22  CD2 LEU A   2      -7.837  -0.242 129.881  0.00  0.00    +0.000 C 
ENDBRANCH  19  21
ENDBRANCH   1  19
BRANCH   8  23
ATOM     23  C   UNK A   0      -6.860   4.528 132.164  0.00  0.00    +0.000 C 
BRANCH  23  24
ATOM     24  C   UNK A   0      -5.763   5.302 131.351  0.00  0.00    +0.000 A 
ATOM     25  C   UNK A   0      -4.694   4.659 130.777  0.00  0.00    +0.000 A 
ATOM     26  C   UNK A   0      -3.750   5.395 130.084  0.00  0.00    +0.000 A 
ATOM     27  C   UNK A   0      -3.927   6.765 129.864  0.00  0.00    +0.000 A 
ATOM     28  C   UNK A   0      -4.919   7.470 130.525  0.00  0.00    +0.000 A 
ATOM     29  C   UNK A   0      -5.766   6.752 131.350  0.00  0.00    +0.000 A 
ENDBRANCH  23  24
BRANCH  23  30
ATOM     30  C   UNK A   0      -6.433   3.462 133.525  0.00  0.00    +0.000 C 
ATOM     31  O   UNK A   0      -7.109   3.680 134.554  0.00  0.00    +0.000 OA
ATOM     32  N   UNK A   0      -5.449   2.183 133.593  0.00  0.00    +0.000 N 
ATOM     33  C   UNK A   0      -4.078   1.385 132.748  0.00  0.00    +0.000 C 
BRANCH  32  34
ATOM     34  C   UNK A   0      -5.479   1.653 134.937  0.00  0.00    +0.000 C 
ATOM     35  C   UNK A   0      -5.628   0.133 134.943  0.00  0.00    +0.000 C 
ATOM     36  C   UNK A   0      -4.177   2.050 135.624  0.00  0.00    +0.000 C 
ENDBRANCH  32  34
ENDBRANCH  23  30
ENDBRANCH   8  23
TORSDOF 7
ENDMDL
MODEL 5
REMARK VINA RESULT:      -9.0      1.675      3.997
REMARK  Name = CHEMBL372978
REMARK  12 active torsions:
REMARK  status: ('A' for Active; 'I' for Inactive)
REMARK    1  A    between atoms: CD1_1  and  CG_2
REMARK    2  A    between atoms: CG_2  and  CD2_3
REMARK    3  A    between atoms: CG_2  and  CB_4
REMARK    4  A    between atoms: CB_4  and  CA_5
REMARK    5  A    between atoms: C_9  and  C_10
REMARK    6  A    between atoms: N_21  and  C_22
REMARK    7  A    between atoms: C_22  and  C_23
REMARK    8  A    between atoms: C_22  and  C_30
REMARK    9  A    between atoms: N_25  and  C_26
REMARK   10  A    between atoms: N_25  and  C_27
REMARK   11  A    between atoms: C_27  and  C_28
REMARK   12  A    between atoms: C_27  and  C_29
REMARK                            x       y       z     vdW  Elec       q    Type
REMARK                         _______ _______ _______ _____ _____    ______ ____
ROOT
ATOM      1  CA  LEU A   2      -8.342   1.071 128.350  0.00  0.00    +0.000 C 
ATOM      2  C   LEU A   2      -7.430  -0.142 127.852  0.00  0.00    +0.000 C 
ATOM      3  O   LEU A   2      -6.711  -0.892 128.463  0.00  0.00    +0.000 OA
ATOM      4  N   UNK A   1      -7.564  -0.271 126.520  0.00  0.00    +0.000 N 
ATOM      5  C   UNK A   1      -8.548   0.513 125.809  0.00  0.00    +0.000 C 
ATOM      6  C   UNK A   1      -8.479   1.981 126.138  0.00  0.00    +0.000 C 
ATOM      7  O   UNK A   1      -8.737   2.822 125.327  0.00  0.00    +0.000 OA
ATOM      8  N   LEU A   2      -8.152   2.176 127.454  0.00  0.00    +0.000 N 
ATOM      9  H   UNK A   1      -6.989  -1.014 126.148  0.00  0.00    +0.000 HD
ENDROOT
BRANCH   5  10
ATOM     10  C   UNK A   1      -8.294   0.521 124.323  0.00  0.00    +0.000 C 
ATOM     11  C   UNK A   1      -9.060  -0.661 123.770  0.00  0.00    +0.000 C 
ATOM     12  C   UNK A   1      -7.999  -1.721 123.825  0.00  0.00    +0.000 A 
ATOM     13  C   UNK A   1      -8.205  -3.077 123.989  0.00  0.00    +0.000 A 
ATOM     14  C   UNK A   1      -7.094  -3.892 124.209  0.00  0.00    +0.000 A 
ATOM     15  C   UNK A   1      -5.802  -3.346 124.302  0.00  0.00    +0.000 A 
ATOM     16  C   UNK A   1      -5.600  -1.968 124.206  0.00  0.00    +0.000 A 
ATOM     17  C   UNK A   1      -6.706  -1.170 123.962  0.00  0.00    +0.000 A 
ATOM     18  C   UNK A   1      -6.779   0.325 123.996  0.00  0.00    +0.000 C 
ENDBRANCH   5  10
BRANCH   1  19
ATOM     19  CB  LEU A   2      -7.822   1.361 129.663  0.00  0.00    +0.000 C 
BRANCH  19  21
ATOM     20  CD1 LEU A   2      -9.914   1.802 131.957  0.00  0.00    +0.000 C 
ATOM     21  CG  LEU A   2      -8.561   1.209 131.339  0.00  0.00    +0.000 C 
ATOM     22  CD2 LEU A   2      -8.833  -0.182 131.773  0.00  0.00    +0.000 C 
ENDBRANCH  19  21
ENDBRANCH   1  19
BRANCH   8  23
ATOM     23  C   UNK A   0      -7.401   3.351 127.813  0.00  0.00    +0.000 C 
BRANCH  23  24
ATOM     24  C   UNK A   0      -5.866   3.307 127.486  0.00  0.00    +0.000 A 
ATOM     25  C   UNK A   0      -4.948   2.805 128.375  0.00  0.00    +0.000 A 
ATOM     26  C   UNK A   0      -3.607   2.805 128.039  0.00  0.00    +0.000 A 
ATOM     27  C   UNK A   0      -3.185   3.203 126.766  0.00  0.00    +0.000 A 
ATOM     28  C   UNK A   0      -4.057   3.827 125.890  0.00  0.00    +0.000 A 
ATOM     29  C   UNK A   0      -5.370   3.973 126.297  0.00  0.00    +0.000 A 
ENDBRANCH  23  24
BRANCH  23  30
ATOM     30  C   UNK A   0      -8.088   4.582 128.900  0.00  0.00    +0.000 C 
ATOM     31  O   UNK A   0      -8.937   5.312 128.347  0.00  0.00    +0.000 OA
ATOM     32  N   UNK A   0      -7.912   4.799 130.492  0.00  0.00    +0.000 N 
ATOM     33  C   UNK A   0      -6.844   4.397 131.882  0.00  0.00    +0.000 C 
BRANCH  32  34
ATOM     34  C   UNK A   0      -8.712   5.933 130.891  0.00  0.00    +0.000 C 
ATOM     35  C   UNK A   0      -9.425   5.683 132.218  0.00  0.00    +0.000 C 
ATOM     36  C   UNK A   0      -7.785   7.136 131.018  0.00  0.00    +0.000 C 
ENDBRANCH  32  34
ENDBRANCH  23  30
ENDBRANCH   8  23
TORSDOF 7
ENDMDL
MODEL 6
REMARK VINA RESULT:      -9.0      2.281      5.273
REMARK  Name = CHEMBL372978
REMARK  12 active torsions:
REMARK  status: ('A' for Active; 'I' for Inactive)
REMARK    1  A    between atoms: CD1_1  and  CG_2
REMARK    2  A    between atoms: CG_2  and  CD2_3
REMARK    3  A    between atoms: CG_2  and  CB_4
REMARK    4  A    between atoms: CB_4  and  CA_5
REMARK    5  A    between atoms: C_9  and  C_10
REMARK    6  A    between atoms: N_21  and  C_22
REMARK    7  A    between atoms: C_22  and  C_23
REMARK    8  A    between atoms: C_22  and  C_30
REMARK    9  A    between atoms: N_25  and  C_26
REMARK   10  A    between atoms: N_25  and  C_27
REMARK   11  A    between atoms: C_27  and  C_28
REMARK   12  A    between atoms: C_27  and  C_29
REMARK                            x       y       z     vdW  Elec       q    Type
REMARK                         _______ _______ _______ _____ _____    ______ ____
ROOT
ATOM      1  CA  LEU A   2      -6.144   3.966 129.232  0.00  0.00    +0.000 C 
ATOM      2  C   LEU A   2      -6.251   4.015 127.639  0.00  0.00    +0.000 C 
ATOM      3  O   LEU A   2      -5.789   4.789 126.839  0.00  0.00    +0.000 OA
ATOM      4  N   UNK A   1      -6.992   2.973 127.220  0.00  0.00    +0.000 N 
ATOM      5  C   UNK A   1      -7.407   1.952 128.155  0.00  0.00    +0.000 C 
ATOM      6  C   UNK A   1      -8.045   2.518 129.396  0.00  0.00    +0.000 C 
ATOM      7  O   UNK A   1      -8.922   1.943 129.973  0.00  0.00    +0.000 OA
ATOM      8  N   LEU A   2      -7.449   3.695 129.764  0.00  0.00    +0.000 N 
ATOM      9  H   UNK A   1      -7.110   2.967 126.216  0.00  0.00    +0.000 HD
ENDROOT
BRANCH   5  10
ATOM     10  C   UNK A   1      -8.520   1.100 127.600  0.00  0.00    +0.000 C 
ATOM     11  C   UNK A   1      -8.186  -0.321 127.998  0.00  0.00    +0.000 C 
ATOM     12  C   UNK A   1      -7.408  -0.763 126.792  0.00  0.00    +0.000 A 
ATOM     13  C   UNK A   1      -6.400  -1.707 126.771  0.00  0.00    +0.000 A 
ATOM     14  C   UNK A   1      -5.658  -1.853 125.598  0.00  0.00    +0.000 A 
ATOM     15  C   UNK A   1      -5.901  -1.036 124.480  0.00  0.00    +0.000 A 
ATOM     16  C   UNK A   1      -6.872  -0.035 124.524  0.00  0.00    +0.000 A 
ATOM     17  C   UNK A   1      -7.621   0.086 125.684  0.00  0.00    +0.000 A 
ATOM     18  C   UNK A   1      -8.583   1.176 126.041  0.00  0.00    +0.000 C 
ENDBRANCH   5  10
BRANCH   1  19
ATOM     19  CB  LEU A   2      -5.699   5.293 129.576  0.00  0.00    +0.000 C 
BRANCH  19  21
ATOM     20  CD1 LEU A   2      -2.689   6.145 129.793  0.00  0.00    +0.000 C 
ATOM     21  CG  LEU A   2      -4.162   5.907 130.375  0.00  0.00    +0.000 C 
ATOM     22  CD2 LEU A   2      -4.270   7.257 130.976  0.00  0.00    +0.000 C 
ENDBRANCH  19  21
ENDBRANCH   1  19
BRANCH   8  23
ATOM     23  C   UNK A   0      -8.245   4.696 130.425  0.00  0.00    +0.000 C 
BRANCH  23  24
ATOM     24  C   UNK A   0      -8.208   4.672 131.994  0.00  0.00    +0.000 A 
ATOM     25  C   UNK A   0      -9.014   3.838 132.728  0.00  0.00    +0.000 A 
ATOM     26  C   UNK A   0      -8.948   3.870 134.109  0.00  0.00    +0.000 A 
ATOM     27  C   UNK A   0      -7.996   4.657 134.764  0.00  0.00    +0.000 A 
ATOM     28  C   UNK A   0      -7.252   5.598 134.073  0.00  0.00    +0.000 A 
ATOM     29  C   UNK A   0      -7.440   5.676 132.706  0.00  0.00    +0.000 A 
ENDBRANCH  23  24
BRANCH  23  30
ATOM     30  C   UNK A   0      -9.479   5.621 129.535  0.00  0.00    +0.000 C 
ATOM     31  O   UNK A   0      -9.238   5.720 128.314  0.00  0.00    +0.000 OA
ATOM     32  N   UNK A   0     -10.909   6.202 130.014  0.00  0.00    +0.000 N 
ATOM     33  C   UNK A   0     -11.854   6.654 131.476  0.00  0.00    +0.000 C 
BRANCH  32  34
ATOM     34  C   UNK A   0     -11.538   6.856 128.890  0.00  0.00    +0.000 C 
ATOM     35  C   UNK A   0     -13.036   6.563 128.831  0.00  0.00    +0.000 C 
ATOM     36  C   UNK A   0     -11.306   8.355 129.032  0.00  0.00    +0.000 C 
ENDBRANCH  32  34
ENDBRANCH  23  30
ENDBRANCH   8  23
TORSDOF 7
ENDMDL
MODEL 7
REMARK VINA RESULT:      -9.0      2.081      7.346
REMARK  Name = CHEMBL372978
REMARK  12 active torsions:
REMARK  status: ('A' for Active; 'I' for Inactive)
REMARK    1  A    between atoms: CD1_1  and  CG_2
REMARK    2  A    between atoms: CG_2  and  CD2_3
REMARK    3  A    between atoms: CG_2  and  CB_4
REMARK    4  A    between atoms: CB_4  and  CA_5
REMARK    5  A    between atoms: C_9  and  C_10
REMARK    6  A    between atoms: N_21  and  C_22
REMARK    7  A    between atoms: C_22  and  C_23
REMARK    8  A    between atoms: C_22  and  C_30
REMARK    9  A    between atoms: N_25  and  C_26
REMARK   10  A    between atoms: N_25  and  C_27
REMARK   11  A    between atoms: C_27  and  C_28
REMARK   12  A    between atoms: C_27  and  C_29
REMARK                            x       y       z     vdW  Elec       q    Type
REMARK                         _______ _______ _______ _____ _____    ______ ____
ROOT
ATOM      1  CA  LEU A   2      -7.843   1.973 129.070  0.00  0.00    +0.000 C 
ATOM      2  C   LEU A   2      -8.055   3.377 128.336  0.00  0.00    +0.000 C 
ATOM      3  O   LEU A   2      -8.134   3.652 127.166  0.00  0.00    +0.000 OA
ATOM      4  N   UNK A   1      -8.160   4.343 129.266  0.00  0.00    +0.000 N 
ATOM      5  C   UNK A   1      -8.235   4.000 130.668  0.00  0.00    +0.000 C 
ATOM      6  C   UNK A   1      -7.150   3.047 131.096  0.00  0.00    +0.000 C 
ATOM      7  O   UNK A   1      -6.675   3.085 132.194  0.00  0.00    +0.000 OA
ATOM      8  N   LEU A   2      -6.863   2.148 130.103  0.00  0.00    +0.000 N 
ATOM      9  H   UNK A   1      -8.275   5.259 128.854  0.00  0.00    +0.000 HD
ENDROOT
BRANCH   5  10
ATOM     10  C   UNK A   1      -7.964   5.189 131.553  0.00  0.00    +0.000 C 
ATOM     11  C   UNK A   1      -9.163   5.299 132.471  0.00  0.00    +0.000 C 
ATOM     12  C   UNK A   1     -10.025   6.237 131.677  0.00  0.00    +0.000 A 
ATOM     13  C   UNK A   1     -11.406   6.285 131.688  0.00  0.00    +0.000 A 
ATOM     14  C   UNK A   1     -12.045   7.090 130.745  0.00  0.00    +0.000 A 
ATOM     15  C   UNK A   1     -11.309   7.803 129.782  0.00  0.00    +0.000 A 
ATOM     16  C   UNK A   1      -9.919   7.700 129.726  0.00  0.00    +0.000 A 
ATOM     17  C   UNK A   1      -9.291   6.919 130.682  0.00  0.00    +0.000 A 
ATOM     18  C   UNK A   1      -7.851   6.510 130.727  0.00  0.00    +0.000 C 
ENDBRANCH   5  10
BRANCH   1  19
ATOM     19  CB  LEU A   2      -7.354   1.119 128.018  0.00  0.00    +0.000 C 
BRANCH  19  21
ATOM     20  CD1 LEU A   2      -9.576   0.578 125.872  0.00  0.00    +0.000 C 
ATOM     21  CG  LEU A   2      -8.209   0.253 126.639  0.00  0.00    +0.000 C 
ATOM     22  CD2 LEU A   2      -7.407   0.116 125.400  0.00  0.00    +0.000 C 
ENDBRANCH  19  21
ENDBRANCH   1  19
BRANCH   8  23
ATOM     23  C   UNK A   0      -5.519   1.641 129.998  0.00  0.00    +0.000 C 
BRANCH  23  24
ATOM     24  C   UNK A   0      -4.506   2.547 129.214  0.00  0.00    +0.000 A 
ATOM     25  C   UNK A   0      -3.933   3.658 129.782  0.00  0.00    +0.000 A 
ATOM     26  C   UNK A   0      -3.058   4.428 129.039  0.00  0.00    +0.000 A 
ATOM     27  C   UNK A   0      -2.662   4.030 127.758  0.00  0.00    +0.000 A 
ATOM     28  C   UNK A   0      -3.305   2.992 127.104  0.00  0.00    +0.000 A 
ATOM     29  C   UNK A   0      -4.298   2.325 127.796  0.00  0.00    +0.000 A 
ENDBRANCH  23  24
BRANCH  23  30
ATOM     30  C   UNK A   0      -5.148  -0.059 130.379  0.00  0.00    +0.000 C 
ATOM     31  O   UNK A   0      -4.898  -0.251 131.588  0.00  0.00    +0.000 OA
ATOM     32  N   UNK A   0      -5.237  -1.387 129.464  0.00  0.00    +0.000 N 
ATOM     33  C   UNK A   0      -5.292  -1.949 127.757  0.00  0.00    +0.000 C 
BRANCH  32  34
ATOM     34  C   UNK A   0      -4.850  -2.524 130.267  0.00  0.00    +0.000 C 
ATOM     35  C   UNK A   0      -5.854  -3.668 130.150  0.00  0.00    +0.000 C 
ATOM     36  C   UNK A   0      -3.477  -2.985 129.791  0.00  0.00    +0.000 C 
ENDBRANCH  32  34
ENDBRANCH  23  30
ENDBRANCH   8  23
TORSDOF 7
ENDMDL
MODEL 8
REMARK VINA RESULT:      -8.9      3.562      7.010
REMARK  Name = CHEMBL372978
REMARK  12 active torsions:
REMARK  status: ('A' for Active; 'I' for Inactive)
REMARK    1  A    between atoms: CD1_1  and  CG_2
REMARK    2  A    between atoms: CG_2  and  CD2_3
REMARK    3  A    between atoms: CG_2  and  CB_4
REMARK    4  A    between atoms: CB_4  and  CA_5
REMARK    5  A    between atoms: C_9  and  C_10
REMARK    6  A    between atoms: N_21  and  C_22
REMARK    7  A    between atoms: C_22  and  C_23
REMARK    8  A    between atoms: C_22  and  C_30
REMARK    9  A    between atoms: N_25  and  C_26
REMARK   10  A    between atoms: N_25  and  C_27
REMARK   11  A    between atoms: C_27  and  C_28
REMARK   12  A    between atoms: C_27  and  C_29
REMARK                            x       y       z     vdW  Elec       q    Type
REMARK                         _______ _______ _______ _____ _____    ______ ____
ROOT
ATOM      1  CA  LEU A   2      -8.065   3.054 129.711  0.00  0.00    +0.000 C 
ATOM      2  C   LEU A   2      -8.416   4.112 128.567  0.00  0.00    +0.000 C 
ATOM      3  O   LEU A   2      -8.243   4.073 127.375  0.00  0.00    +0.000 OA
ATOM      4  N   UNK A   1      -9.008   5.181 129.128  0.00  0.00    +0.000 N 
ATOM      5  C   UNK A   1      -9.369   5.162 130.528  0.00  0.00    +0.000 C 
ATOM      6  C   UNK A   1      -8.237   4.724 131.420  0.00  0.00    +0.000 C 
ATOM      7  O   UNK A   1      -8.101   5.161 132.526  0.00  0.00    +0.000 OA
ATOM      8  N   LEU A   2      -7.477   3.760 130.813  0.00  0.00    +0.000 N 
ATOM      9  H   UNK A   1      -9.234   5.895 128.448  0.00  0.00    +0.000 HD
ENDROOT
BRANCH   5  10
ATOM     10  C   UNK A   1      -9.655   6.546 131.054  0.00  0.00    +0.000 C 
ATOM     11  C   UNK A   1     -11.134   6.565 131.373  0.00  0.00    +0.000 C 
ATOM     12  C   UNK A   1     -11.685   7.075 130.073  0.00  0.00    +0.000 A 
ATOM     13  C   UNK A   1     -12.931   6.796 129.548  0.00  0.00    +0.000 A 
ATOM     14  C   UNK A   1     -13.201   7.200 128.240  0.00  0.00    +0.000 A 
ATOM     15  C   UNK A   1     -12.221   7.840 127.462  0.00  0.00    +0.000 A 
ATOM     16  C   UNK A   1     -10.939   8.060 127.968  0.00  0.00    +0.000 A 
ATOM     17  C   UNK A   1     -10.688   7.678 129.276  0.00  0.00    +0.000 A 
ATOM     18  C   UNK A   1      -9.366   7.642 129.979  0.00  0.00    +0.000 C 
ENDBRANCH   5  10
BRANCH   1  19
ATOM     19  CB  LEU A   2      -7.112   2.180 129.075  0.00  0.00    +0.000 C 
BRANCH  19  21
ATOM     20  CD1 LEU A   2      -5.481  -0.495 129.218  0.00  0.00    +0.000 C 
ATOM     21  CG  LEU A   2      -6.830   0.368 129.199  0.00  0.00    +0.000 C 
ATOM     22  CD2 LEU A   2      -7.392  -0.265 130.415  0.00  0.00    +0.000 C 
ENDBRANCH  19  21
ENDBRANCH   1  19
BRANCH   8  23
ATOM     23  C   UNK A   0      -6.072   3.692 131.122  0.00  0.00    +0.000 C 
BRANCH  23  24
ATOM     24  C   UNK A   0      -5.636   2.515 132.064  0.00  0.00    +0.000 A 
ATOM     25  C   UNK A   0      -6.329   2.204 133.208  0.00  0.00    +0.000 A 
ATOM     26  C   UNK A   0      -5.890   1.165 134.008  0.00  0.00    +0.000 A 
ATOM     27  C   UNK A   0      -4.819   0.357 133.612  0.00  0.00    +0.000 A 
ATOM     28  C   UNK A   0      -4.021   0.708 132.536  0.00  0.00    +0.000 A 
ATOM     29  C   UNK A   0      -4.370   1.846 131.832  0.00  0.00    +0.000 A 
ENDBRANCH  23  24
BRANCH  23  30
ATOM     30  C   UNK A   0      -4.991   5.067 130.786  0.00  0.00    +0.000 C 
ATOM     31  O   UNK A   0      -5.470   5.885 129.972  0.00  0.00    +0.000 OA
ATOM     32  N   UNK A   0      -3.592   5.500 131.469  0.00  0.00    +0.000 N 
ATOM     33  C   UNK A   0      -2.223   4.870 132.451  0.00  0.00    +0.000 C 
BRANCH  32  34
ATOM     34  C   UNK A   0      -3.134   6.718 130.844  0.00  0.00    +0.000 C 
ATOM     35  C   UNK A   0      -2.744   7.773 131.878  0.00  0.00    +0.000 C 
ATOM     36  C   UNK A   0      -1.931   6.373 129.974  0.00  0.00    +0.000 C 
ENDBRANCH  32  34
ENDBRANCH  23  30
ENDBRANCH   8  23
TORSDOF 7
ENDMDL
MODEL 9
REMARK VINA RESULT:      -8.8      2.676      7.357
REMARK  Name = CHEMBL372978
REMARK  12 active torsions:
REMARK  status: ('A' for Active; 'I' for Inactive)
REMARK    1  A    between atoms: CD1_1  and  CG_2
REMARK    2  A    between atoms: CG_2  and  CD2_3
REMARK    3  A    between atoms: CG_2  and  CB_4
REMARK    4  A    between atoms: CB_4  and  CA_5
REMARK    5  A    between atoms: C_9  and  C_10
REMARK    6  A    between atoms: N_21  and  C_22
REMARK    7  A    between atoms: C_22  and  C_23
REMARK    8  A    between atoms: C_22  and  C_30
REMARK    9  A    between atoms: N_25  and  C_26
REMARK   10  A    between atoms: N_25  and  C_27
REMARK   11  A    between atoms: C_27  and  C_28
REMARK   12  A    between atoms: C_27  and  C_29
REMARK                            x       y       z     vdW  Elec       q    Type
REMARK                         _______ _______ _______ _____ _____    ______ ____
ROOT
ATOM      1  CA  LEU A   2      -8.508   2.531 129.389  0.00  0.00    +0.000 C 
ATOM      2  C   LEU A   2      -8.187   3.855 128.554  0.00  0.00    +0.000 C 
ATOM      3  O   LEU A   2      -7.622   4.006 127.501  0.00  0.00    +0.000 OA
ATOM      4  N   UNK A   1      -8.679   4.917 129.216  0.00  0.00    +0.000 N 
ATOM      5  C   UNK A   1      -9.501   4.728 130.389  0.00  0.00    +0.000 C 
ATOM      6  C   UNK A   1      -8.883   3.790 131.392  0.00  0.00    +0.000 C 
ATOM      7  O   UNK A   1      -9.047   3.928 132.570  0.00  0.00    +0.000 OA
ATOM      8  N   LEU A   2      -8.198   2.781 130.768  0.00  0.00    +0.000 N 
ATOM      9  H   UNK A   1      -8.485   5.788 128.739  0.00  0.00    +0.000 HD
ENDROOT
BRANCH   5  10
ATOM     10  C   UNK A   1      -9.631   5.995 131.196  0.00  0.00    +0.000 C 
ATOM     11  C   UNK A   1     -11.113   6.164 131.456  0.00  0.00    +0.000 C 
ATOM     12  C   UNK A   1     -11.498   7.014 130.280  0.00  0.00    +0.000 A 
ATOM     13  C   UNK A   1     -12.732   7.040 129.660  0.00  0.00    +0.000 A 
ATOM     14  C   UNK A   1     -12.854   7.749 128.464  0.00  0.00    +0.000 A 
ATOM     15  C   UNK A   1     -11.744   8.387 127.882  0.00  0.00    +0.000 A 
ATOM     16  C   UNK A   1     -10.482   8.302 128.472  0.00  0.00    +0.000 A 
ATOM     17  C   UNK A   1     -10.376   7.618 129.672  0.00  0.00    +0.000 A 
ATOM     18  C   UNK A   1      -9.123   7.239 130.400  0.00  0.00    +0.000 C 
ENDBRANCH   5  10
BRANCH   1  19
ATOM     19  CB  LEU A   2      -7.617   1.553 128.817  0.00  0.00    +0.000 C 
BRANCH  19  21
ATOM     20  CD1 LEU A   2      -7.965  -1.144 127.257  0.00  0.00    +0.000 C 
ATOM     21  CG  LEU A   2      -7.780   0.443 127.361  0.00  0.00    +0.000 C 
ATOM     22  CD2 LEU A   2      -8.922   0.754 126.469  0.00  0.00    +0.000 C 
ENDBRANCH  19  21
ENDBRANCH   1  19
BRANCH   8  23
ATOM     23  C   UNK A   0      -7.045   2.221 131.422  0.00  0.00    +0.000 C 
BRANCH  23  24
ATOM     24  C   UNK A   0      -5.738   3.088 131.365  0.00  0.00    +0.000 A 
ATOM     25  C   UNK A   0      -4.833   2.974 130.339  0.00  0.00    +0.000 A 
ATOM     26  C   UNK A   0      -3.692   3.754 130.349  0.00  0.00    +0.000 A 
ATOM     27  C   UNK A   0      -3.501   4.736 131.326  0.00  0.00    +0.000 A 
ATOM     28  C   UNK A   0      -4.322   4.800 132.440  0.00  0.00    +0.000 A 
ATOM     29  C   UNK A   0      -5.373   3.905 132.507  0.00  0.00    +0.000 A 
ENDBRANCH  23  24
BRANCH  23  30
ATOM     30  C   UNK A   0      -7.006   0.506 131.904  0.00  0.00    +0.000 C 
ATOM     31  O   UNK A   0      -7.696   0.262 132.916  0.00  0.00    +0.000 OA
ATOM     32  N   UNK A   0      -6.367  -0.781 131.166  0.00  0.00    +0.000 N 
ATOM     33  C   UNK A   0      -5.159  -1.267 129.926  0.00  0.00    +0.000 C 
BRANCH  32  34
ATOM     34  C   UNK A   0      -6.639  -1.951 131.968  0.00  0.00    +0.000 C 
ATOM     35  C   UNK A   0      -7.217  -3.090 131.131  0.00  0.00    +0.000 C 
ATOM     36  C   UNK A   0      -5.329  -2.391 132.611  0.00  0.00    +0.000 C 
ENDBRANCH  32  34
ENDBRANCH  23  30
ENDBRANCH   8  23
TORSDOF 7
ENDMDL
