MODEL 1
REMARK VINA RESULT:      -9.9      0.000      0.000
REMARK  Name = CHEMBL25120
REMARK  6 active torsions:
REMARK  status: ('A' for Active; 'I' for Inactive)
REMARK    1  A    between atoms: C_2  and  C_3
REMARK    2  A    between atoms: C_3  and  C_4
REMARK    3  A    between atoms: C_9  and  O_10
REMARK    4  A    between atoms: O_10  and  C_11
REMARK    5  A    between atoms: C_11  and  C_12
REMARK    6  A    between atoms: C_19  and  N_20
REMARK                            x       y       z     vdW  Elec       q    Type
REMARK                         _______ _______ _______ _____ _____    ______ ____
ROOT
ATOM      1  O   UNL     1      -9.705   0.460 131.850  0.00  0.00    +0.000 OA
ATOM      2  C   UNL     1      -8.796   1.080 131.307  0.00  0.00    +0.000 C 
ATOM      3  N   UNL     1      -8.634   2.477 131.454  0.00  0.00    +0.000 N 
ATOM      4  C   UNL     1      -8.555   3.373 130.299  0.00  0.00    +0.000 C 
ATOM      5  C   UNL     1      -7.586   4.501 130.573  0.00  0.00    +0.000 C 
ATOM      6  C   UNL     1      -8.336   5.602 131.684  0.00  0.00    +0.000 C 
ATOM      7  C   UNL     1      -8.277   4.413 132.926  0.00  0.00    +0.000 C 
ATOM      8  C   UNL     1      -9.106   3.147 132.667  0.00  0.00    +0.000 C 
ENDROOT
BRANCH   6   9
ATOM      9  N   UNL     1      -9.377   6.833 130.824  0.00  0.00    +0.000 N 
ATOM     10  C   UNL     1     -10.367   6.469 131.806  0.00  0.00    +0.000 C 
ATOM     11  O   UNL     1     -10.287   6.487 133.077  0.00  0.00    +0.000 OA
ATOM     12  O   UNL     1     -11.391   5.783 131.358  0.00  0.00    +0.000 OA
ATOM     13  C   UNL     1     -12.183   6.870 131.107  0.00  0.00    +0.000 C 
ATOM     14  C   UNL     1     -11.846   6.819 129.680  0.00  0.00    +0.000 A 
ATOM     15  C   UNL     1     -13.023   6.636 128.839  0.00  0.00    +0.000 A 
ATOM     16  C   UNL     1     -13.191   7.213 127.618  0.00  0.00    +0.000 A 
ATOM     17  C   UNL     1     -12.284   8.231 127.470  0.00  0.00    +0.000 A 
ATOM     18  C   UNL     1     -10.963   8.283 128.386  0.00  0.00    +0.000 A 
ATOM     19  C   UNL     1     -10.519   7.211 129.429  0.00  0.00    +0.000 A 
ENDBRANCH   6   9
BRANCH   2  20
ATOM     20  C   UNL     1      -7.698   0.422 130.480  0.00  0.00    +0.000 C 
BRANCH  20  21
ATOM     21  C   UNL     1      -7.483  -1.082 130.509  0.00  0.00    +0.000 A 
ATOM     22  C   UNL     1      -7.036  -1.623 131.732  0.00  0.00    +0.000 A 
ATOM     23  C   UNL     1      -6.626  -2.949 131.856  0.00  0.00    +0.000 A 
ATOM     24  C   UNL     1      -6.713  -3.799 130.765  0.00  0.00    +0.000 A 
ATOM     25  C   UNL     1      -7.155  -3.300 129.539  0.00  0.00    +0.000 A 
ATOM     26  C   UNL     1      -7.534  -1.949 129.386  0.00  0.00    +0.000 A 
BRANCH  26  27
ATOM     27  O   UNL     1      -7.907  -1.677 128.084  0.00  0.00    +0.000 OA
BRANCH  27  28
ATOM     28  C   UNL     1      -7.705  -2.701 127.122  0.00  0.00    +0.000 C 
BRANCH  28  29
ATOM     29  C   UNL     1      -8.928  -3.345 126.537  0.00  0.00    +0.000 C 
ATOM     30  F   UNL     1      -9.592  -4.079 127.447  0.00  0.00    +0.000 F 
ATOM     31  F   UNL     1      -9.757  -2.436 125.994  0.00  0.00    +0.000 F 
ATOM     32  F   UNL     1      -8.535  -4.185 125.541  0.00  0.00    +0.000 F 
ENDBRANCH  28  29
ENDBRANCH  27  28
ENDBRANCH  26  27
ENDBRANCH  20  21
ENDBRANCH   2  20
TORSDOF 6
ENDMDL
MODEL 2
REMARK VINA RESULT:      -9.9      4.566      6.076
REMARK  Name = CHEMBL25120
REMARK  6 active torsions:
REMARK  status: ('A' for Active; 'I' for Inactive)
REMARK    1  A    between atoms: C_2  and  C_3
REMARK    2  A    between atoms: C_3  and  C_4
REMARK    3  A    between atoms: C_9  and  O_10
REMARK    4  A    between atoms: O_10  and  C_11
REMARK    5  A    between atoms: C_11  and  C_12
REMARK    6  A    between atoms: C_19  and  N_20
REMARK                            x       y       z     vdW  Elec       q    Type
REMARK                         _______ _______ _______ _____ _____    ______ ____
ROOT
ATOM      1  O   UNL     1      -4.785   2.123 129.581  0.00  0.00    +0.000 OA
ATOM      2  C   UNL     1      -4.916   2.877 130.539  0.00  0.00    +0.000 C 
ATOM      3  N   UNL     1      -6.153   3.477 130.871  0.00  0.00    +0.000 N 
ATOM      4  C   UNL     1      -6.294   4.927 131.020  0.00  0.00    +0.000 C 
ATOM      5  C   UNL     1      -7.275   5.250 132.124  0.00  0.00    +0.000 C 
ATOM      6  C   UNL     1      -8.874   4.906 131.548  0.00  0.00    +0.000 C 
ATOM      7  C   UNL     1      -8.514   3.224 131.505  0.00  0.00    +0.000 C 
ATOM      8  C   UNL     1      -7.408   2.812 130.522  0.00  0.00    +0.000 C 
ENDROOT
BRANCH   6   9
ATOM      9  N   UNL     1      -9.587   6.319 130.634  0.00  0.00    +0.000 N 
ATOM     10  C   UNL     1     -10.586   6.302 131.672  0.00  0.00    +0.000 C 
ATOM     11  O   UNL     1     -10.437   6.377 132.935  0.00  0.00    +0.000 OA
ATOM     12  O   UNL     1     -11.779   5.895 131.310  0.00  0.00    +0.000 OA
ATOM     13  C   UNL     1     -12.259   7.140 131.005  0.00  0.00    +0.000 C 
ATOM     14  C   UNL     1     -12.023   6.909 129.576  0.00  0.00    +0.000 A 
ATOM     15  C   UNL     1     -13.248   7.003 128.791  0.00  0.00    +0.000 A 
ATOM     16  C   UNL     1     -13.317   7.525 127.536  0.00  0.00    +0.000 A 
ATOM     17  C   UNL     1     -12.178   8.246 127.283  0.00  0.00    +0.000 A 
ATOM     18  C   UNL     1     -10.846   7.991 128.148  0.00  0.00    +0.000 A 
ATOM     19  C   UNL     1     -10.655   6.907 129.252  0.00  0.00    +0.000 A 
ENDBRANCH   6   9
BRANCH   2  20
ATOM     20  C   UNL     1      -3.798   3.199 131.524  0.00  0.00    +0.000 C 
BRANCH  20  21
ATOM     21  C   UNL     1      -2.820   4.333 131.264  0.00  0.00    +0.000 A 
ATOM     22  C   UNL     1      -1.994   4.703 132.345  0.00  0.00    +0.000 A 
ATOM     23  C   UNL     1      -1.183   5.836 132.311  0.00  0.00    +0.000 A 
ATOM     24  C   UNL     1      -1.124   6.603 131.159  0.00  0.00    +0.000 A 
ATOM     25  C   UNL     1      -1.924   6.265 130.067  0.00  0.00    +0.000 A 
ATOM     26  C   UNL     1      -2.783   5.145 130.100  0.00  0.00    +0.000 A 
BRANCH  26  27
ATOM     27  O   UNL     1      -3.496   5.025 128.922  0.00  0.00    +0.000 OA
BRANCH  27  28
ATOM     28  C   UNL     1      -2.752   4.980 127.714  0.00  0.00    +0.000 C 
BRANCH  28  29
ATOM     29  C   UNL     1      -2.693   3.665 126.993  0.00  0.00    +0.000 C 
ATOM     30  F   UNL     1      -3.888   3.316 126.486  0.00  0.00    +0.000 F 
ATOM     31  F   UNL     1      -1.769   3.675 126.015  0.00  0.00    +0.000 F 
ATOM     32  F   UNL     1      -2.330   2.703 127.885  0.00  0.00    +0.000 F 
ENDBRANCH  28  29
ENDBRANCH  27  28
ENDBRANCH  26  27
ENDBRANCH  20  21
ENDBRANCH   2  20
TORSDOF 6
ENDMDL
MODEL 3
REMARK VINA RESULT:      -9.9      4.059      5.638
REMARK  Name = CHEMBL25120
REMARK  6 active torsions:
REMARK  status: ('A' for Active; 'I' for Inactive)
REMARK    1  A    between atoms: C_2  and  C_3
REMARK    2  A    between atoms: C_3  and  C_4
REMARK    3  A    between atoms: C_9  and  O_10
REMARK    4  A    between atoms: O_10  and  C_11
REMARK    5  A    between atoms: C_11  and  C_12
REMARK    6  A    between atoms: C_19  and  N_20
REMARK                            x       y       z     vdW  Elec       q    Type
REMARK                         _______ _______ _______ _____ _____    ______ ____
ROOT
ATOM      1  O   UNL     1      -5.822   1.633 129.242  0.00  0.00    +0.000 OA
ATOM      2  C   UNL     1      -5.493   2.605 129.913  0.00  0.00    +0.000 C 
ATOM      3  N   UNL     1      -6.437   3.478 130.502  0.00  0.00    +0.000 N 
ATOM      4  C   UNL     1      -6.407   4.923 130.265  0.00  0.00    +0.000 C 
ATOM      5  C   UNL     1      -6.815   5.669 131.515  0.00  0.00    +0.000 C 
ATOM      6  C   UNL     1      -8.528   5.491 131.718  0.00  0.00    +0.000 C 
ATOM      7  C   UNL     1      -8.332   3.811 132.032  0.00  0.00    +0.000 C 
ATOM      8  C   UNL     1      -7.765   2.985 130.868  0.00  0.00    +0.000 C 
ENDROOT
BRANCH   6   9
ATOM      9  N   UNL     1      -9.461   6.750 130.777  0.00  0.00    +0.000 N 
ATOM     10  C   UNL     1     -10.524   6.445 131.701  0.00  0.00    +0.000 C 
ATOM     11  O   UNL     1     -10.521   6.481 132.974  0.00  0.00    +0.000 OA
ATOM     12  O   UNL     1     -11.547   5.794 131.200  0.00  0.00    +0.000 OA
ATOM     13  C   UNL     1     -12.275   6.909 130.884  0.00  0.00    +0.000 C 
ATOM     14  C   UNL     1     -11.853   6.819 129.482  0.00  0.00    +0.000 A 
ATOM     15  C   UNL     1     -12.983   6.671 128.572  0.00  0.00    +0.000 A 
ATOM     16  C   UNL     1     -13.050   7.232 127.334  0.00  0.00    +0.000 A 
ATOM     17  C   UNL     1     -12.094   8.209 127.228  0.00  0.00    +0.000 A 
ATOM     18  C   UNL     1     -10.830   8.221 128.224  0.00  0.00    +0.000 A 
ATOM     19  C   UNL     1     -10.498   7.151 129.308  0.00  0.00    +0.000 A 
ENDBRANCH   6   9
BRANCH   2  20
ATOM     20  C   UNL     1      -4.048   2.946 130.258  0.00  0.00    +0.000 C 
BRANCH  20  21
ATOM     21  C   UNL     1      -3.339   4.124 129.609  0.00  0.00    +0.000 A 
ATOM     22  C   UNL     1      -2.674   5.009 130.483  0.00  0.00    +0.000 A 
ATOM     23  C   UNL     1      -2.139   6.220 130.051  0.00  0.00    +0.000 A 
ATOM     24  C   UNL     1      -2.195   6.557 128.709  0.00  0.00    +0.000 A 
ATOM     25  C   UNL     1      -2.842   5.704 127.814  0.00  0.00    +0.000 A 
ATOM     26  C   UNL     1      -3.427   4.492 128.241  0.00  0.00    +0.000 A 
BRANCH  26  27
ATOM     27  O   UNL     1      -4.033   3.830 127.190  0.00  0.00    +0.000 OA
BRANCH  27  28
ATOM     28  C   UNL     1      -5.286   4.325 126.746  0.00  0.00    +0.000 C 
BRANCH  28  29
ATOM     29  C   UNL     1      -5.511   4.395 125.264  0.00  0.00    +0.000 C 
ATOM     30  F   UNL     1      -6.053   5.568 124.893  0.00  0.00    +0.000 F 
ATOM     31  F   UNL     1      -4.374   4.182 124.578  0.00  0.00    +0.000 F 
ATOM     32  F   UNL     1      -6.386   3.411 124.917  0.00  0.00    +0.000 F 
ENDBRANCH  28  29
ENDBRANCH  27  28
ENDBRANCH  26  27
ENDBRANCH  20  21
ENDBRANCH   2  20
TORSDOF 6
ENDMDL
MODEL 4
REMARK VINA RESULT:      -9.8      1.964      2.782
REMARK  Name = CHEMBL25120
REMARK  6 active torsions:
REMARK  status: ('A' for Active; 'I' for Inactive)
REMARK    1  A    between atoms: C_2  and  C_3
REMARK    2  A    between atoms: C_3  and  C_4
REMARK    3  A    between atoms: C_9  and  O_10
REMARK    4  A    between atoms: O_10  and  C_11
REMARK    5  A    between atoms: C_11  and  C_12
REMARK    6  A    between atoms: C_19  and  N_20
REMARK                            x       y       z     vdW  Elec       q    Type
REMARK                         _______ _______ _______ _____ _____    ______ ____
ROOT
ATOM      1  O   UNL     1      -9.484  -0.003 131.646  0.00  0.00    +0.000 OA
ATOM      2  C   UNL     1      -8.517   0.622 131.222  0.00  0.00    +0.000 C 
ATOM      3  N   UNL     1      -8.367   2.015 131.415  0.00  0.00    +0.000 N 
ATOM      4  C   UNL     1      -8.153   2.932 130.294  0.00  0.00    +0.000 C 
ATOM      5  C   UNL     1      -7.218   4.048 130.699  0.00  0.00    +0.000 C 
ATOM      6  C   UNL     1      -8.083   5.132 131.740  0.00  0.00    +0.000 C 
ATOM      7  C   UNL     1      -8.170   3.919 132.956  0.00  0.00    +0.000 C 
ATOM      8  C   UNL     1      -8.970   2.663 132.580  0.00  0.00    +0.000 C 
ENDROOT
BRANCH   6   9
ATOM      9  N   UNL     1      -9.015   6.387 130.793  0.00  0.00    +0.000 N 
ATOM     10  C   UNL     1      -9.976   6.272 131.862  0.00  0.00    +0.000 C 
ATOM     11  O   UNL     1      -9.808   6.422 133.115  0.00  0.00    +0.000 OA
ATOM     12  O   UNL     1     -11.106   5.683 131.553  0.00  0.00    +0.000 OA
ATOM     13  C   UNL     1     -11.769   6.831 131.214  0.00  0.00    +0.000 C 
ATOM     14  C   UNL     1     -11.537   6.574 129.789  0.00  0.00    +0.000 A 
ATOM     15  C   UNL     1     -12.782   6.457 129.038  0.00  0.00    +0.000 A 
ATOM     16  C   UNL     1     -12.957   6.909 127.766  0.00  0.00    +0.000 A 
ATOM     17  C   UNL     1     -11.940   7.774 127.450  0.00  0.00    +0.000 A 
ATOM     18  C   UNL     1     -10.565   7.751 128.283  0.00  0.00    +0.000 A 
ATOM     19  C   UNL     1     -10.192   6.754 129.423  0.00  0.00    +0.000 A 
ENDBRANCH   6   9
BRANCH   2  20
ATOM     20  C   UNL     1      -7.335  -0.027 130.511  0.00  0.00    +0.000 C 
BRANCH  20  21
ATOM     21  C   UNL     1      -7.541  -1.109 129.464  0.00  0.00    +0.000 A 
ATOM     22  C   UNL     1      -7.722  -0.666 128.138  0.00  0.00    +0.000 A 
ATOM     23  C   UNL     1      -8.098  -1.526 127.109  0.00  0.00    +0.000 A 
ATOM     24  C   UNL     1      -8.244  -2.880 127.364  0.00  0.00    +0.000 A 
ATOM     25  C   UNL     1      -8.069  -3.356 128.664  0.00  0.00    +0.000 A 
ATOM     26  C   UNL     1      -7.729  -2.492 129.727  0.00  0.00    +0.000 A 
BRANCH  26  27
ATOM     27  O   UNL     1      -7.638  -3.178 130.923  0.00  0.00    +0.000 OA
BRANCH  27  28
ATOM     28  C   UNL     1      -6.347  -3.317 131.496  0.00  0.00    +0.000 C 
BRANCH  28  29
ATOM     29  C   UNL     1      -5.401  -4.277 130.836  0.00  0.00    +0.000 C 
ATOM     30  F   UNL     1      -6.034  -5.375 130.386  0.00  0.00    +0.000 F 
ATOM     31  F   UNL     1      -4.726  -3.696 129.828  0.00  0.00    +0.000 F 
ATOM     32  F   UNL     1      -4.486  -4.680 131.759  0.00  0.00    +0.000 F 
ENDBRANCH  28  29
ENDBRANCH  27  28
ENDBRANCH  26  27
ENDBRANCH  20  21
ENDBRANCH   2  20
TORSDOF 6
ENDMDL
MODEL 5
REMARK VINA RESULT:      -9.7      3.718      5.982
REMARK  Name = CHEMBL25120
REMARK  6 active torsions:
REMARK  status: ('A' for Active; 'I' for Inactive)
REMARK    1  A    between atoms: C_2  and  C_3
REMARK    2  A    between atoms: C_3  and  C_4
REMARK    3  A    between atoms: C_9  and  O_10
REMARK    4  A    between atoms: O_10  and  C_11
REMARK    5  A    between atoms: C_11  and  C_12
REMARK    6  A    between atoms: C_19  and  N_20
REMARK                            x       y       z     vdW  Elec       q    Type
REMARK                         _______ _______ _______ _____ _____    ______ ____
ROOT
ATOM      1  O   UNL     1      -5.064  -1.991 128.074  0.00  0.00    +0.000 OA
ATOM      2  C   UNL     1      -6.082  -1.565 127.539  0.00  0.00    +0.000 C 
ATOM      3  N   UNL     1      -6.546  -0.243 127.729  0.00  0.00    +0.000 N 
ATOM      4  C   UNL     1      -7.904   0.042 128.196  0.00  0.00    +0.000 C 
ATOM      5  C   UNL     1      -8.438   1.291 127.533  0.00  0.00    +0.000 C 
ATOM      6  C   UNL     1      -7.645   2.662 128.240  0.00  0.00    +0.000 C 
ATOM      7  C   UNL     1      -6.149   2.176 127.543  0.00  0.00    +0.000 C 
ATOM      8  C   UNL     1      -5.598   0.830 128.036  0.00  0.00    +0.000 C 
ENDROOT
BRANCH   6   9
ATOM      9  N   UNL     1      -8.487   3.226 129.761  0.00  0.00    +0.000 N 
ATOM     10  C   UNL     1      -8.318   4.541 129.195  0.00  0.00    +0.000 C 
ATOM     11  O   UNL     1      -8.695   4.985 128.062  0.00  0.00    +0.000 OA
ATOM     12  O   UNL     1      -7.442   5.312 129.792  0.00  0.00    +0.000 OA
ATOM     13  C   UNL     1      -8.338   5.901 130.643  0.00  0.00    +0.000 C 
ATOM     14  C   UNL     1      -7.925   5.013 131.734  0.00  0.00    +0.000 A 
ATOM     15  C   UNL     1      -7.407   5.749 132.881  0.00  0.00    +0.000 A 
ATOM     16  C   UNL     1      -7.604   5.388 134.178  0.00  0.00    +0.000 A 
ATOM     17  C   UNL     1      -8.622   4.471 134.243  0.00  0.00    +0.000 A 
ATOM     18  C   UNL     1      -9.049   3.637 132.935  0.00  0.00    +0.000 A 
ATOM     19  C   UNL     1      -8.354   3.688 131.539  0.00  0.00    +0.000 A 
ENDBRANCH   6   9
BRANCH   2  20
ATOM     20  C   UNL     1      -6.923  -2.370 126.555  0.00  0.00    +0.000 C 
BRANCH  20  21
ATOM     21  C   UNL     1      -6.695  -2.269 125.056  0.00  0.00    +0.000 A 
ATOM     22  C   UNL     1      -5.651  -3.058 124.531  0.00  0.00    +0.000 A 
ATOM     23  C   UNL     1      -5.212  -2.933 123.214  0.00  0.00    +0.000 A 
ATOM     24  C   UNL     1      -5.852  -2.053 122.357  0.00  0.00    +0.000 A 
ATOM     25  C   UNL     1      -6.893  -1.259 122.841  0.00  0.00    +0.000 A 
ATOM     26  C   UNL     1      -7.323  -1.342 124.183  0.00  0.00    +0.000 A 
BRANCH  26  27
ATOM     27  O   UNL     1      -8.341  -0.445 124.440  0.00  0.00    +0.000 OA
BRANCH  27  28
ATOM     28  C   UNL     1      -8.350   0.760 123.691  0.00  0.00    +0.000 C 
BRANCH  28  29
ATOM     29  C   UNL     1      -9.681   1.258 123.206  0.00  0.00    +0.000 C 
ATOM     30  F   UNL     1     -10.252   0.402 122.341  0.00  0.00    +0.000 F 
ATOM     31  F   UNL     1     -10.522   1.502 124.227  0.00  0.00    +0.000 F 
ATOM     32  F   UNL     1      -9.486   2.434 122.551  0.00  0.00    +0.000 F 
ENDBRANCH  28  29
ENDBRANCH  27  28
ENDBRANCH  26  27
ENDBRANCH  20  21
ENDBRANCH   2  20
TORSDOF 6
ENDMDL
MODEL 6
REMARK VINA RESULT:      -9.7      2.569      3.859
REMARK  Name = CHEMBL25120
REMARK  6 active torsions:
REMARK  status: ('A' for Active; 'I' for Inactive)
REMARK    1  A    between atoms: C_2  and  C_3
REMARK    2  A    between atoms: C_3  and  C_4
REMARK    3  A    between atoms: C_9  and  O_10
REMARK    4  A    between atoms: O_10  and  C_11
REMARK    5  A    between atoms: C_11  and  C_12
REMARK    6  A    between atoms: C_19  and  N_20
REMARK                            x       y       z     vdW  Elec       q    Type
REMARK                         _______ _______ _______ _____ _____    ______ ____
ROOT
ATOM      1  O   UNL     1      -9.149   0.413 126.266  0.00  0.00    +0.000 OA
ATOM      2  C   UNL     1      -8.199   1.165 126.453  0.00  0.00    +0.000 C 
ATOM      3  N   UNL     1      -8.180   2.120 127.496  0.00  0.00    +0.000 N 
ATOM      4  C   UNL     1      -7.934   3.541 127.240  0.00  0.00    +0.000 C 
ATOM      5  C   UNL     1      -7.133   4.148 128.369  0.00  0.00    +0.000 C 
ATOM      6  C   UNL     1      -8.178   4.325 129.742  0.00  0.00    +0.000 C 
ATOM      7  C   UNL     1      -8.283   2.615 129.902  0.00  0.00    +0.000 C 
ATOM      8  C   UNL     1      -8.941   1.882 128.724  0.00  0.00    +0.000 C 
ENDROOT
BRANCH   6   9
ATOM      9  N   UNL     1      -9.112   5.895 129.690  0.00  0.00    +0.000 N 
ATOM     10  C   UNL     1      -9.838   5.333 130.801  0.00  0.00    +0.000 C 
ATOM     11  O   UNL     1      -9.398   4.896 131.914  0.00  0.00    +0.000 OA
ATOM     12  O   UNL     1     -11.075   4.974 130.552  0.00  0.00    +0.000 OA
ATOM     13  C   UNL     1     -11.638   6.168 130.916  0.00  0.00    +0.000 C 
ATOM     14  C   UNL     1     -11.740   6.576 129.511  0.00  0.00    +0.000 A 
ATOM     15  C   UNL     1     -13.117   6.841 129.111  0.00  0.00    +0.000 A 
ATOM     16  C   UNL     1     -13.490   7.823 128.245  0.00  0.00    +0.000 A 
ATOM     17  C   UNL     1     -12.456   8.712 128.098  0.00  0.00    +0.000 A 
ATOM     18  C   UNL     1     -10.953   8.282 128.477  0.00  0.00    +0.000 A 
ATOM     19  C   UNL     1     -10.487   6.869 128.945  0.00  0.00    +0.000 A 
ENDBRANCH   6   9
BRANCH   2  20
ATOM     20  C   UNL     1      -6.907   1.116 125.647  0.00  0.00    +0.000 C 
BRANCH  20  21
ATOM     21  C   UNL     1      -6.442  -0.169 124.981  0.00  0.00    +0.000 A 
ATOM     22  C   UNL     1      -6.745  -0.304 123.610  0.00  0.00    +0.000 A 
ATOM     23  C   UNL     1      -6.542  -1.495 122.916  0.00  0.00    +0.000 A 
ATOM     24  C   UNL     1      -5.965  -2.576 123.561  0.00  0.00    +0.000 A 
ATOM     25  C   UNL     1      -5.647  -2.478 124.917  0.00  0.00    +0.000 A 
ATOM     26  C   UNL     1      -5.884  -1.292 125.646  0.00  0.00    +0.000 A 
BRANCH  26  27
ATOM     27  O   UNL     1      -5.520  -1.437 126.971  0.00  0.00    +0.000 OA
BRANCH  27  28
ATOM     28  C   UNL     1      -6.071  -2.535 127.681  0.00  0.00    +0.000 C 
BRANCH  28  29
ATOM     29  C   UNL     1      -7.498  -2.416 128.132  0.00  0.00    +0.000 C 
ATOM     30  F   UNL     1      -7.827  -3.374 129.015  0.00  0.00    +0.000 F 
ATOM     31  F   UNL     1      -7.752  -1.205 128.659  0.00  0.00    +0.000 F 
ATOM     32  F   UNL     1      -8.304  -2.564 127.046  0.00  0.00    +0.000 F 
ENDBRANCH  28  29
ENDBRANCH  27  28
ENDBRANCH  26  27
ENDBRANCH  20  21
ENDBRANCH   2  20
TORSDOF 6
ENDMDL
MODEL 7
REMARK VINA RESULT:      -9.6      4.909      6.335
REMARK  Name = CHEMBL25120
REMARK  6 active torsions:
REMARK  status: ('A' for Active; 'I' for Inactive)
REMARK    1  A    between atoms: C_2  and  C_3
REMARK    2  A    between atoms: C_3  and  C_4
REMARK    3  A    between atoms: C_9  and  O_10
REMARK    4  A    between atoms: O_10  and  C_11
REMARK    5  A    between atoms: C_11  and  C_12
REMARK    6  A    between atoms: C_19  and  N_20
REMARK                            x       y       z     vdW  Elec       q    Type
REMARK                         _______ _______ _______ _____ _____    ______ ____
ROOT
ATOM      1  O   UNL     1      -7.026   0.934 128.915  0.00  0.00    +0.000 OA
ATOM      2  C   UNL     1      -6.498   1.852 129.532  0.00  0.00    +0.000 C 
ATOM      3  N   UNL     1      -7.246   2.861 130.182  0.00  0.00    +0.000 N 
ATOM      4  C   UNL     1      -7.026   4.283 129.910  0.00  0.00    +0.000 C 
ATOM      5  C   UNL     1      -7.206   5.094 131.174  0.00  0.00    +0.000 C 
ATOM      6  C   UNL     1      -8.900   5.172 131.533  0.00  0.00    +0.000 C 
ATOM      7  C   UNL     1      -8.924   3.485 131.866  0.00  0.00    +0.000 C 
ATOM      8  C   UNL     1      -8.593   2.573 130.675  0.00  0.00    +0.000 C 
ENDROOT
BRANCH   6   9
ATOM      9  N   UNL     1      -9.721   6.547 130.649  0.00  0.00    +0.000 N 
ATOM     10  C   UNL     1     -10.689   6.461 131.713  0.00  0.00    +0.000 C 
ATOM     11  O   UNL     1     -10.513   6.536 132.972  0.00  0.00    +0.000 OA
ATOM     12  O   UNL     1     -11.865   5.986 131.378  0.00  0.00    +0.000 OA
ATOM     13  C   UNL     1     -12.427   7.201 131.097  0.00  0.00    +0.000 C 
ATOM     14  C   UNL     1     -12.215   6.995 129.660  0.00  0.00    +0.000 A 
ATOM     15  C   UNL     1     -13.463   7.021 128.907  0.00  0.00    +0.000 A 
ATOM     16  C   UNL     1     -13.597   7.547 127.659  0.00  0.00    +0.000 A 
ATOM     17  C   UNL     1     -12.510   8.337 127.383  0.00  0.00    +0.000 A 
ATOM     18  C   UNL     1     -11.143   8.157 128.212  0.00  0.00    +0.000 A 
ATOM     19  C   UNL     1     -10.859   7.078 129.301  0.00  0.00    +0.000 A 
ENDBRANCH   6   9
BRANCH   2  20
ATOM     20  C   UNL     1      -4.993   1.979 129.739  0.00  0.00    +0.000 C 
BRANCH  20  21
ATOM     21  C   UNL     1      -4.149   2.882 128.855  0.00  0.00    +0.000 A 
ATOM     22  C   UNL     1      -3.858   2.395 127.564  0.00  0.00    +0.000 A 
ATOM     23  C   UNL     1      -2.953   3.027 126.715  0.00  0.00    +0.000 A 
ATOM     24  C   UNL     1      -2.354   4.212 127.109  0.00  0.00    +0.000 A 
ATOM     25  C   UNL     1      -2.621   4.728 128.378  0.00  0.00    +0.000 A 
ATOM     26  C   UNL     1      -3.503   4.078 129.268  0.00  0.00    +0.000 A 
BRANCH  26  27
ATOM     27  O   UNL     1      -3.589   4.752 130.471  0.00  0.00    +0.000 OA
BRANCH  27  28
ATOM     28  C   UNL     1      -3.051   6.064 130.521  0.00  0.00    +0.000 C 
BRANCH  28  29
ATOM     29  C   UNL     1      -3.962   7.162 130.988  0.00  0.00    +0.000 C 
ATOM     30  F   UNL     1      -4.550   6.862 132.159  0.00  0.00    +0.000 F 
ATOM     31  F   UNL     1      -3.312   8.335 131.092  0.00  0.00    +0.000 F 
ATOM     32  F   UNL     1      -4.947   7.323 130.064  0.00  0.00    +0.000 F 
ENDBRANCH  28  29
ENDBRANCH  27  28
ENDBRANCH  26  27
ENDBRANCH  20  21
ENDBRANCH   2  20
TORSDOF 6
ENDMDL
MODEL 8
REMARK VINA RESULT:      -9.6      3.605      5.301
REMARK  Name = CHEMBL25120
REMARK  6 active torsions:
REMARK  status: ('A' for Active; 'I' for Inactive)
REMARK    1  A    between atoms: C_2  and  C_3
REMARK    2  A    between atoms: C_3  and  C_4
REMARK    3  A    between atoms: C_9  and  O_10
REMARK    4  A    between atoms: O_10  and  C_11
REMARK    5  A    between atoms: C_11  and  C_12
REMARK    6  A    between atoms: C_19  and  N_20
REMARK                            x       y       z     vdW  Elec       q    Type
REMARK                         _______ _______ _______ _____ _____    ______ ____
ROOT
ATOM      1  O   UNL     1      -5.247   0.632 126.112  0.00  0.00    +0.000 OA
ATOM      2  C   UNL     1      -5.670   0.222 127.187  0.00  0.00    +0.000 C 
ATOM      3  N   UNL     1      -6.302   1.068 128.128  0.00  0.00    +0.000 N 
ATOM      4  C   UNL     1      -5.839   1.164 129.514  0.00  0.00    +0.000 C 
ATOM      5  C   UNL     1      -7.013   1.344 130.449  0.00  0.00    +0.000 C 
ATOM      6  C   UNL     1      -7.604   2.965 130.275  0.00  0.00    +0.000 C 
ATOM      7  C   UNL     1      -8.129   2.619 128.674  0.00  0.00    +0.000 C 
ATOM      8  C   UNL     1      -7.016   2.263 127.677  0.00  0.00    +0.000 C 
ENDROOT
BRANCH   6   9
ATOM      9  N   UNL     1      -6.697   4.139 131.344  0.00  0.00    +0.000 N 
ATOM     10  C   UNL     1      -7.692   5.085 130.904  0.00  0.00    +0.000 C 
ATOM     11  O   UNL     1      -8.961   5.013 130.979  0.00  0.00    +0.000 OA
ATOM     12  O   UNL     1      -7.269   6.019 130.087  0.00  0.00    +0.000 OA
ATOM     13  C   UNL     1      -6.976   6.931 131.064  0.00  0.00    +0.000 C 
ATOM     14  C   UNL     1      -5.553   6.583 130.999  0.00  0.00    +0.000 A 
ATOM     15  C   UNL     1      -4.719   7.727 130.649  0.00  0.00    +0.000 A 
ATOM     16  C   UNL     1      -3.477   7.954 131.155  0.00  0.00    +0.000 A 
ATOM     17  C   UNL     1      -3.291   7.172 132.266  0.00  0.00    +0.000 A 
ATOM     18  C   UNL     1      -4.205   5.870 132.505  0.00  0.00    +0.000 A 
ATOM     19  C   UNL     1      -5.287   5.310 131.533  0.00  0.00    +0.000 A 
ENDBRANCH   6   9
BRANCH   2  20
ATOM     20  C   UNL     1      -5.640  -1.243 127.607  0.00  0.00    +0.000 C 
BRANCH  20  21
ATOM     21  C   UNL     1      -6.900  -2.093 127.593  0.00  0.00    +0.000 A 
ATOM     22  C   UNL     1      -7.304  -2.627 128.834  0.00  0.00    +0.000 A 
ATOM     23  C   UNL     1      -8.329  -3.565 128.944  0.00  0.00    +0.000 A 
ATOM     24  C   UNL     1      -9.030  -3.952 127.814  0.00  0.00    +0.000 A 
ATOM     25  C   UNL     1      -8.662  -3.440 126.569  0.00  0.00    +0.000 A 
ATOM     26  C   UNL     1      -7.598  -2.521 126.434  0.00  0.00    +0.000 A 
BRANCH  26  27
ATOM     27  O   UNL     1      -7.397  -2.178 125.111  0.00  0.00    +0.000 OA
BRANCH  27  28
ATOM     28  C   UNL     1      -6.811  -3.158 124.267  0.00  0.00    +0.000 C 
BRANCH  28  29
ATOM     29  C   UNL     1      -5.367  -2.974 123.902  0.00  0.00    +0.000 C 
ATOM     30  F   UNL     1      -5.189  -2.925 122.570  0.00  0.00    +0.000 F 
ATOM     31  F   UNL     1      -4.846  -1.873 124.471  0.00  0.00    +0.000 F 
ATOM     32  F   UNL     1      -4.668  -4.044 124.370  0.00  0.00    +0.000 F 
ENDBRANCH  28  29
ENDBRANCH  27  28
ENDBRANCH  26  27
ENDBRANCH  20  21
ENDBRANCH   2  20
TORSDOF 6
ENDMDL
MODEL 9
REMARK VINA RESULT:      -9.6      4.060      5.107
REMARK  Name = CHEMBL25120
REMARK  6 active torsions:
REMARK  status: ('A' for Active; 'I' for Inactive)
REMARK    1  A    between atoms: C_2  and  C_3
REMARK    2  A    between atoms: C_3  and  C_4
REMARK    3  A    between atoms: C_9  and  O_10
REMARK    4  A    between atoms: O_10  and  C_11
REMARK    5  A    between atoms: C_11  and  C_12
REMARK    6  A    between atoms: C_19  and  N_20
REMARK                            x       y       z     vdW  Elec       q    Type
REMARK                         _______ _______ _______ _____ _____    ______ ____
ROOT
ATOM      1  O   UNL     1      -7.681   0.926 128.272  0.00  0.00    +0.000 OA
ATOM      2  C   UNL     1      -6.978   1.819 128.734  0.00  0.00    +0.000 C 
ATOM      3  N   UNL     1      -7.499   2.858 129.538  0.00  0.00    +0.000 N 
ATOM      4  C   UNL     1      -7.291   4.270 129.210  0.00  0.00    +0.000 C 
ATOM      5  C   UNL     1      -7.121   5.084 130.472  0.00  0.00    +0.000 C 
ATOM      6  C   UNL     1      -8.671   5.237 131.233  0.00  0.00    +0.000 C 
ATOM      7  C   UNL     1      -8.686   3.551 131.576  0.00  0.00    +0.000 C 
ATOM      8  C   UNL     1      -8.696   2.628 130.349  0.00  0.00    +0.000 C 
ENDROOT
BRANCH   6   9
ATOM      9  N   UNL     1      -9.622   6.648 130.566  0.00  0.00    +0.000 N 
ATOM     10  C   UNL     1     -10.527   6.367 131.652  0.00  0.00    +0.000 C 
ATOM     11  O   UNL     1     -10.290   6.298 132.902  0.00  0.00    +0.000 OA
ATOM     12  O   UNL     1     -11.685   5.855 131.312  0.00  0.00    +0.000 OA
ATOM     13  C   UNL     1     -12.338   7.054 131.210  0.00  0.00    +0.000 C 
ATOM     14  C   UNL     1     -12.188   7.040 129.751  0.00  0.00    +0.000 A 
ATOM     15  C   UNL     1     -13.473   7.070 129.062  0.00  0.00    +0.000 A 
ATOM     16  C   UNL     1     -13.704   7.735 127.898  0.00  0.00    +0.000 A 
ATOM     17  C   UNL     1     -12.686   8.626 127.676  0.00  0.00    +0.000 A 
ATOM     18  C   UNL     1     -11.268   8.442 128.415  0.00  0.00    +0.000 A 
ATOM     19  C   UNL     1     -10.860   7.260 129.346  0.00  0.00    +0.000 A 
ENDBRANCH   6   9
BRANCH   2  20
ATOM     20  C   UNL     1      -5.464   1.878 128.566  0.00  0.00    +0.000 C 
BRANCH  20  21
ATOM     21  C   UNL     1      -4.577   2.507 129.628  0.00  0.00    +0.000 A 
ATOM     22  C   UNL     1      -4.640   1.929 130.913  0.00  0.00    +0.000 A 
ATOM     23  C   UNL     1      -4.025   2.507 132.021  0.00  0.00    +0.000 A 
ATOM     24  C   UNL     1      -3.267   3.656 131.864  0.00  0.00    +0.000 A 
ATOM     25  C   UNL     1      -3.178   4.254 130.606  0.00  0.00    +0.000 A 
ATOM     26  C   UNL     1      -3.830   3.705 129.481  0.00  0.00    +0.000 A 
BRANCH  26  27
ATOM     27  O   UNL     1      -3.625   4.480 128.355  0.00  0.00    +0.000 OA
BRANCH  27  28
ATOM     28  C   UNL     1      -2.436   4.250 127.615  0.00  0.00    +0.000 C 
BRANCH  28  29
ATOM     29  C   UNL     1      -2.566   3.494 126.325  0.00  0.00    +0.000 C 
ATOM     30  F   UNL     1      -1.432   3.536 125.603  0.00  0.00    +0.000 F 
ATOM     31  F   UNL     1      -2.927   2.215 126.532  0.00  0.00    +0.000 F 
ATOM     32  F   UNL     1      -3.546   4.078 125.583  0.00  0.00    +0.000 F 
ENDBRANCH  28  29
ENDBRANCH  27  28
ENDBRANCH  26  27
ENDBRANCH  20  21
ENDBRANCH   2  20
TORSDOF 6
ENDMDL
