MODEL 1
REMARK VINA RESULT:     -11.3      0.000      0.000
REMARK  Name = CHEMBL281988
REMARK  6 active torsions:
REMARK  status: ('A' for Active; 'I' for Inactive)
REMARK    1  A    between atoms: C_2  and  C_3
REMARK    2  A    between atoms: C_8  and  C_9
REMARK    3  A    between atoms: C_9  and  N_10
REMARK    4  A    between atoms: C_14  and  N_15
REMARK    5  A    between atoms: C_17  and  C_18
REMARK    6  A    between atoms: C_33  and  N_34
REMARK                            x       y       z     vdW  Elec       q    Type
REMARK                         _______ _______ _______ _____ _____    ______ ____
ROOT
ATOM      1  C   UNL     1      -4.066   3.355 129.283  0.00  0.00    +0.000 A 
ATOM      2  C   UNL     1      -3.016   3.530 128.351  0.00  0.00    +0.000 A 
ATOM      3  C   UNL     1      -3.257   3.617 126.959  0.00  0.00    +0.000 A 
ATOM      4  C   UNL     1      -4.595   3.545 126.572  0.00  0.00    +0.000 A 
ATOM      5  O   UNL     1      -5.067   3.589 125.302  0.00  0.00    +0.000 OA
ATOM      6  C   UNL     1      -6.434   3.455 125.347  0.00  0.00    +0.000 A 
ATOM      7  C   UNL     1      -6.833   3.379 126.659  0.00  0.00    +0.000 A 
ATOM      8  C   UNL     1      -5.658   3.415 127.450  0.00  0.00    +0.000 A 
ATOM      9  C   UNL     1      -5.392   3.343 128.825  0.00  0.00    +0.000 A 
ENDROOT
BRANCH   1  11
ATOM     10  O   UNL     1      -4.086   2.290 131.361  0.00  0.00    +0.000 OA
ATOM     11  C   UNL     1      -3.854   3.351 130.784  0.00  0.00    +0.000 C 
ATOM     12  N   UNL     1      -3.233   4.497 131.399  0.00  0.00    +0.000 N 
ATOM     13  C   UNL     1      -3.822   5.836 131.287  0.00  0.00    +0.000 C 
ATOM     14  C   UNL     1      -2.742   6.952 131.254  0.00  0.00    +0.000 C 
ATOM     15  C   UNL     1      -1.795   7.149 132.813  0.00  0.00    +0.000 C 
ATOM     16  C   UNL     1      -1.225   5.473 132.630  0.00  0.00    +0.000 C 
ATOM     17  C   UNL     1      -2.370   4.385 132.598  0.00  0.00    +0.000 C 
BRANCH  15  18
ATOM     18  N   UNL     1      -1.878   8.513 134.118  0.00  0.00    +0.000 N 
ATOM     19  C   UNL     1      -0.634   8.837 133.532  0.00  0.00    +0.000 C 
ATOM     20  O   UNL     1       0.402   8.120 133.386  0.00  0.00    +0.000 OA
ATOM     21  O   UNL     1      -0.694   9.943 132.824  0.00  0.00    +0.000 OA
ATOM     22  C   UNL     1      -0.137  10.756 133.775  0.00  0.00    +0.000 C 
ATOM     23  C   UNL     1      -1.431  11.291 134.199  0.00  0.00    +0.000 A 
ATOM     24  C   UNL     1      -1.309  12.835 134.243  0.00  0.00    +0.000 A 
ATOM     25  C   UNL     1      -1.719  13.706 135.206  0.00  0.00    +0.000 A 
ATOM     26  C   UNL     1      -2.302  12.949 136.184  0.00  0.00    +0.000 A 
ATOM     27  C   UNL     1      -2.556  11.273 136.025  0.00  0.00    +0.000 A 
ATOM     28  C   UNL     1      -2.181  10.259 134.794  0.00  0.00    +0.000 A 
ENDBRANCH  15  18
ENDBRANCH   1  11
BRANCH   6  29
ATOM     29  C   UNL     1      -7.230   3.390 124.077  0.00  0.00    +0.000 C 
BRANCH  29  30
ATOM     30  N   UNL     1      -8.302   2.392 124.036  0.00  0.00    +0.000 NA
ATOM     31  C   UNL     1      -8.989   2.403 122.738  0.00  0.00    +0.000 C 
ATOM     32  C   UNL     1     -10.121   1.387 122.711  0.00  0.00    +0.000 C 
ATOM     33  C   UNL     1      -9.608  -0.013 123.028  0.00  0.00    +0.000 C 
ATOM     34  C   UNL     1      -8.795  -0.032 124.333  0.00  0.00    +0.000 C 
ATOM     35  C   UNL     1      -7.750   1.073 124.356  0.00  0.00    +0.000 C 
BRANCH  34  36
ATOM     36  N   UNL     1      -8.144  -1.335 124.545  0.00  0.00    +0.000 N 
ATOM     37  C   UNL     1      -6.862  -1.561 124.052  0.00  0.00    +0.000 A 
ATOM     38  C   UNL     1      -6.347  -2.797 123.980  0.00  0.00    +0.000 A 
ATOM     39  C   UNL     1      -7.065  -3.879 124.621  0.00  0.00    +0.000 A 
ATOM     40  C   UNL     1      -8.207  -3.649 125.281  0.00  0.00    +0.000 A 
ATOM     41  C   UNL     1      -8.883  -2.334 125.166  0.00  0.00    +0.000 A 
ATOM     42  O   UNL     1     -10.028  -2.210 125.591  0.00  0.00    +0.000 OA
BRANCH  38  43
ATOM     43  C   UNL     1      -5.067  -3.109 123.268  0.00  0.00    +0.000 C 
ATOM     44  F   UNL     1      -4.783  -4.434 123.288  0.00  0.00    +0.000 F 
ATOM     45  F   UNL     1      -5.129  -2.737 121.964  0.00  0.00    +0.000 F 
ATOM     46  F   UNL     1      -3.997  -2.466 123.806  0.00  0.00    +0.000 F 
ENDBRANCH  38  43
ENDBRANCH  34  36
ENDBRANCH  29  30
ENDBRANCH   6  29
TORSDOF 6
ENDMDL
MODEL 2
REMARK VINA RESULT:     -11.3      1.811      2.247
REMARK  Name = CHEMBL281988
REMARK  6 active torsions:
REMARK  status: ('A' for Active; 'I' for Inactive)
REMARK    1  A    between atoms: C_2  and  C_3
REMARK    2  A    between atoms: C_8  and  C_9
REMARK    3  A    between atoms: C_9  and  N_10
REMARK    4  A    between atoms: C_14  and  N_15
REMARK    5  A    between atoms: C_17  and  C_18
REMARK    6  A    between atoms: C_33  and  N_34
REMARK                            x       y       z     vdW  Elec       q    Type
REMARK                         _______ _______ _______ _____ _____    ______ ____
ROOT
ATOM      1  C   UNL     1      -7.157   3.302 131.616  0.00  0.00    +0.000 A 
ATOM      2  C   UNL     1      -8.512   2.906 131.522  0.00  0.00    +0.000 A 
ATOM      3  C   UNL     1      -9.151   2.715 130.273  0.00  0.00    +0.000 A 
ATOM      4  C   UNL     1      -8.353   2.916 129.148  0.00  0.00    +0.000 A 
ATOM      5  O   UNL     1      -8.745   2.808 127.855  0.00  0.00    +0.000 OA
ATOM      6  C   UNL     1      -7.672   3.116 127.053  0.00  0.00    +0.000 A 
ATOM      7  C   UNL     1      -6.580   3.369 127.846  0.00  0.00    +0.000 A 
ATOM      8  C   UNL     1      -7.013   3.264 129.191  0.00  0.00    +0.000 A 
ATOM      9  C   UNL     1      -6.401   3.435 130.440  0.00  0.00    +0.000 A 
ENDROOT
BRANCH   1  11
ATOM     10  O   UNL     1      -6.576   2.506 133.733  0.00  0.00    +0.000 OA
ATOM     11  C   UNL     1      -6.416   3.426 132.932  0.00  0.00    +0.000 C 
ATOM     12  N   UNL     1      -5.450   4.484 133.086  0.00  0.00    +0.000 N 
ATOM     13  C   UNL     1      -5.834   5.893 132.943  0.00  0.00    +0.000 C 
ATOM     14  C   UNL     1      -4.687   6.756 132.348  0.00  0.00    +0.000 C 
ATOM     15  C   UNL     1      -3.219   6.933 133.433  0.00  0.00    +0.000 C 
ATOM     16  C   UNL     1      -3.011   5.167 133.371  0.00  0.00    +0.000 C 
ATOM     17  C   UNL     1      -4.237   4.337 133.922  0.00  0.00    +0.000 C 
BRANCH  15  18
ATOM     18  N   UNL     1      -2.616   8.425 134.424  0.00  0.00    +0.000 N 
ATOM     19  C   UNL     1      -1.911   8.654 133.222  0.00  0.00    +0.000 C 
ATOM     20  O   UNL     1      -1.102   7.897 132.603  0.00  0.00    +0.000 OA
ATOM     21  O   UNL     1      -2.386   9.683 132.557  0.00  0.00    +0.000 OA
ATOM     22  C   UNL     1      -1.426  10.573 132.958  0.00  0.00    +0.000 C 
ATOM     23  C   UNL     1      -2.291  11.184 133.967  0.00  0.00    +0.000 A 
ATOM     24  C   UNL     1      -2.217  12.720 133.781  0.00  0.00    +0.000 A 
ATOM     25  C   UNL     1      -2.059  13.695 134.718  0.00  0.00    +0.000 A 
ATOM     26  C   UNL     1      -1.983  13.059 135.926  0.00  0.00    +0.000 A 
ATOM     27  C   UNL     1      -2.226  11.383 136.101  0.00  0.00    +0.000 A 
ATOM     28  C   UNL     1      -2.555  10.239 134.976  0.00  0.00    +0.000 A 
ENDBRANCH  15  18
ENDBRANCH   1  11
BRANCH   6  29
ATOM     29  C   UNL     1      -7.829   3.156 125.562  0.00  0.00    +0.000 C 
BRANCH  29  30
ATOM     30  N   UNL     1      -8.719   2.149 124.978  0.00  0.00    +0.000 NA
ATOM     31  C   UNL     1      -9.006   2.446 123.568  0.00  0.00    +0.000 C 
ATOM     32  C   UNL     1      -9.955   1.417 122.975  0.00  0.00    +0.000 C 
ATOM     33  C   UNL     1      -9.390   0.008 123.115  0.00  0.00    +0.000 C 
ATOM     34  C   UNL     1      -8.984  -0.294 124.568  0.00  0.00    +0.000 C 
ATOM     35  C   UNL     1      -8.128   0.820 125.151  0.00  0.00    +0.000 C 
BRANCH  34  36
ATOM     36  N   UNL     1      -8.270  -1.576 124.674  0.00  0.00    +0.000 N 
ATOM     37  C   UNL     1      -6.983  -1.701 124.158  0.00  0.00    +0.000 A 
ATOM     38  C   UNL     1      -6.411  -2.902 123.988  0.00  0.00    +0.000 A 
ATOM     39  C   UNL     1      -7.070  -4.064 124.545  0.00  0.00    +0.000 A 
ATOM     40  C   UNL     1      -8.216  -3.942 125.227  0.00  0.00    +0.000 A 
ATOM     41  C   UNL     1      -8.955  -2.655 125.218  0.00  0.00    +0.000 A 
ATOM     42  O   UNL     1     -10.101  -2.621 125.658  0.00  0.00    +0.000 OA
BRANCH  38  43
ATOM     43  C   UNL     1      -5.123  -3.095 123.247  0.00  0.00    +0.000 C 
ATOM     44  F   UNL     1      -4.797  -4.405 123.127  0.00  0.00    +0.000 F 
ATOM     45  F   UNL     1      -5.201  -2.590 121.990  0.00  0.00    +0.000 F 
ATOM     46  F   UNL     1      -4.073  -2.478 123.850  0.00  0.00    +0.000 F 
ENDBRANCH  38  43
ENDBRANCH  34  36
ENDBRANCH  29  30
ENDBRANCH   6  29
TORSDOF 6
ENDMDL
MODEL 3
REMARK VINA RESULT:     -11.3      5.930      7.802
REMARK  Name = CHEMBL281988
REMARK  6 active torsions:
REMARK  status: ('A' for Active; 'I' for Inactive)
REMARK    1  A    between atoms: C_2  and  C_3
REMARK    2  A    between atoms: C_8  and  C_9
REMARK    3  A    between atoms: C_9  and  N_10
REMARK    4  A    between atoms: C_14  and  N_15
REMARK    5  A    between atoms: C_17  and  C_18
REMARK    6  A    between atoms: C_33  and  N_34
REMARK                            x       y       z     vdW  Elec       q    Type
REMARK                         _______ _______ _______ _____ _____    ______ ____
ROOT
ATOM      1  C   UNL     1      -7.836  -1.082 130.791  0.00  0.00    +0.000 A 
ATOM      2  C   UNL     1      -7.510  -2.449 130.954  0.00  0.00    +0.000 A 
ATOM      3  C   UNL     1      -7.212  -3.285 129.850  0.00  0.00    +0.000 A 
ATOM      4  C   UNL     1      -7.236  -2.667 128.601  0.00  0.00    +0.000 A 
ATOM      5  O   UNL     1      -7.002  -3.262 127.405  0.00  0.00    +0.000 OA
ATOM      6  C   UNL     1      -7.154  -2.318 126.418  0.00  0.00    +0.000 A 
ATOM      7  C   UNL     1      -7.435  -1.106 126.998  0.00  0.00    +0.000 A 
ATOM      8  C   UNL     1      -7.510  -1.325 128.396  0.00  0.00    +0.000 A 
ATOM      9  C   UNL     1      -7.790  -0.517 129.507  0.00  0.00    +0.000 A 
ENDROOT
BRANCH   1  11
ATOM     10  O   UNL     1      -7.860  -0.598 133.075  0.00  0.00    +0.000 OA
ATOM     11  C   UNL     1      -8.069  -0.138 131.953  0.00  0.00    +0.000 C 
ATOM     12  N   UNL     1      -8.331   1.251 131.676  0.00  0.00    +0.000 N 
ATOM     13  C   UNL     1      -9.475   1.663 130.855  0.00  0.00    +0.000 C 
ATOM     14  C   UNL     1      -9.173   2.942 130.027  0.00  0.00    +0.000 C 
ATOM     15  C   UNL     1      -8.932   4.462 131.024  0.00  0.00    +0.000 C 
ATOM     16  C   UNL     1      -7.547   3.674 131.816  0.00  0.00    +0.000 C 
ATOM     17  C   UNL     1      -7.898   2.338 132.585  0.00  0.00    +0.000 C 
BRANCH  15  18
ATOM     18  N   UNL     1     -10.063   5.960 131.247  0.00  0.00    +0.000 N 
ATOM     19  C   UNL     1      -9.150   6.504 130.317  0.00  0.00    +0.000 C 
ATOM     20  O   UNL     1      -7.887   6.609 130.390  0.00  0.00    +0.000 OA
ATOM     21  O   UNL     1      -9.689   6.666 129.129  0.00  0.00    +0.000 OA
ATOM     22  C   UNL     1      -9.924   8.010 129.257  0.00  0.00    +0.000 C 
ATOM     23  C   UNL     1     -11.341   7.821 129.565  0.00  0.00    +0.000 A 
ATOM     24  C   UNL     1     -12.150   8.782 128.659  0.00  0.00    +0.000 A 
ATOM     25  C   UNL     1     -13.181   9.611 128.983  0.00  0.00    +0.000 A 
ATOM     26  C   UNL     1     -13.406   9.437 130.321  0.00  0.00    +0.000 A 
ATOM     27  C   UNL     1     -12.599   8.258 131.246  0.00  0.00    +0.000 A 
ATOM     28  C   UNL     1     -11.457   7.169 130.807  0.00  0.00    +0.000 A 
ENDBRANCH  15  18
ENDBRANCH   1  11
BRANCH   6  29
ATOM     29  C   UNL     1      -7.030  -2.707 124.975  0.00  0.00    +0.000 C 
BRANCH  29  30
ATOM     30  N   UNL     1      -7.443  -1.699 123.995  0.00  0.00    +0.000 NA
ATOM     31  C   UNL     1      -8.906  -1.629 123.887  0.00  0.00    +0.000 C 
ATOM     32  C   UNL     1      -9.328  -0.603 122.847  0.00  0.00    +0.000 C 
ATOM     33  C   UNL     1      -8.754   0.772 123.169  0.00  0.00    +0.000 C 
ATOM     34  C   UNL     1      -7.234   0.709 123.390  0.00  0.00    +0.000 C 
ATOM     35  C   UNL     1      -6.855  -0.406 124.353  0.00  0.00    +0.000 C 
BRANCH  34  36
ATOM     36  N   UNL     1      -6.706   1.991 123.883  0.00  0.00    +0.000 N 
ATOM     37  C   UNL     1      -6.684   2.256 125.250  0.00  0.00    +0.000 A 
ATOM     38  C   UNL     1      -6.474   3.494 125.720  0.00  0.00    +0.000 A 
ATOM     39  C   UNL     1      -6.059   4.523 124.788  0.00  0.00    +0.000 A 
ATOM     40  C   UNL     1      -5.876   4.241 123.492  0.00  0.00    +0.000 A 
ATOM     41  C   UNL     1      -6.324   2.938 122.941  0.00  0.00    +0.000 A 
ATOM     42  O   UNL     1      -6.352   2.781 121.724  0.00  0.00    +0.000 OA
BRANCH  38  43
ATOM     43  C   UNL     1      -6.650   3.861 127.161  0.00  0.00    +0.000 C 
ATOM     44  F   UNL     1      -7.822   4.503 127.383  0.00  0.00    +0.000 F 
ATOM     45  F   UNL     1      -6.646   2.758 127.951  0.00  0.00    +0.000 F 
ATOM     46  F   UNL     1      -5.661   4.673 127.620  0.00  0.00    +0.000 F 
ENDBRANCH  38  43
ENDBRANCH  34  36
ENDBRANCH  29  30
ENDBRANCH   6  29
TORSDOF 6
ENDMDL
MODEL 4
REMARK VINA RESULT:     -11.1      2.677      4.065
REMARK  Name = CHEMBL281988
REMARK  6 active torsions:
REMARK  status: ('A' for Active; 'I' for Inactive)
REMARK    1  A    between atoms: C_2  and  C_3
REMARK    2  A    between atoms: C_8  and  C_9
REMARK    3  A    between atoms: C_9  and  N_10
REMARK    4  A    between atoms: C_14  and  N_15
REMARK    5  A    between atoms: C_17  and  C_18
REMARK    6  A    between atoms: C_33  and  N_34
REMARK                            x       y       z     vdW  Elec       q    Type
REMARK                         _______ _______ _______ _____ _____    ______ ____
ROOT
ATOM      1  C   UNL     1      -4.995   3.753 126.054  0.00  0.00    +0.000 A 
ATOM      2  C   UNL     1      -6.023   4.713 125.901  0.00  0.00    +0.000 A 
ATOM      3  C   UNL     1      -7.277   4.383 125.333  0.00  0.00    +0.000 A 
ATOM      4  C   UNL     1      -7.440   3.049 124.961  0.00  0.00    +0.000 A 
ATOM      5  O   UNL     1      -8.540   2.503 124.387  0.00  0.00    +0.000 OA
ATOM      6  C   UNL     1      -8.286   1.174 124.149  0.00  0.00    +0.000 A 
ATOM      7  C   UNL     1      -7.036   0.865 124.625  0.00  0.00    +0.000 A 
ATOM      8  C   UNL     1      -6.478   2.066 125.129  0.00  0.00    +0.000 A 
ATOM      9  C   UNL     1      -5.249   2.417 125.704  0.00  0.00    +0.000 A 
ENDROOT
BRANCH   1  11
ATOM     10  O   UNL     1      -2.668   3.606 126.190  0.00  0.00    +0.000 OA
ATOM     11  C   UNL     1      -3.676   4.048 126.740  0.00  0.00    +0.000 C 
ATOM     12  N   UNL     1      -3.665   4.959 127.857  0.00  0.00    +0.000 N 
ATOM     13  C   UNL     1      -4.460   4.698 129.061  0.00  0.00    +0.000 C 
ATOM     14  C   UNL     1      -4.966   6.009 129.725  0.00  0.00    +0.000 C 
ATOM     15  C   UNL     1      -3.648   7.068 130.435  0.00  0.00    +0.000 C 
ATOM     16  C   UNL     1      -2.944   7.212 128.807  0.00  0.00    +0.000 C 
ATOM     17  C   UNL     1      -2.512   5.841 128.150  0.00  0.00    +0.000 C 
BRANCH  15  18
ATOM     18  N   UNL     1      -3.191   7.390 132.241  0.00  0.00    +0.000 N 
ATOM     19  C   UNL     1      -2.164   6.480 131.909  0.00  0.00    +0.000 C 
ATOM     20  O   UNL     1      -2.248   5.301 131.446  0.00  0.00    +0.000 OA
ATOM     21  O   UNL     1      -0.989   7.064 131.834  0.00  0.00    +0.000 OA
ATOM     22  C   UNL     1      -0.551   6.670 133.070  0.00  0.00    +0.000 C 
ATOM     23  C   UNL     1      -0.842   7.966 133.682  0.00  0.00    +0.000 A 
ATOM     24  C   UNL     1       0.412   8.402 134.479  0.00  0.00    +0.000 A 
ATOM     25  C   UNL     1       0.500   8.911 135.739  0.00  0.00    +0.000 A 
ATOM     26  C   UNL     1      -0.782   8.989 136.211  0.00  0.00    +0.000 A 
ATOM     27  C   UNL     1      -2.142   8.648 135.246  0.00  0.00    +0.000 A 
ATOM     28  C   UNL     1      -2.235   8.170 133.682  0.00  0.00    +0.000 A 
ENDBRANCH  15  18
ENDBRANCH   1  11
BRANCH   6  29
ATOM     29  C   UNL     1      -9.303   0.324 123.445  0.00  0.00    +0.000 C 
BRANCH  29  30
ATOM     30  N   UNL     1      -9.490  -1.030 123.971  0.00  0.00    +0.000 NA
ATOM     31  C   UNL     1      -8.905  -2.035 123.075  0.00  0.00    +0.000 C 
ATOM     32  C   UNL     1      -9.129  -3.441 123.610  0.00  0.00    +0.000 C 
ATOM     33  C   UNL     1      -8.560  -3.589 125.017  0.00  0.00    +0.000 C 
ATOM     34  C   UNL     1      -9.078  -2.484 125.952  0.00  0.00    +0.000 C 
ATOM     35  C   UNL     1      -8.932  -1.106 125.324  0.00  0.00    +0.000 C 
BRANCH  34  36
ATOM     36  N   UNL     1      -8.391  -2.511 127.253  0.00  0.00    +0.000 N 
ATOM     37  C   UNL     1      -7.330  -1.644 127.498  0.00  0.00    +0.000 A 
ATOM     38  C   UNL     1      -6.511  -1.818 128.545  0.00  0.00    +0.000 A 
ATOM     39  C   UNL     1      -6.870  -2.803 129.544  0.00  0.00    +0.000 A 
ATOM     40  C   UNL     1      -8.000  -3.512 129.432  0.00  0.00    +0.000 A 
ATOM     41  C   UNL     1      -8.781  -3.479 128.171  0.00  0.00    +0.000 A 
ATOM     42  O   UNL     1      -9.682  -4.294 128.003  0.00  0.00    +0.000 OA
BRANCH  38  43
ATOM     43  C   UNL     1      -5.242  -1.043 128.728  0.00  0.00    +0.000 C 
ATOM     44  F   UNL     1      -4.173  -1.854 128.918  0.00  0.00    +0.000 F 
ATOM     45  F   UNL     1      -4.972  -0.281 127.638  0.00  0.00    +0.000 F 
ATOM     46  F   UNL     1      -5.292  -0.198 129.791  0.00  0.00    +0.000 F 
ENDBRANCH  38  43
ENDBRANCH  34  36
ENDBRANCH  29  30
ENDBRANCH   6  29
TORSDOF 6
ENDMDL
MODEL 5
REMARK VINA RESULT:     -11.0      4.651      6.882
REMARK  Name = CHEMBL281988
REMARK  6 active torsions:
REMARK  status: ('A' for Active; 'I' for Inactive)
REMARK    1  A    between atoms: C_2  and  C_3
REMARK    2  A    between atoms: C_8  and  C_9
REMARK    3  A    between atoms: C_9  and  N_10
REMARK    4  A    between atoms: C_14  and  N_15
REMARK    5  A    between atoms: C_17  and  C_18
REMARK    6  A    between atoms: C_33  and  N_34
REMARK                            x       y       z     vdW  Elec       q    Type
REMARK                         _______ _______ _______ _____ _____    ______ ____
ROOT
ATOM      1  C   UNL     1      -7.125  -2.985 129.085  0.00  0.00    +0.000 A 
ATOM      2  C   UNL     1      -8.379  -3.630 128.961  0.00  0.00    +0.000 A 
ATOM      3  C   UNL     1      -9.048  -3.732 127.718  0.00  0.00    +0.000 A 
ATOM      4  C   UNL     1      -8.380  -3.181 126.625  0.00  0.00    +0.000 A 
ATOM      5  O   UNL     1      -8.827  -3.145 125.345  0.00  0.00    +0.000 OA
ATOM      6  C   UNL     1      -7.890  -2.489 124.582  0.00  0.00    +0.000 A 
ATOM      7  C   UNL     1      -6.821  -2.156 125.375  0.00  0.00    +0.000 A 
ATOM      8  C   UNL     1      -7.135  -2.577 126.691  0.00  0.00    +0.000 A 
ATOM      9  C   UNL     1      -6.488  -2.500 127.932  0.00  0.00    +0.000 A 
ENDROOT
BRANCH   1  11
ATOM     10  O   UNL     1      -5.946  -4.021 130.815  0.00  0.00    +0.000 OA
ATOM     11  C   UNL     1      -6.338  -2.939 130.380  0.00  0.00    +0.000 C 
ATOM     12  N   UNL     1      -5.947  -1.656 130.907  0.00  0.00    +0.000 N 
ATOM     13  C   UNL     1      -6.943  -0.634 131.245  0.00  0.00    +0.000 C 
ATOM     14  C   UNL     1      -6.412   0.806 131.005  0.00  0.00    +0.000 C 
ATOM     15  C   UNL     1      -5.044   1.314 132.116  0.00  0.00    +0.000 C 
ATOM     16  C   UNL     1      -4.069  -0.021 131.459  0.00  0.00    +0.000 C 
ATOM     17  C   UNL     1      -4.691  -1.459 131.668  0.00  0.00    +0.000 C 
BRANCH  15  18
ATOM     18  N   UNL     1      -5.046   2.522 133.570  0.00  0.00    +0.000 N 
ATOM     19  C   UNL     1      -5.349   3.425 132.527  0.00  0.00    +0.000 C 
ATOM     20  O   UNL     1      -4.707   3.671 131.460  0.00  0.00    +0.000 OA
ATOM     21  O   UNL     1      -6.592   3.845 132.580  0.00  0.00    +0.000 OA
ATOM     22  C   UNL     1      -6.314   5.053 133.163  0.00  0.00    +0.000 C 
ATOM     23  C   UNL     1      -6.706   4.599 134.496  0.00  0.00    +0.000 A 
ATOM     24  C   UNL     1      -7.662   5.662 135.092  0.00  0.00    +0.000 A 
ATOM     25  C   UNL     1      -7.665   6.219 136.335  0.00  0.00    +0.000 A 
ATOM     26  C   UNL     1      -6.629   5.643 137.017  0.00  0.00    +0.000 A 
ATOM     27  C   UNL     1      -5.701   4.367 136.377  0.00  0.00    +0.000 A 
ATOM     28  C   UNL     1      -5.802   3.610 134.928  0.00  0.00    +0.000 A 
ENDBRANCH  15  18
ENDBRANCH   1  11
BRANCH   6  29
ATOM     29  C   UNL     1      -8.150  -2.228 123.128  0.00  0.00    +0.000 C 
BRANCH  29  30
ATOM     30  N   UNL     1      -8.365  -0.829 122.750  0.00  0.00    +0.000 NA
ATOM     31  C   UNL     1      -9.741  -0.405 123.038  0.00  0.00    +0.000 C 
ATOM     32  C   UNL     1      -9.969   1.038 122.616  0.00  0.00    +0.000 C 
ATOM     33  C   UNL     1      -8.974   1.970 123.297  0.00  0.00    +0.000 C 
ATOM     34  C   UNL     1      -7.526   1.491 123.098  0.00  0.00    +0.000 C 
ATOM     35  C   UNL     1      -7.377   0.014 123.428  0.00  0.00    +0.000 C 
BRANCH  34  36
ATOM     36  N   UNL     1      -6.581   2.279 123.907  0.00  0.00    +0.000 N 
ATOM     37  C   UNL     1      -6.227   1.846 125.182  0.00  0.00    +0.000 A 
ATOM     38  C   UNL     1      -5.598   2.656 126.046  0.00  0.00    +0.000 A 
ATOM     39  C   UNL     1      -5.100   3.926 125.561  0.00  0.00    +0.000 A 
ATOM     40  C   UNL     1      -5.251   4.278 124.278  0.00  0.00    +0.000 A 
ATOM     41  C   UNL     1      -6.138   3.489 123.388  0.00  0.00    +0.000 A 
ATOM     42  O   UNL     1      -6.439   3.943 122.288  0.00  0.00    +0.000 OA
BRANCH  38  43
ATOM     43  C   UNL     1      -5.388   2.307 127.488  0.00  0.00    +0.000 C 
ATOM     44  F   UNL     1      -4.078   2.335 127.832  0.00  0.00    +0.000 F 
ATOM     45  F   UNL     1      -6.031   3.182 128.302  0.00  0.00    +0.000 F 
ATOM     46  F   UNL     1      -5.854   1.069 127.801  0.00  0.00    +0.000 F 
ENDBRANCH  38  43
ENDBRANCH  34  36
ENDBRANCH  29  30
ENDBRANCH   6  29
TORSDOF 6
ENDMDL
MODEL 6
REMARK VINA RESULT:     -11.0      1.612      2.515
REMARK  Name = CHEMBL281988
REMARK  6 active torsions:
REMARK  status: ('A' for Active; 'I' for Inactive)
REMARK    1  A    between atoms: C_2  and  C_3
REMARK    2  A    between atoms: C_8  and  C_9
REMARK    3  A    between atoms: C_9  and  N_10
REMARK    4  A    between atoms: C_14  and  N_15
REMARK    5  A    between atoms: C_17  and  C_18
REMARK    6  A    between atoms: C_33  and  N_34
REMARK                            x       y       z     vdW  Elec       q    Type
REMARK                         _______ _______ _______ _____ _____    ______ ____
ROOT
ATOM      1  C   UNL     1      -2.529   5.416 130.812  0.00  0.00    +0.000 A 
ATOM      2  C   UNL     1      -2.211   6.463 129.915  0.00  0.00    +0.000 A 
ATOM      3  C   UNL     1      -2.572   6.414 128.548  0.00  0.00    +0.000 A 
ATOM      4  C   UNL     1      -3.283   5.282 128.150  0.00  0.00    +0.000 A 
ATOM      5  O   UNL     1      -3.720   5.005 126.897  0.00  0.00    +0.000 OA
ATOM      6  C   UNL     1      -4.346   3.782 126.920  0.00  0.00    +0.000 A 
ATOM      7  C   UNL     1      -4.349   3.305 128.208  0.00  0.00    +0.000 A 
ATOM      8  C   UNL     1      -3.651   4.251 128.999  0.00  0.00    +0.000 A 
ATOM      9  C   UNL     1      -3.291   4.330 130.352  0.00  0.00    +0.000 A 
ENDROOT
BRANCH   1  11
ATOM     10  O   UNL     1      -2.242   4.400 132.895  0.00  0.00    +0.000 OA
ATOM     11  C   UNL     1      -2.239   5.476 132.298  0.00  0.00    +0.000 C 
ATOM     12  N   UNL     1      -1.807   6.726 132.869  0.00  0.00    +0.000 N 
ATOM     13  C   UNL     1      -2.636   7.933 132.781  0.00  0.00    +0.000 C 
ATOM     14  C   UNL     1      -1.782   9.226 132.680  0.00  0.00    +0.000 C 
ATOM     15  C   UNL     1      -0.804   9.619 134.181  0.00  0.00    +0.000 C 
ATOM     16  C   UNL     1       0.052   8.073 133.979  0.00  0.00    +0.000 C 
ATOM     17  C   UNL     1      -0.875   6.794 134.019  0.00  0.00    +0.000 C 
BRANCH  15  18
ATOM     18  N   UNL     1      -1.065  10.968 135.480  0.00  0.00    +0.000 N 
ATOM     19  C   UNL     1      -0.084  11.605 134.688  0.00  0.00    +0.000 C 
ATOM     20  O   UNL     1       1.078  11.208 134.367  0.00  0.00    +0.000 OA
ATOM     21  O   UNL     1      -0.579  12.609 133.999  0.00  0.00    +0.000 OA
ATOM     22  C   UNL     1      -0.135  13.596 134.840  0.00  0.00    +0.000 C 
ATOM     23  C   UNL     1      -1.440  13.758 135.479  0.00  0.00    +0.000 A 
ATOM     24  C   UNL     1      -1.767  15.272 135.499  0.00  0.00    +0.000 A 
ATOM     25  C   UNL     1      -2.250  16.037 136.517  0.00  0.00    +0.000 A 
ATOM     26  C   UNL     1      -2.418  15.196 137.583  0.00  0.00    +0.000 A 
ATOM     27  C   UNL     1      -2.194  13.512 137.472  0.00  0.00    +0.000 A 
ATOM     28  C   UNL     1      -1.748  12.586 136.196  0.00  0.00    +0.000 A 
ENDBRANCH  15  18
ENDBRANCH   1  11
BRANCH   6  29
ATOM     29  C   UNL     1      -4.868   3.176 125.651  0.00  0.00    +0.000 C 
BRANCH  29  30
ATOM     30  N   UNL     1      -6.253   2.698 125.685  0.00  0.00    +0.000 NA
ATOM     31  C   UNL     1      -7.077   3.385 124.683  0.00  0.00    +0.000 C 
ATOM     32  C   UNL     1      -8.520   2.908 124.742  0.00  0.00    +0.000 C 
ATOM     33  C   UNL     1      -8.605   1.397 124.553  0.00  0.00    +0.000 C 
ATOM     34  C   UNL     1      -7.670   0.655 125.523  0.00  0.00    +0.000 C 
ATOM     35  C   UNL     1      -6.268   1.243 125.506  0.00  0.00    +0.000 C 
BRANCH  34  36
ATOM     36  N   UNL     1      -7.609  -0.784 125.219  0.00  0.00    +0.000 N 
ATOM     37  C   UNL     1      -6.435  -1.340 124.717  0.00  0.00    +0.000 A 
ATOM     38  C   UNL     1      -6.417  -2.566 124.175  0.00  0.00    +0.000 A 
ATOM     39  C   UNL     1      -7.597  -3.395 124.310  0.00  0.00    +0.000 A 
ATOM     40  C   UNL     1      -8.674  -2.953 124.971  0.00  0.00    +0.000 A 
ATOM     41  C   UNL     1      -8.773  -1.526 125.367  0.00  0.00    +0.000 A 
ATOM     42  O   UNL     1      -9.847  -1.090 125.770  0.00  0.00    +0.000 OA
BRANCH  38  43
ATOM     43  C   UNL     1      -5.235  -3.117 123.438  0.00  0.00    +0.000 C 
ATOM     44  F   UNL     1      -5.146  -4.464 123.555  0.00  0.00    +0.000 F 
ATOM     45  F   UNL     1      -5.312  -2.838 122.112  0.00  0.00    +0.000 F 
ATOM     46  F   UNL     1      -4.057  -2.601 123.877  0.00  0.00    +0.000 F 
ENDBRANCH  38  43
ENDBRANCH  34  36
ENDBRANCH  29  30
ENDBRANCH   6  29
TORSDOF 6
ENDMDL
MODEL 7
REMARK VINA RESULT:     -10.7      6.489     12.483
REMARK  Name = CHEMBL281988
REMARK  6 active torsions:
REMARK  status: ('A' for Active; 'I' for Inactive)
REMARK    1  A    between atoms: C_2  and  C_3
REMARK    2  A    between atoms: C_8  and  C_9
REMARK    3  A    between atoms: C_9  and  N_10
REMARK    4  A    between atoms: C_14  and  N_15
REMARK    5  A    between atoms: C_17  and  C_18
REMARK    6  A    between atoms: C_33  and  N_34
REMARK                            x       y       z     vdW  Elec       q    Type
REMARK                         _______ _______ _______ _____ _____    ______ ____
ROOT
ATOM      1  C   UNL     1      -2.464   5.903 131.474  0.00  0.00    +0.000 A 
ATOM      2  C   UNL     1      -1.173   6.459 131.314  0.00  0.00    +0.000 A 
ATOM      3  C   UNL     1      -0.456   7.009 132.403  0.00  0.00    +0.000 A 
ATOM      4  C   UNL     1      -1.092   6.944 133.642  0.00  0.00    +0.000 A 
ATOM      5  O   UNL     1      -0.612   7.416 134.818  0.00  0.00    +0.000 OA
ATOM      6  C   UNL     1      -1.554   7.184 135.791  0.00  0.00    +0.000 A 
ATOM      7  C   UNL     1      -2.615   6.514 135.236  0.00  0.00    +0.000 A 
ATOM      8  C   UNL     1      -2.337   6.373 133.854  0.00  0.00    +0.000 A 
ATOM      9  C   UNL     1      -3.021   5.824 132.760  0.00  0.00    +0.000 A 
ENDROOT
BRANCH   1  11
ATOM     10  O   UNL     1      -2.547   4.554 129.569  0.00  0.00    +0.000 OA
ATOM     11  C   UNL     1      -3.222   5.222 130.351  0.00  0.00    +0.000 C 
ATOM     12  N   UNL     1      -4.662   5.243 130.375  0.00  0.00    +0.000 N 
ATOM     13  C   UNL     1      -5.407   6.506 130.378  0.00  0.00    +0.000 C 
ATOM     14  C   UNL     1      -6.734   6.404 131.180  0.00  0.00    +0.000 C 
ATOM     15  C   UNL     1      -7.992   5.292 130.441  0.00  0.00    +0.000 C 
ATOM     16  C   UNL     1      -6.844   3.945 130.613  0.00  0.00    +0.000 C 
ATOM     17  C   UNL     1      -5.482   4.133 129.835  0.00  0.00    +0.000 C 
BRANCH  15  18
ATOM     18  N   UNL     1      -9.609   5.709 129.554  0.00  0.00    +0.000 N 
ATOM     19  C   UNL     1     -10.038   5.870 130.890  0.00  0.00    +0.000 C 
ATOM     20  O   UNL     1     -10.003   5.046 131.854  0.00  0.00    +0.000 OA
ATOM     21  O   UNL     1     -10.245   7.131 131.196  0.00  0.00    +0.000 OA
ATOM     22  C   UNL     1     -11.607   7.093 131.061  0.00  0.00    +0.000 C 
ATOM     23  C   UNL     1     -11.580   7.711 129.736  0.00  0.00    +0.000 A 
ATOM     24  C   UNL     1     -12.614   8.864 129.734  0.00  0.00    +0.000 A 
ATOM     25  C   UNL     1     -13.555   9.178 128.802  0.00  0.00    +0.000 A 
ATOM     26  C   UNL     1     -13.423   8.258 127.798  0.00  0.00    +0.000 A 
ATOM     27  C   UNL     1     -12.173   7.103 127.766  0.00  0.00    +0.000 A 
ATOM     28  C   UNL     1     -10.959   6.829 128.831  0.00  0.00    +0.000 A 
ENDBRANCH  15  18
ENDBRANCH   1  11
BRANCH   6  29
ATOM     29  C   UNL     1      -1.330   7.672 137.192  0.00  0.00    +0.000 C 
BRANCH  29  30
ATOM     30  N   UNL     1      -2.407   8.476 137.777  0.00  0.00    +0.000 NA
ATOM     31  C   UNL     1      -2.462   9.812 137.172  0.00  0.00    +0.000 C 
ATOM     32  C   UNL     1      -3.561  10.653 137.804  0.00  0.00    +0.000 C 
ATOM     33  C   UNL     1      -4.914   9.962 137.688  0.00  0.00    +0.000 C 
ATOM     34  C   UNL     1      -4.858   8.520 138.221  0.00  0.00    +0.000 C 
ATOM     35  C   UNL     1      -3.676   7.757 137.643  0.00  0.00    +0.000 C 
BRANCH  34  36
ATOM     36  N   UNL     1      -6.105   7.791 137.941  0.00  0.00    +0.000 N 
ATOM     37  C   UNL     1      -6.173   6.917 136.859  0.00  0.00    +0.000 A 
ATOM     38  C   UNL     1      -7.346   6.451 136.408  0.00  0.00    +0.000 A 
ATOM     39  C   UNL     1      -8.535   6.703 137.196  0.00  0.00    +0.000 A 
ATOM     40  C   UNL     1      -8.463   7.372 138.352  0.00  0.00    +0.000 A 
ATOM     41  C   UNL     1      -7.212   8.076 138.730  0.00  0.00    +0.000 A 
ATOM     42  O   UNL     1      -7.229   8.860 139.674  0.00  0.00    +0.000 OA
BRANCH  38  43
ATOM     43  C   UNL     1      -7.483   5.683 135.129  0.00  0.00    +0.000 C 
ATOM     44  F   UNL     1      -7.922   4.418 135.339  0.00  0.00    +0.000 F 
ATOM     45  F   UNL     1      -8.372   6.278 134.294  0.00  0.00    +0.000 F 
ATOM     46  F   UNL     1      -6.311   5.588 134.447  0.00  0.00    +0.000 F 
ENDBRANCH  38  43
ENDBRANCH  34  36
ENDBRANCH  29  30
ENDBRANCH   6  29
TORSDOF 6
ENDMDL
MODEL 8
REMARK VINA RESULT:     -10.5      2.194      2.632
REMARK  Name = CHEMBL281988
REMARK  6 active torsions:
REMARK  status: ('A' for Active; 'I' for Inactive)
REMARK    1  A    between atoms: C_2  and  C_3
REMARK    2  A    between atoms: C_8  and  C_9
REMARK    3  A    between atoms: C_9  and  N_10
REMARK    4  A    between atoms: C_14  and  N_15
REMARK    5  A    between atoms: C_17  and  C_18
REMARK    6  A    between atoms: C_33  and  N_34
REMARK                            x       y       z     vdW  Elec       q    Type
REMARK                         _______ _______ _______ _____ _____    ______ ____
ROOT
ATOM      1  C   UNL     1      -4.070   4.233 129.890  0.00  0.00    +0.000 A 
ATOM      2  C   UNL     1      -3.306   4.629 128.766  0.00  0.00    +0.000 A 
ATOM      3  C   UNL     1      -3.863   4.693 127.467  0.00  0.00    +0.000 A 
ATOM      4  C   UNL     1      -5.215   4.368 127.372  0.00  0.00    +0.000 A 
ATOM      5  O   UNL     1      -5.959   4.342 126.239  0.00  0.00    +0.000 OA
ATOM      6  C   UNL     1      -7.231   3.941 126.568  0.00  0.00    +0.000 A 
ATOM      7  C   UNL     1      -7.306   3.762 127.927  0.00  0.00    +0.000 A 
ATOM      8  C   UNL     1      -6.013   4.013 128.448  0.00  0.00    +0.000 A 
ATOM      9  C   UNL     1      -5.439   3.969 129.727  0.00  0.00    +0.000 A 
ENDROOT
BRANCH   1  11
ATOM     10  O   UNL     1      -3.505   3.155 131.883  0.00  0.00    +0.000 OA
ATOM     11  C   UNL     1      -3.532   4.242 131.307  0.00  0.00    +0.000 C 
ATOM     12  N   UNL     1      -2.929   5.450 131.811  0.00  0.00    +0.000 N 
ATOM     13  C   UNL     1      -3.681   6.707 131.878  0.00  0.00    +0.000 C 
ATOM     14  C   UNL     1      -2.773   7.947 131.649  0.00  0.00    +0.000 C 
ATOM     15  C   UNL     1      -1.534   8.244 132.969  0.00  0.00    +0.000 C 
ATOM     16  C   UNL     1      -0.827   6.653 132.607  0.00  0.00    +0.000 C 
ATOM     17  C   UNL     1      -1.815   5.433 132.788  0.00  0.00    +0.000 C 
BRANCH  15  18
ATOM     18  N   UNL     1      -1.485   9.577 134.308  0.00  0.00    +0.000 N 
ATOM     19  C   UNL     1      -0.516  10.107 133.428  0.00  0.00    +0.000 C 
ATOM     20  O   UNL     1       0.546   9.576 132.981  0.00  0.00    +0.000 OA
ATOM     21  O   UNL     1      -0.944  11.185 132.811  0.00  0.00    +0.000 OA
ATOM     22  C   UNL     1      -0.293  12.083 133.615  0.00  0.00    +0.000 C 
ATOM     23  C   UNL     1      -1.494  12.391 134.390  0.00  0.00    +0.000 A 
ATOM     24  C   UNL     1      -1.619  13.933 134.468  0.00  0.00    +0.000 A 
ATOM     25  C   UNL     1      -1.893  14.723 135.542  0.00  0.00    +0.000 A 
ATOM     26  C   UNL     1      -2.059  13.880 136.606  0.00  0.00    +0.000 A 
ATOM     27  C   UNL     1      -2.068  12.185 136.447  0.00  0.00    +0.000 A 
ATOM     28  C   UNL     1      -1.877  11.248 135.117  0.00  0.00    +0.000 A 
ENDBRANCH  15  18
ENDBRANCH   1  11
BRANCH   6  29
ATOM     29  C   UNL     1      -8.263   3.745 125.497  0.00  0.00    +0.000 C 
BRANCH  29  30
ATOM     30  N   UNL     1      -8.162   2.507 124.720  0.00  0.00    +0.000 NA
ATOM     31  C   UNL     1      -6.851   2.393 124.068  0.00  0.00    +0.000 C 
ATOM     32  C   UNL     1      -6.763   1.122 123.238  0.00  0.00    +0.000 C 
ATOM     33  C   UNL     1      -7.038  -0.110 124.092  0.00  0.00    +0.000 C 
ATOM     34  C   UNL     1      -8.359   0.027 124.868  0.00  0.00    +0.000 C 
ATOM     35  C   UNL     1      -8.445   1.363 125.591  0.00  0.00    +0.000 C 
BRANCH  34  36
ATOM     36  N   UNL     1      -8.535  -1.071 125.832  0.00  0.00    +0.000 N 
ATOM     37  C   UNL     1      -7.934  -1.001 127.085  0.00  0.00    +0.000 A 
ATOM     38  C   UNL     1      -7.839  -2.078 127.878  0.00  0.00    +0.000 A 
ATOM     39  C   UNL     1      -8.562  -3.275 127.501  0.00  0.00    +0.000 A 
ATOM     40  C   UNL     1      -9.317  -3.301 126.396  0.00  0.00    +0.000 A 
ATOM     41  C   UNL     1      -9.239  -2.193 125.412  0.00  0.00    +0.000 A 
ATOM     42  O   UNL     1      -9.762  -2.332 124.311  0.00  0.00    +0.000 OA
BRANCH  38  43
ATOM     43  C   UNL     1      -7.021  -2.101 129.132  0.00  0.00    +0.000 C 
ATOM     44  F   UNL     1      -6.330  -0.948 129.310  0.00  0.00    +0.000 F 
ATOM     45  F   UNL     1      -7.807  -2.264 130.227  0.00  0.00    +0.000 F 
ATOM     46  F   UNL     1      -6.114  -3.113 129.149  0.00  0.00    +0.000 F 
ENDBRANCH  38  43
ENDBRANCH  34  36
ENDBRANCH  29  30
ENDBRANCH   6  29
TORSDOF 6
ENDMDL
MODEL 9
REMARK VINA RESULT:     -10.5      2.829      3.465
REMARK  Name = CHEMBL281988
REMARK  6 active torsions:
REMARK  status: ('A' for Active; 'I' for Inactive)
REMARK    1  A    between atoms: C_2  and  C_3
REMARK    2  A    between atoms: C_8  and  C_9
REMARK    3  A    between atoms: C_9  and  N_10
REMARK    4  A    between atoms: C_14  and  N_15
REMARK    5  A    between atoms: C_17  and  C_18
REMARK    6  A    between atoms: C_33  and  N_34
REMARK                            x       y       z     vdW  Elec       q    Type
REMARK                         _______ _______ _______ _____ _____    ______ ____
ROOT
ATOM      1  C   UNL     1      -7.186   3.135 131.848  0.00  0.00    +0.000 A 
ATOM      2  C   UNL     1      -8.554   2.776 131.824  0.00  0.00    +0.000 A 
ATOM      3  C   UNL     1      -9.253   2.572 130.610  0.00  0.00    +0.000 A 
ATOM      4  C   UNL     1      -8.501   2.723 129.446  0.00  0.00    +0.000 A 
ATOM      5  O   UNL     1      -8.953   2.595 128.174  0.00  0.00    +0.000 OA
ATOM      6  C   UNL     1      -7.909   2.853 127.319  0.00  0.00    +0.000 A 
ATOM      7  C   UNL     1      -6.776   3.095 128.056  0.00  0.00    +0.000 A 
ATOM      8  C   UNL     1      -7.151   3.034 129.421  0.00  0.00    +0.000 A 
ATOM      9  C   UNL     1      -6.480   3.219 130.638  0.00  0.00    +0.000 A 
ENDROOT
BRANCH   1  11
ATOM     10  O   UNL     1      -6.484   2.344 133.930  0.00  0.00    +0.000 OA
ATOM     11  C   UNL     1      -6.384   3.271 133.127  0.00  0.00    +0.000 C 
ATOM     12  N   UNL     1      -5.436   4.350 133.239  0.00  0.00    +0.000 N 
ATOM     13  C   UNL     1      -5.857   5.750 133.122  0.00  0.00    +0.000 C 
ATOM     14  C   UNL     1      -4.760   6.641 132.476  0.00  0.00    +0.000 C 
ATOM     15  C   UNL     1      -3.245   6.847 133.489  0.00  0.00    +0.000 C 
ATOM     16  C   UNL     1      -3.001   5.086 133.406  0.00  0.00    +0.000 C 
ATOM     17  C   UNL     1      -4.179   4.226 134.013  0.00  0.00    +0.000 C 
BRANCH  15  18
ATOM     18  N   UNL     1      -2.627   8.348 134.456  0.00  0.00    +0.000 N 
ATOM     19  C   UNL     1      -1.939   8.565 133.242  0.00  0.00    +0.000 C 
ATOM     20  O   UNL     1      -1.139   7.802 132.619  0.00  0.00    +0.000 OA
ATOM     21  O   UNL     1      -2.424   9.587 132.574  0.00  0.00    +0.000 OA
ATOM     22  C   UNL     1      -1.457  10.481 132.953  0.00  0.00    +0.000 C 
ATOM     23  C   UNL     1      -2.307  11.102 133.968  0.00  0.00    +0.000 A 
ATOM     24  C   UNL     1      -2.235  12.636 133.767  0.00  0.00    +0.000 A 
ATOM     25  C   UNL     1      -2.063  13.620 134.692  0.00  0.00    +0.000 A 
ATOM     26  C   UNL     1      -1.970  12.995 135.905  0.00  0.00    +0.000 A 
ATOM     27  C   UNL     1      -2.211  11.322 136.099  0.00  0.00    +0.000 A 
ATOM     28  C   UNL     1      -2.558  10.167 134.990  0.00  0.00    +0.000 A 
ENDBRANCH  15  18
ENDBRANCH   1  11
BRANCH   6  29
ATOM     29  C   UNL     1      -8.131   2.861 125.835  0.00  0.00    +0.000 C 
BRANCH  29  30
ATOM     30  N   UNL     1      -8.097   1.557 125.169  0.00  0.00    +0.000 NA
ATOM     31  C   UNL     1      -6.870   1.395 124.378  0.00  0.00    +0.000 C 
ATOM     32  C   UNL     1      -6.853   0.053 123.663  0.00  0.00    +0.000 C 
ATOM     33  C   UNL     1      -7.000  -1.096 124.654  0.00  0.00    +0.000 C 
ATOM     34  C   UNL     1      -8.222  -0.900 125.566  0.00  0.00    +0.000 C 
ATOM     35  C   UNL     1      -8.250   0.497 126.169  0.00  0.00    +0.000 C 
BRANCH  34  36
ATOM     36  N   UNL     1      -8.261  -1.905 126.641  0.00  0.00    +0.000 N 
ATOM     37  C   UNL     1      -7.322  -1.862 127.668  0.00  0.00    +0.000 A 
ATOM     38  C   UNL     1      -7.150  -2.898 128.502  0.00  0.00    +0.000 A 
ATOM     39  C   UNL     1      -8.103  -3.987 128.454  0.00  0.00    +0.000 A 
ATOM     40  C   UNL     1      -9.140  -3.954 127.607  0.00  0.00    +0.000 A 
ATOM     41  C   UNL     1      -9.198  -2.925 126.539  0.00  0.00    +0.000 A 
ATOM     42  O   UNL     1     -10.029  -3.039 125.643  0.00  0.00    +0.000 OA
BRANCH  38  43
ATOM     43  C   UNL     1      -6.017  -2.980 129.479  0.00  0.00    +0.000 C 
ATOM     44  F   UNL     1      -6.169  -2.111 130.508  0.00  0.00    +0.000 F 
ATOM     45  F   UNL     1      -5.926  -4.222 130.020  0.00  0.00    +0.000 F 
ATOM     46  F   UNL     1      -4.812  -2.714 128.910  0.00  0.00    +0.000 F 
ENDBRANCH  38  43
ENDBRANCH  34  36
ENDBRANCH  29  30
ENDBRANCH   6  29
TORSDOF 6
ENDMDL
