MODEL 1
REMARK VINA RESULT:     -11.8      0.000      0.000
REMARK  Name = CHEMBL4458988
REMARK  26 active torsions:
REMARK  status: ('A' for Active; 'I' for Inactive)
REMARK    1  A    between atoms: C_1  and  C_2
REMARK    2  A    between atoms: C_2  and  C_3
REMARK    3  A    between atoms: C_3  and  C_4
REMARK    4  A    between atoms: C_3  and  C_5
REMARK    5  A    between atoms: C_9  and  C_10
REMARK    6  A    between atoms: C_10  and  C_11
REMARK    7  A    between atoms: C_14  and  O_15
REMARK    8  A    between atoms: C_21  and  N_22
REMARK    9  A    between atoms: C_27  and  C_28
REMARK   10  A    between atoms: N_30  and  C_31
REMARK   11  A    between atoms: N_30  and  C_47
REMARK   12  A    between atoms: C_31  and  C_32
REMARK   13  A    between atoms: N_34  and  C_35
REMARK   14  A    between atoms: C_35  and  C_36
REMARK   15  A    between atoms: C_35  and  C_40
REMARK   16  A    between atoms: C_36  and  C_37
REMARK   17  A    between atoms: C_37  and  C_38
REMARK   18  A    between atoms: C_37  and  C_39
REMARK   19  A    between atoms: N_42  and  C_43
REMARK   20  A    between atoms: C_43  and  C_44
REMARK   21  A    between atoms: C_47  and  C_48
REMARK   22  A    between atoms: C_58  and  C_59
REMARK   23  A    between atoms: C_59  and  C_60
REMARK   24  A    between atoms: C_66  and  C_67
REMARK   25  A    between atoms: C_67  and  C_68
REMARK   26  A    between atoms: C_68  and  C_69
REMARK                            x       y       z     vdW  Elec       q    Type
REMARK                         _______ _______ _______ _____ _____    ______ ____
ROOT
ATOM      1  C   UNL     1      -5.189   3.461 134.423  0.00  0.00    +0.000 C 
ATOM      2  N   UNL     1      -4.852   1.815 135.752  0.00  0.00    +0.000 N 
ATOM      3  C   UNL     1      -4.780   0.200 137.060  0.00  0.00    +0.000 C 
ATOM      4  O   UNL     1      -5.638  -0.612 137.968  0.00  0.00    +0.000 OA
ATOM      5  C   UNL     1      -3.943  -1.727 136.915  0.00  0.00    +0.000 C 
ATOM      6  N   UNL     1      -4.252  -3.035 135.898  0.00  0.00    +0.000 N 
ATOM      7  C   UNL     1      -5.324  -3.031 135.086  0.00  0.00    +0.000 C 
ATOM      8  O   UNL     1      -5.560  -3.793 134.161  0.00  0.00    +0.000 OA
ATOM      9  C   UNL     1      -6.228  -1.931 135.184  0.00  0.00    +0.000 C 
ATOM     10  C   UNL     1      -5.717  -0.842 134.445  0.00  0.00    +0.000 C 
ATOM     11  C   UNL     1      -6.734  -1.341 133.138  0.00  0.00    +0.000 C 
ATOM     12  S   UNL     1      -7.410   0.228 131.243  0.00  0.00    +0.000 S 
ATOM     13  C   UNL     1      -7.786  -0.652 129.673  0.00  0.00    +0.000 C 
ATOM     14  C   UNL     1      -7.431   0.075 128.502  0.00  0.00    +0.000 C 
ATOM     15  N   UNL     1      -8.021   1.269 128.773  0.00  0.00    +0.000 N 
ATOM     16  C   UNL     1      -7.638   2.013 129.805  0.00  0.00    +0.000 C 
ATOM     17  O   UNL     1      -8.567   2.741 130.213  0.00  0.00    +0.000 OA
ATOM     18  C   UNL     1      -5.953   1.686 130.746  0.00  0.00    +0.000 C 
ATOM     19  N   UNL     1      -4.799   2.391 130.907  0.00  0.00    +0.000 N 
ATOM     20  C   UNL     1      -4.940   3.379 131.891  0.00  0.00    +0.000 C 
ATOM     21  O   UNL     1      -3.641   3.889 131.553  0.00  0.00    +0.000 OA
ATOM     22  C   UNL     1      -6.843   4.494 132.317  0.00  0.00    +0.000 C 
ATOM     23  N   UNL     1      -7.192   4.929 133.615  0.00  0.00    +0.000 N 
ATOM     24  C   UNL     1      -6.131   5.039 134.444  0.00  0.00    +0.000 C 
ATOM     25  O   UNL     1      -5.843   6.199 134.755  0.00  0.00    +0.000 OA
ATOM     26  H   UNL     1      -5.231   1.346 136.975  0.00  0.00    +0.000 HD
ATOM     27  H   UNL     1      -3.721  -3.948 135.761  0.00  0.00    +0.000 HD
ATOM     28  H   UNL     1      -8.938   1.357 128.430  0.00  0.00    +0.000 HD
ATOM     29  H   UNL     1      -3.940   2.171 130.440  0.00  0.00    +0.000 HD
ATOM     30  H   UNL     1      -7.562   4.136 134.033  0.00  0.00    +0.000 HD
ENDROOT
BRANCH   9  31
ATOM     31  N   UNL     1      -6.010  -0.976 136.044  0.00  0.00    +0.000 NA
ATOM     32  H   UNL     1      -5.995  -0.175 135.418  0.00  0.00    +0.000 HD
ATOM     33  H   UNL     1      -5.044  -1.110 136.236  0.00  0.00    +0.000 HD
ENDBRANCH   9  31
BRANCH  14  34
ATOM     34  C   UNL     1      -7.928  -0.877 127.406  0.00  0.00    +0.000 C 
ATOM     35  O   UNL     1      -7.389  -1.978 127.466  0.00  0.00    +0.000 OA
ATOM     36  N   UNL     1      -8.855  -0.492 126.363  0.00  0.00    +0.000 N 
BRANCH  36  37
ATOM     37  C   UNL     1      -9.395   0.941 126.070  0.00  0.00    +0.000 C 
BRANCH  37  38
ATOM     38  C   UNL     1      -8.520   1.938 125.355  0.00  0.00    +0.000 C 
ATOM     39  O   UNL     1      -9.023   2.934 124.880  0.00  0.00    +0.000 OA
ATOM     40  N   UNL     1      -7.184   2.002 125.445  0.00  0.00    +0.000 N 
ATOM     41  H   UNL     1      -6.629   1.255 125.782  0.00  0.00    +0.000 HD
BRANCH  40  42
ATOM     42  C   UNL     1      -6.476   3.247 125.338  0.00  0.00    +0.000 C 
BRANCH  42  43
ATOM     43  C   UNL     1      -6.141   3.755 123.937  0.00  0.00    +0.000 C 
ATOM     44  O   UNL     1      -5.718   4.902 123.922  0.00  0.00    +0.000 OA
ATOM     45  N   UNL     1      -6.470   3.030 122.762  0.00  0.00    +0.000 N 
ATOM     46  H   UNL     1      -6.972   2.139 122.742  0.00  0.00    +0.000 HD
BRANCH  45  47
ATOM     47  C   UNL     1      -6.123   3.552 121.482  0.00  0.00    +0.000 C 
BRANCH  47  48
ATOM     48  C   UNL     1      -7.324   3.883 120.589  0.00  0.00    +0.000 C 
ATOM     49  N   UNL     1      -8.590   3.795 121.150  0.00  0.00    +0.000 N 
ATOM     50  O   UNL     1      -7.171   4.261 119.432  0.00  0.00    +0.000 OA
ATOM     51  H   UNL     1      -8.811   3.729 122.135  0.00  0.00    +0.000 HD
ATOM     52  H   UNL     1      -9.362   4.168 120.600  0.00  0.00    +0.000 HD
ENDBRANCH  47  48
ENDBRANCH  45  47
ENDBRANCH  42  43
BRANCH  42  53
ATOM     53  C   UNL     1      -5.085   2.865 125.577  0.00  0.00    +0.000 C 
BRANCH  53  54
ATOM     54  C   UNL     1      -4.333   3.451 127.060  0.00  0.00    +0.000 C 
ATOM     55  C   UNL     1      -2.916   3.303 127.199  0.00  0.00    +0.000 C 
ATOM     56  C   UNL     1      -4.258   5.221 128.246  0.00  0.00    +0.000 C 
ENDBRANCH  53  54
ENDBRANCH  42  53
ENDBRANCH  40  42
ENDBRANCH  37  38
ENDBRANCH  36  37
BRANCH  36  57
ATOM     57  C   UNL     1      -9.197  -1.548 125.385  0.00  0.00    +0.000 C 
BRANCH  57  58
ATOM     58  C   UNL     1      -7.998  -2.088 124.644  0.00  0.00    +0.000 A 
ATOM     59  C   UNL     1      -7.556  -3.392 124.691  0.00  0.00    +0.000 A 
ATOM     60  C   UNL     1      -6.355  -3.747 124.071  0.00  0.00    +0.000 A 
ATOM     61  C   UNL     1      -5.591  -2.795 123.419  0.00  0.00    +0.000 A 
ATOM     62  F   UNL     1      -4.448  -3.130 122.826  0.00  0.00    +0.000 F 
ATOM     63  C   UNL     1      -6.014  -1.508 123.334  0.00  0.00    +0.000 A 
ATOM     64  C   UNL     1      -7.256  -1.237 123.837  0.00  0.00    +0.000 A 
ENDBRANCH  57  58
ENDBRANCH  36  57
ENDBRANCH  14  34
BRANCH   1  65
ATOM     65  C   UNL     1      -5.034   5.094 132.741  0.00  0.00    +0.000 C 
ATOM     66  C   UNL     1      -4.749   6.847 131.544  0.00  0.00    +0.000 C 
BRANCH  65  68
ATOM     67  C   UNL     1      -3.957   7.418 131.405  0.00  0.00    +0.000 C 
ATOM     68  C   UNL     1      -3.735   6.528 132.646  0.00  0.00    +0.000 C 
ENDBRANCH  65  68
ENDBRANCH   1  65
BRANCH  18  69
ATOM     69  C   UNL     1      -6.701   1.759 132.620  0.00  0.00    +0.000 C 
BRANCH  69  70
ATOM     70  C   UNL     1      -7.988   1.570 132.604  0.00  0.00    +0.000 C 
ATOM     71  N   UNL     1      -8.658   2.873 132.865  0.00  0.00    +0.000 N 
ATOM     72  O   UNL     1      -8.228   0.302 132.595  0.00  0.00    +0.000 OA
ATOM     73  H   UNL     1      -8.295   3.596 133.527  0.00  0.00    +0.000 HD
ATOM     74  H   UNL     1      -9.728   2.589 133.257  0.00  0.00    +0.000 HD
ENDBRANCH  69  70
ENDBRANCH  18  69
BRANCH   5  75
ATOM     75  C   UNL     1      -3.002  -0.875 136.356  0.00  0.00    +0.000 C 
BRANCH  75  76
ATOM     76  C   UNL     1      -1.891  -1.836 136.129  0.00  0.00    +0.000 A 
ATOM     77  C   UNL     1      -1.262  -2.589 137.152  0.00  0.00    +0.000 A 
ATOM     78  C   UNL     1      -0.184  -3.382 136.847  0.00  0.00    +0.000 A 
ATOM     79  C   UNL     1       0.296  -3.359 135.553  0.00  0.00    +0.000 A 
ATOM     80  C   UNL     1      -0.203  -2.473 134.616  0.00  0.00    +0.000 A 
ATOM     81  C   UNL     1      -1.254  -1.673 134.921  0.00  0.00    +0.000 A 
BRANCH  79  82
ATOM     82  O   UNL     1       1.277  -4.179 135.102  0.00  0.00    +0.000 OA
ATOM     83  H   UNL     1       1.514  -4.860 135.749  0.00  0.00    +0.000 HD
ENDBRANCH  79  82
ENDBRANCH  75  76
ENDBRANCH   5  75
BRANCH  22  84
ATOM     84  C   UNL     1      -7.727   5.474 130.992  0.00  0.00    +0.000 C 
BRANCH  84  85
ATOM     85  C   UNL     1      -8.531   6.353 131.819  0.00  0.00    +0.000 C 
BRANCH  85  86
ATOM     86  C   UNL     1      -9.953   6.103 131.566  0.00  0.00    +0.000 C 
ATOM     87  N   UNL     1     -10.299   5.249 130.548  0.00  0.00    +0.000 N 
ATOM     88  O   UNL     1     -10.775   6.674 132.270  0.00  0.00    +0.000 OA
ATOM     89  H   UNL     1      -9.653   4.757 129.940  0.00  0.00    +0.000 HD
ATOM     90  H   UNL     1     -11.270   5.053 130.376  0.00  0.00    +0.000 HD
ENDBRANCH  85  86
ENDBRANCH  84  85
ENDBRANCH  22  84
TORSDOF 22
ENDMDL
MODEL 2
REMARK VINA RESULT:     -11.8      1.427      2.844
REMARK  Name = CHEMBL4458988
REMARK  26 active torsions:
REMARK  status: ('A' for Active; 'I' for Inactive)
REMARK    1  A    between atoms: C_1  and  C_2
REMARK    2  A    between atoms: C_2  and  C_3
REMARK    3  A    between atoms: C_3  and  C_4
REMARK    4  A    between atoms: C_3  and  C_5
REMARK    5  A    between atoms: C_9  and  C_10
REMARK    6  A    between atoms: C_10  and  C_11
REMARK    7  A    between atoms: C_14  and  O_15
REMARK    8  A    between atoms: C_21  and  N_22
REMARK    9  A    between atoms: C_27  and  C_28
REMARK   10  A    between atoms: N_30  and  C_31
REMARK   11  A    between atoms: N_30  and  C_47
REMARK   12  A    between atoms: C_31  and  C_32
REMARK   13  A    between atoms: N_34  and  C_35
REMARK   14  A    between atoms: C_35  and  C_36
REMARK   15  A    between atoms: C_35  and  C_40
REMARK   16  A    between atoms: C_36  and  C_37
REMARK   17  A    between atoms: C_37  and  C_38
REMARK   18  A    between atoms: C_37  and  C_39
REMARK   19  A    between atoms: N_42  and  C_43
REMARK   20  A    between atoms: C_43  and  C_44
REMARK   21  A    between atoms: C_47  and  C_48
REMARK   22  A    between atoms: C_58  and  C_59
REMARK   23  A    between atoms: C_59  and  C_60
REMARK   24  A    between atoms: C_66  and  C_67
REMARK   25  A    between atoms: C_67  and  C_68
REMARK   26  A    between atoms: C_68  and  C_69
REMARK                            x       y       z     vdW  Elec       q    Type
REMARK                         _______ _______ _______ _____ _____    ______ ____
ROOT
ATOM      1  C   UNL     1      -5.605   3.090 134.558  0.00  0.00    +0.000 C 
ATOM      2  N   UNL     1      -5.241   1.402 135.825  0.00  0.00    +0.000 N 
ATOM      3  C   UNL     1      -5.142  -0.263 137.066  0.00  0.00    +0.000 C 
ATOM      4  O   UNL     1      -5.989  -1.137 137.926  0.00  0.00    +0.000 OA
ATOM      5  C   UNL     1      -4.246  -2.158 136.858  0.00  0.00    +0.000 C 
ATOM      6  N   UNL     1      -4.498  -3.430 135.784  0.00  0.00    +0.000 N 
ATOM      7  C   UNL     1      -5.557  -3.424 134.954  0.00  0.00    +0.000 C 
ATOM      8  O   UNL     1      -5.755  -4.154 133.994  0.00  0.00    +0.000 OA
ATOM      9  C   UNL     1      -6.495  -2.356 135.081  0.00  0.00    +0.000 C 
ATOM     10  C   UNL     1      -6.004  -1.223 134.396  0.00  0.00    +0.000 C 
ATOM     11  C   UNL     1      -6.985  -1.698 133.052  0.00  0.00    +0.000 C 
ATOM     12  S   UNL     1      -7.677  -0.072 131.210  0.00  0.00    +0.000 S 
ATOM     13  C   UNL     1      -8.001  -0.898 129.600  0.00  0.00    +0.000 C 
ATOM     14  C   UNL     1      -7.648  -0.113 128.465  0.00  0.00    +0.000 C 
ATOM     15  N   UNL     1      -8.278   1.052 128.775  0.00  0.00    +0.000 N 
ATOM     16  C   UNL     1      -7.935   1.763 129.843  0.00  0.00    +0.000 C 
ATOM     17  O   UNL     1      -8.892   2.447 130.264  0.00  0.00    +0.000 OA
ATOM     18  C   UNL     1      -6.256   1.447 130.799  0.00  0.00    +0.000 C 
ATOM     19  N   UNL     1      -5.127   2.178 131.009  0.00  0.00    +0.000 N 
ATOM     20  C   UNL     1      -5.313   3.120 132.029  0.00  0.00    +0.000 C 
ATOM     21  O   UNL     1      -4.025   3.681 131.735  0.00  0.00    +0.000 OA
ATOM     22  C   UNL     1      -7.255   4.161 132.468  0.00  0.00    +0.000 C 
ATOM     23  N   UNL     1      -7.638   4.531 133.775  0.00  0.00    +0.000 N 
ATOM     24  C   UNL     1      -6.594   4.638 134.627  0.00  0.00    +0.000 C 
ATOM     25  O   UNL     1      -6.346   5.792 134.990  0.00  0.00    +0.000 OA
ATOM     26  H   UNL     1      -5.625   0.871 137.021  0.00  0.00    +0.000 HD
ATOM     27  H   UNL     1      -3.939  -4.321 135.619  0.00  0.00    +0.000 HD
ATOM     28  H   UNL     1      -9.192   1.127 128.420  0.00  0.00    +0.000 HD
ATOM     29  H   UNL     1      -4.254   2.003 130.549  0.00  0.00    +0.000 HD
ATOM     30  H   UNL     1      -7.990   3.712 134.155  0.00  0.00    +0.000 HD
ENDROOT
BRANCH   9  31
ATOM     31  N   UNL     1      -6.320  -1.432 135.982  0.00  0.00    +0.000 NA
ATOM     32  H   UNL     1      -5.540  -1.832 136.497  0.00  0.00    +0.000 HD
ATOM     33  H   UNL     1      -7.086  -1.610 136.589  0.00  0.00    +0.000 HD
ENDBRANCH   9  31
BRANCH  14  34
ATOM     34  C   UNL     1      -8.099  -1.033 127.324  0.00  0.00    +0.000 C 
ATOM     35  O   UNL     1      -8.087  -2.217 127.647  0.00  0.00    +0.000 OA
ATOM     36  N   UNL     1      -8.410  -0.568 125.988  0.00  0.00    +0.000 N 
BRANCH  36  37
ATOM     37  C   UNL     1      -8.216   0.874 125.428  0.00  0.00    +0.000 C 
BRANCH  37  38
ATOM     38  C   UNL     1      -6.892   1.572 125.601  0.00  0.00    +0.000 C 
ATOM     39  O   UNL     1      -5.876   1.010 125.253  0.00  0.00    +0.000 OA
ATOM     40  N   UNL     1      -6.731   2.884 125.824  0.00  0.00    +0.000 N 
ATOM     41  H   UNL     1      -7.460   3.472 126.144  0.00  0.00    +0.000 HD
BRANCH  40  42
ATOM     42  C   UNL     1      -5.581   3.598 125.343  0.00  0.00    +0.000 C 
BRANCH  42  43
ATOM     43  C   UNL     1      -5.146   4.845 126.113  0.00  0.00    +0.000 C 
ATOM     44  O   UNL     1      -5.695   5.869 125.732  0.00  0.00    +0.000 OA
ATOM     45  N   UNL     1      -4.074   4.834 127.041  0.00  0.00    +0.000 N 
ATOM     46  H   UNL     1      -3.491   4.022 127.257  0.00  0.00    +0.000 HD
BRANCH  45  47
ATOM     47  C   UNL     1      -3.721   6.028 127.736  0.00  0.00    +0.000 C 
BRANCH  47  48
ATOM     48  C   UNL     1      -2.599   5.850 128.765  0.00  0.00    +0.000 C 
ATOM     49  N   UNL     1      -2.610   4.701 129.542  0.00  0.00    +0.000 N 
ATOM     50  O   UNL     1      -1.692   6.670 128.864  0.00  0.00    +0.000 OA
ATOM     51  H   UNL     1      -3.159   3.866 129.379  0.00  0.00    +0.000 HD
ATOM     52  H   UNL     1      -1.780   4.519 130.103  0.00  0.00    +0.000 HD
ENDBRANCH  47  48
ENDBRANCH  45  47
ENDBRANCH  42  43
BRANCH  42  53
ATOM     53  C   UNL     1      -6.119   4.408 124.252  0.00  0.00    +0.000 C 
BRANCH  53  54
ATOM     54  C   UNL     1      -5.862   3.820 122.611  0.00  0.00    +0.000 C 
ATOM     55  C   UNL     1      -6.914   3.071 121.992  0.00  0.00    +0.000 C 
ATOM     56  C   UNL     1      -5.276   4.560 120.699  0.00  0.00    +0.000 C 
ENDBRANCH  53  54
ENDBRANCH  42  53
ENDBRANCH  40  42
ENDBRANCH  37  38
ENDBRANCH  36  37
BRANCH  36  57
ATOM     57  C   UNL     1      -8.805  -1.615 125.020  0.00  0.00    +0.000 C 
BRANCH  57  58
ATOM     58  C   UNL     1      -7.633  -2.367 124.438  0.00  0.00    +0.000 A 
ATOM     59  C   UNL     1      -7.272  -3.654 124.770  0.00  0.00    +0.000 A 
ATOM     60  C   UNL     1      -6.087  -4.199 124.268  0.00  0.00    +0.000 A 
ATOM     61  C   UNL     1      -5.259  -3.453 123.449  0.00  0.00    +0.000 A 
ATOM     62  F   UNL     1      -4.132  -3.970 122.968  0.00  0.00    +0.000 F 
ATOM     63  C   UNL     1      -5.603  -2.191 123.084  0.00  0.00    +0.000 A 
ATOM     64  C   UNL     1      -6.831  -1.749 123.489  0.00  0.00    +0.000 A 
ENDBRANCH  57  58
ENDBRANCH  36  57
ENDBRANCH  14  34
BRANCH   1  65
ATOM     65  C   UNL     1      -5.472   4.795 132.947  0.00  0.00    +0.000 C 
ATOM     66  C   UNL     1      -5.203   6.599 131.824  0.00  0.00    +0.000 C 
BRANCH  65  68
ATOM     67  C   UNL     1      -4.367   7.133 131.660  0.00  0.00    +0.000 C 
ATOM     68  C   UNL     1      -4.176   6.234 132.900  0.00  0.00    +0.000 C 
ENDBRANCH  65  68
ENDBRANCH   1  65
BRANCH  18  69
ATOM     69  C   UNL     1      -7.036   1.421 132.661  0.00  0.00    +0.000 C 
BRANCH  69  70
ATOM     70  C   UNL     1      -8.321   1.219 132.614  0.00  0.00    +0.000 C 
ATOM     71  N   UNL     1      -9.010   2.493 132.957  0.00  0.00    +0.000 N 
ATOM     72  O   UNL     1      -8.545  -0.048 132.512  0.00  0.00    +0.000 OA
ATOM     73  H   UNL     1      -8.665   3.171 133.673  0.00  0.00    +0.000 HD
ATOM     74  H   UNL     1     -10.082   2.169 133.313  0.00  0.00    +0.000 HD
ENDBRANCH  69  70
ENDBRANCH  18  69
BRANCH   5  75
ATOM     75  C   UNL     1      -3.321  -1.256 136.350  0.00  0.00    +0.000 C 
BRANCH  75  76
ATOM     76  C   UNL     1      -2.061  -1.898 136.808  0.00  0.00    +0.000 A 
ATOM     77  C   UNL     1      -1.697  -2.068 138.166  0.00  0.00    +0.000 A 
ATOM     78  C   UNL     1      -0.468  -2.594 138.480  0.00  0.00    +0.000 A 
ATOM     79  C   UNL     1       0.404  -2.872 137.447  0.00  0.00    +0.000 A 
ATOM     80  C   UNL     1       0.111  -2.518 136.142  0.00  0.00    +0.000 A 
ATOM     81  C   UNL     1      -1.095  -1.979 135.833  0.00  0.00    +0.000 A 
BRANCH  79  82
ATOM     82  O   UNL     1       1.596  -3.497 137.617  0.00  0.00    +0.000 OA
ATOM     83  H   UNL     1       1.511  -4.462 137.596  0.00  0.00    +0.000 HD
ENDBRANCH  79  82
ENDBRANCH  75  76
ENDBRANCH   5  75
BRANCH  22  84
ATOM     84  C   UNL     1      -8.146   5.168 131.168  0.00  0.00    +0.000 C 
BRANCH  84  85
ATOM     85  C   UNL     1      -8.865   6.099 132.016  0.00  0.00    +0.000 C 
BRANCH  85  86
ATOM     86  C   UNL     1     -10.308   5.900 131.855  0.00  0.00    +0.000 C 
ATOM     87  N   UNL     1     -10.745   4.811 131.142  0.00  0.00    +0.000 N 
ATOM     88  O   UNL     1     -11.065   6.720 132.357  0.00  0.00    +0.000 OA
ATOM     89  H   UNL     1     -10.155   4.109 130.708  0.00  0.00    +0.000 HD
ATOM     90  H   UNL     1     -11.732   4.652 131.040  0.00  0.00    +0.000 HD
ENDBRANCH  85  86
ENDBRANCH  84  85
ENDBRANCH  22  84
TORSDOF 22
ENDMDL
MODEL 3
REMARK VINA RESULT:     -11.3      2.395      4.376
REMARK  Name = CHEMBL4458988
REMARK  26 active torsions:
REMARK  status: ('A' for Active; 'I' for Inactive)
REMARK    1  A    between atoms: C_1  and  C_2
REMARK    2  A    between atoms: C_2  and  C_3
REMARK    3  A    between atoms: C_3  and  C_4
REMARK    4  A    between atoms: C_3  and  C_5
REMARK    5  A    between atoms: C_9  and  C_10
REMARK    6  A    between atoms: C_10  and  C_11
REMARK    7  A    between atoms: C_14  and  O_15
REMARK    8  A    between atoms: C_21  and  N_22
REMARK    9  A    between atoms: C_27  and  C_28
REMARK   10  A    between atoms: N_30  and  C_31
REMARK   11  A    between atoms: N_30  and  C_47
REMARK   12  A    between atoms: C_31  and  C_32
REMARK   13  A    between atoms: N_34  and  C_35
REMARK   14  A    between atoms: C_35  and  C_36
REMARK   15  A    between atoms: C_35  and  C_40
REMARK   16  A    between atoms: C_36  and  C_37
REMARK   17  A    between atoms: C_37  and  C_38
REMARK   18  A    between atoms: C_37  and  C_39
REMARK   19  A    between atoms: N_42  and  C_43
REMARK   20  A    between atoms: C_43  and  C_44
REMARK   21  A    between atoms: C_47  and  C_48
REMARK   22  A    between atoms: C_58  and  C_59
REMARK   23  A    between atoms: C_59  and  C_60
REMARK   24  A    between atoms: C_66  and  C_67
REMARK   25  A    between atoms: C_67  and  C_68
REMARK   26  A    between atoms: C_68  and  C_69
REMARK                            x       y       z     vdW  Elec       q    Type
REMARK                         _______ _______ _______ _____ _____    ______ ____
ROOT
ATOM      1  C   UNL     1      -5.781   2.138 133.726  0.00  0.00    +0.000 C 
ATOM      2  N   UNL     1      -5.681   0.024 134.057  0.00  0.00    +0.000 N 
ATOM      3  C   UNL     1      -5.840  -2.022 134.389  0.00  0.00    +0.000 C 
ATOM      4  O   UNL     1      -6.818  -3.073 134.785  0.00  0.00    +0.000 OA
ATOM      5  C   UNL     1      -5.205  -3.706 133.295  0.00  0.00    +0.000 C 
ATOM      6  N   UNL     1      -5.602  -4.294 131.768  0.00  0.00    +0.000 N 
ATOM      7  C   UNL     1      -6.631  -3.766 131.078  0.00  0.00    +0.000 C 
ATOM      8  O   UNL     1      -6.902  -3.938 129.900  0.00  0.00    +0.000 OA
ATOM      9  C   UNL     1      -7.416  -2.764 131.722  0.00  0.00    +0.000 C 
ATOM     10  C   UNL     1      -6.760  -1.519 131.615  0.00  0.00    +0.000 C 
ATOM     11  C   UNL     1      -7.763  -1.186 130.245  0.00  0.00    +0.000 C 
ATOM     12  S   UNL     1      -8.183   1.181 129.389  0.00  0.00    +0.000 S 
ATOM     13  C   UNL     1      -8.577   1.242 127.594  0.00  0.00    +0.000 C 
ATOM     14  C   UNL     1      -8.094   2.407 126.934  0.00  0.00    +0.000 C 
ATOM     15  N   UNL     1      -8.566   3.370 127.771  0.00  0.00    +0.000 N 
ATOM     16  C   UNL     1      -8.155   3.456 129.031  0.00  0.00    +0.000 C 
ATOM     17  O   UNL     1      -9.020   3.988 129.758  0.00  0.00    +0.000 OA
ATOM     18  C   UNL     1      -6.558   2.517 129.663  0.00  0.00    +0.000 C 
ATOM     19  N   UNL     1      -5.345   2.912 130.138  0.00  0.00    +0.000 N 
ATOM     20  C   UNL     1      -5.426   3.292 131.485  0.00  0.00    +0.000 C 
ATOM     21  O   UNL     1      -4.067   3.750 131.428  0.00  0.00    +0.000 OA
ATOM     22  C   UNL     1      -7.218   4.259 132.433  0.00  0.00    +0.000 C 
ATOM     23  N   UNL     1      -7.579   4.032 133.780  0.00  0.00    +0.000 N 
ATOM     24  C   UNL     1      -6.551   3.596 134.540  0.00  0.00    +0.000 C 
ATOM     25  O   UNL     1      -6.157   4.408 135.383  0.00  0.00    +0.000 OA
ATOM     26  H   UNL     1      -6.162  -0.942 134.891  0.00  0.00    +0.000 HD
ATOM     27  H   UNL     1      -5.166  -5.074 131.188  0.00  0.00    +0.000 HD
ATOM     28  H   UNL     1      -9.452   3.720 127.528  0.00  0.00    +0.000 HD
ATOM     29  H   UNL     1      -4.494   2.855 129.613  0.00  0.00    +0.000 HD
ATOM     30  H   UNL     1      -8.049   3.184 133.754  0.00  0.00    +0.000 HD
ENDROOT
BRANCH   9  31
ATOM     31  N   UNL     1      -7.139  -2.392 132.939  0.00  0.00    +0.000 NA
ATOM     32  H   UNL     1      -6.130  -2.289 132.867  0.00  0.00    +0.000 HD
ATOM     33  H   UNL     1      -7.227  -3.253 133.426  0.00  0.00    +0.000 HD
ENDBRANCH   9  31
BRANCH  14  34
ATOM     34  C   UNL     1      -8.638   2.186 125.517  0.00  0.00    +0.000 C 
ATOM     35  O   UNL     1      -9.257   1.131 125.416  0.00  0.00    +0.000 OA
ATOM     36  N   UNL     1      -8.371   3.072 124.403  0.00  0.00    +0.000 N 
BRANCH  36  37
ATOM     37  C   UNL     1      -7.402   4.292 124.387  0.00  0.00    +0.000 C 
BRANCH  37  38
ATOM     38  C   UNL     1      -6.279   4.369 125.390  0.00  0.00    +0.000 C 
ATOM     39  O   UNL     1      -6.398   5.089 126.358  0.00  0.00    +0.000 OA
ATOM     40  N   UNL     1      -5.271   3.492 125.493  0.00  0.00    +0.000 N 
ATOM     41  H   UNL     1      -5.027   2.860 124.771  0.00  0.00    +0.000 HD
BRANCH  40  42
ATOM     42  C   UNL     1      -4.651   3.196 126.754  0.00  0.00    +0.000 C 
BRANCH  42  43
ATOM     43  C   UNL     1      -3.427   4.019 127.155  0.00  0.00    +0.000 C 
ATOM     44  O   UNL     1      -2.366   3.451 126.943  0.00  0.00    +0.000 OA
ATOM     45  N   UNL     1      -3.529   5.237 127.876  0.00  0.00    +0.000 N 
ATOM     46  H   UNL     1      -4.402   5.653 128.209  0.00  0.00    +0.000 HD
BRANCH  45  47
ATOM     47  C   UNL     1      -2.351   5.966 128.213  0.00  0.00    +0.000 C 
BRANCH  47  48
ATOM     48  C   UNL     1      -2.433   6.713 129.548  0.00  0.00    +0.000 C 
ATOM     49  N   UNL     1      -3.435   7.661 129.699  0.00  0.00    +0.000 N 
ATOM     50  O   UNL     1      -1.671   6.448 130.473  0.00  0.00    +0.000 OA
ATOM     51  H   UNL     1      -4.246   7.783 129.105  0.00  0.00    +0.000 HD
ATOM     52  H   UNL     1      -3.578   8.032 130.636  0.00  0.00    +0.000 HD
ENDBRANCH  47  48
ENDBRANCH  45  47
ENDBRANCH  42  43
BRANCH  42  53
ATOM     53  C   UNL     1      -3.821   2.030 126.456  0.00  0.00    +0.000 C 
BRANCH  53  54
ATOM     54  C   UNL     1      -4.647   0.488 126.242  0.00  0.00    +0.000 C 
ATOM     55  C   UNL     1      -5.259  -0.112 127.388  0.00  0.00    +0.000 C 
ATOM     56  C   UNL     1      -6.138  -0.390 124.996  0.00  0.00    +0.000 C 
ENDBRANCH  53  54
ENDBRANCH  42  53
ENDBRANCH  40  42
ENDBRANCH  37  38
ENDBRANCH  36  37
BRANCH  36  57
ATOM     57  C   UNL     1      -8.969   2.674 123.109  0.00  0.00    +0.000 C 
BRANCH  57  58
ATOM     58  C   UNL     1      -8.169   3.132 121.914  0.00  0.00    +0.000 A 
ATOM     59  C   UNL     1      -6.794   3.138 121.835  0.00  0.00    +0.000 A 
ATOM     60  C   UNL     1      -6.160   3.713 120.729  0.00  0.00    +0.000 A 
ATOM     61  C   UNL     1      -6.901   4.292 119.714  0.00  0.00    +0.000 A 
ATOM     62  F   UNL     1      -6.300   4.838 118.660  0.00  0.00    +0.000 F 
ATOM     63  C   UNL     1      -8.258   4.277 119.754  0.00  0.00    +0.000 A 
ATOM     64  C   UNL     1      -8.834   3.588 120.784  0.00  0.00    +0.000 A 
ENDBRANCH  57  58
ENDBRANCH  36  57
ENDBRANCH  14  34
BRANCH   1  65
ATOM     65  C   UNL     1      -5.377   4.359 133.076  0.00  0.00    +0.000 C 
ATOM     66  C   UNL     1      -4.841   6.426 132.899  0.00  0.00    +0.000 C 
BRANCH  65  68
ATOM     67  C   UNL     1      -4.000   6.899 133.058  0.00  0.00    +0.000 C 
ATOM     68  C   UNL     1      -3.901   5.475 133.647  0.00  0.00    +0.000 C 
ENDBRANCH  65  68
ENDBRANCH   1  65
BRANCH  18  69
ATOM     69  C   UNL     1      -7.380   1.737 131.336  0.00  0.00    +0.000 C 
BRANCH  69  70
ATOM     70  C   UNL     1      -8.675   1.682 131.224  0.00  0.00    +0.000 C 
ATOM     71  N   UNL     1      -9.258   2.858 131.925  0.00  0.00    +0.000 N 
ATOM     72  O   UNL     1      -9.009   0.529 130.749  0.00  0.00    +0.000 OA
ATOM     73  H   UNL     1      -8.878   3.259 132.812  0.00  0.00    +0.000 HD
ATOM     74  H   UNL     1     -10.366   2.548 132.164  0.00  0.00    +0.000 HD
ENDBRANCH  69  70
ENDBRANCH  18  69
BRANCH   5  75
ATOM     75  C   UNL     1      -4.154  -2.803 133.221  0.00  0.00    +0.000 C 
BRANCH  75  76
ATOM     76  C   UNL     1      -3.077  -3.614 133.847  0.00  0.00    +0.000 A 
ATOM     77  C   UNL     1      -3.169  -5.003 134.108  0.00  0.00    +0.000 A 
ATOM     78  C   UNL     1      -2.150  -5.639 134.773  0.00  0.00    +0.000 A 
ATOM     79  C   UNL     1      -1.095  -4.875 135.231  0.00  0.00    +0.000 A 
ATOM     80  C   UNL     1      -1.114  -3.495 135.143  0.00  0.00    +0.000 A 
ATOM     81  C   UNL     1      -2.130  -2.863 134.505  0.00  0.00    +0.000 A 
BRANCH  79  82
ATOM     82  O   UNL     1       0.021  -5.398 135.798  0.00  0.00    +0.000 OA
ATOM     83  H   UNL     1       0.424  -6.087 135.248  0.00  0.00    +0.000 HD
ENDBRANCH  79  82
ENDBRANCH  75  76
ENDBRANCH   5  75
BRANCH  22  84
ATOM     84  C   UNL     1      -7.933   5.861 131.781  0.00  0.00    +0.000 C 
BRANCH  84  85
ATOM     85  C   UNL     1      -9.054   6.026 132.686  0.00  0.00    +0.000 C 
BRANCH  85  86
ATOM     86  C   UNL     1     -10.243   6.427 131.929  0.00  0.00    +0.000 C 
ATOM     87  N   UNL     1     -10.124   6.627 130.576  0.00  0.00    +0.000 N 
ATOM     88  O   UNL     1     -11.294   6.574 132.539  0.00  0.00    +0.000 OA
ATOM     89  H   UNL     1      -9.275   6.518 130.032  0.00  0.00    +0.000 HD
ATOM     90  H   UNL     1     -10.936   6.883 130.042  0.00  0.00    +0.000 HD
ENDBRANCH  85  86
ENDBRANCH  84  85
ENDBRANCH  22  84
TORSDOF 22
ENDMDL
MODEL 4
REMARK VINA RESULT:     -11.3      1.831      3.197
REMARK  Name = CHEMBL4458988
REMARK  26 active torsions:
REMARK  status: ('A' for Active; 'I' for Inactive)
REMARK    1  A    between atoms: C_1  and  C_2
REMARK    2  A    between atoms: C_2  and  C_3
REMARK    3  A    between atoms: C_3  and  C_4
REMARK    4  A    between atoms: C_3  and  C_5
REMARK    5  A    between atoms: C_9  and  C_10
REMARK    6  A    between atoms: C_10  and  C_11
REMARK    7  A    between atoms: C_14  and  O_15
REMARK    8  A    between atoms: C_21  and  N_22
REMARK    9  A    between atoms: C_27  and  C_28
REMARK   10  A    between atoms: N_30  and  C_31
REMARK   11  A    between atoms: N_30  and  C_47
REMARK   12  A    between atoms: C_31  and  C_32
REMARK   13  A    between atoms: N_34  and  C_35
REMARK   14  A    between atoms: C_35  and  C_36
REMARK   15  A    between atoms: C_35  and  C_40
REMARK   16  A    between atoms: C_36  and  C_37
REMARK   17  A    between atoms: C_37  and  C_38
REMARK   18  A    between atoms: C_37  and  C_39
REMARK   19  A    between atoms: N_42  and  C_43
REMARK   20  A    between atoms: C_43  and  C_44
REMARK   21  A    between atoms: C_47  and  C_48
REMARK   22  A    between atoms: C_58  and  C_59
REMARK   23  A    between atoms: C_59  and  C_60
REMARK   24  A    between atoms: C_66  and  C_67
REMARK   25  A    between atoms: C_67  and  C_68
REMARK   26  A    between atoms: C_68  and  C_69
REMARK                            x       y       z     vdW  Elec       q    Type
REMARK                         _______ _______ _______ _____ _____    ______ ____
ROOT
ATOM      1  C   UNL     1      -4.715   3.609 134.878  0.00  0.00    +0.000 C 
ATOM      2  N   UNL     1      -4.513   2.016 136.295  0.00  0.00    +0.000 N 
ATOM      3  C   UNL     1      -4.573   0.463 137.675  0.00  0.00    +0.000 C 
ATOM      4  O   UNL     1      -5.508  -0.272 138.573  0.00  0.00    +0.000 OA
ATOM      5  C   UNL     1      -3.809  -1.499 137.662  0.00  0.00    +0.000 C 
ATOM      6  N   UNL     1      -4.118  -2.840 136.690  0.00  0.00    +0.000 N 
ATOM      7  C   UNL     1      -5.147  -2.834 135.823  0.00  0.00    +0.000 C 
ATOM      8  O   UNL     1      -5.366  -3.629 134.922  0.00  0.00    +0.000 OA
ATOM      9  C   UNL     1      -6.009  -1.696 135.824  0.00  0.00    +0.000 C 
ATOM     10  C   UNL     1      -5.417  -0.664 135.065  0.00  0.00    +0.000 C 
ATOM     11  C   UNL     1      -6.386  -1.185 133.730  0.00  0.00    +0.000 C 
ATOM     12  S   UNL     1      -6.901   0.318 131.733  0.00  0.00    +0.000 S 
ATOM     13  C   UNL     1      -7.232  -0.620 130.187  0.00  0.00    +0.000 C 
ATOM     14  C   UNL     1      -6.788   0.037 129.004  0.00  0.00    +0.000 C 
ATOM     15  N   UNL     1      -7.342   1.265 129.191  0.00  0.00    +0.000 N 
ATOM     16  C   UNL     1      -6.983   2.041 130.207  0.00  0.00    +0.000 C 
ATOM     17  O   UNL     1      -7.901   2.823 130.532  0.00  0.00    +0.000 OA
ATOM     18  C   UNL     1      -5.362   1.695 131.248  0.00  0.00    +0.000 C 
ATOM     19  N   UNL     1      -4.191   2.362 131.438  0.00  0.00    +0.000 N 
ATOM     20  C   UNL     1      -4.341   3.399 132.368  0.00  0.00    +0.000 C 
ATOM     21  O   UNL     1      -3.007   3.842 132.076  0.00  0.00    +0.000 OA
ATOM     22  C   UNL     1      -6.216   4.605 132.643  0.00  0.00    +0.000 C 
ATOM     23  N   UNL     1      -6.613   5.113 133.900  0.00  0.00    +0.000 N 
ATOM     24  C   UNL     1      -5.591   5.222 134.777  0.00  0.00    +0.000 C 
ATOM     25  O   UNL     1      -5.273   6.383 135.051  0.00  0.00    +0.000 OA
ATOM     26  H   UNL     1      -4.972   1.620 137.516  0.00  0.00    +0.000 HD
ATOM     27  H   UNL     1      -3.619  -3.779 136.623  0.00  0.00    +0.000 HD
ATOM     28  H   UNL     1      -8.237   1.372 128.796  0.00  0.00    +0.000 HD
ATOM     29  H   UNL     1      -3.319   2.087 131.028  0.00  0.00    +0.000 HD
ATOM     30  H   UNL     1      -7.035   4.356 134.333  0.00  0.00    +0.000 HD
ENDROOT
BRANCH   9  31
ATOM     31  N   UNL     1      -5.797  -0.711 136.650  0.00  0.00    +0.000 NA
ATOM     32  H   UNL     1      -6.471  -0.038 136.299  0.00  0.00    +0.000 HD
ATOM     33  H   UNL     1      -4.939  -0.351 136.301  0.00  0.00    +0.000 HD
ENDBRANCH   9  31
BRANCH  14  34
ATOM     34  C   UNL     1      -7.268  -0.946 127.928  0.00  0.00    +0.000 C 
ATOM     35  O   UNL     1      -8.200  -1.643 128.317  0.00  0.00    +0.000 OA
ATOM     36  N   UNL     1      -6.632  -1.100 126.637  0.00  0.00    +0.000 N 
BRANCH  36  37
ATOM     37  C   UNL     1      -5.306  -0.436 126.158  0.00  0.00    +0.000 C 
BRANCH  37  38
ATOM     38  C   UNL     1      -5.199   1.067 126.106  0.00  0.00    +0.000 C 
ATOM     39  O   UNL     1      -4.163   1.599 126.444  0.00  0.00    +0.000 OA
ATOM     40  N   UNL     1      -6.027   1.880 125.434  0.00  0.00    +0.000 N 
ATOM     41  H   UNL     1      -6.923   1.600 125.121  0.00  0.00    +0.000 HD
BRANCH  40  42
ATOM     42  C   UNL     1      -5.574   3.118 124.863  0.00  0.00    +0.000 C 
BRANCH  42  43
ATOM     43  C   UNL     1      -5.487   4.335 125.783  0.00  0.00    +0.000 C 
ATOM     44  O   UNL     1      -6.377   5.152 125.596  0.00  0.00    +0.000 OA
ATOM     45  N   UNL     1      -4.376   4.573 126.632  0.00  0.00    +0.000 N 
ATOM     46  H   UNL     1      -3.540   3.985 126.687  0.00  0.00    +0.000 HD
BRANCH  45  47
ATOM     47  C   UNL     1      -4.356   5.722 127.476  0.00  0.00    +0.000 C 
BRANCH  47  48
ATOM     48  C   UNL     1      -3.061   5.894 128.276  0.00  0.00    +0.000 C 
ATOM     49  N   UNL     1      -2.728   4.904 129.189  0.00  0.00    +0.000 N 
ATOM     50  O   UNL     1      -2.316   6.849 128.081  0.00  0.00    +0.000 OA
ATOM     51  H   UNL     1      -3.135   3.980 129.253  0.00  0.00    +0.000 HD
ATOM     52  H   UNL     1      -1.794   4.949 129.594  0.00  0.00    +0.000 HD
ENDBRANCH  47  48
ENDBRANCH  45  47
ENDBRANCH  42  43
BRANCH  42  53
ATOM     53  C   UNL     1      -6.771   3.644 124.211  0.00  0.00    +0.000 C 
BRANCH  53  54
ATOM     54  C   UNL     1      -6.943   3.343 122.482  0.00  0.00    +0.000 C 
ATOM     55  C   UNL     1      -8.264   3.327 121.930  0.00  0.00    +0.000 C 
ATOM     56  C   UNL     1      -6.187   4.076 120.628  0.00  0.00    +0.000 C 
ENDBRANCH  53  54
ENDBRANCH  42  53
ENDBRANCH  40  42
ENDBRANCH  37  38
ENDBRANCH  36  37
BRANCH  36  57
ATOM     57  C   UNL     1      -7.231  -2.118 125.745  0.00  0.00    +0.000 C 
BRANCH  57  58
ATOM     58  C   UNL     1      -8.169  -1.535 124.716  0.00  0.00    +0.000 A 
ATOM     59  C   UNL     1      -8.540  -2.151 123.541  0.00  0.00    +0.000 A 
ATOM     60  C   UNL     1      -9.307  -1.458 122.600  0.00  0.00    +0.000 A 
ATOM     61  C   UNL     1      -9.687  -0.148 122.828  0.00  0.00    +0.000 A 
ATOM     62  F   UNL     1     -10.418   0.514 121.935  0.00  0.00    +0.000 F 
ATOM     63  C   UNL     1      -9.357   0.476 123.988  0.00  0.00    +0.000 A 
ATOM     64  C   UNL     1      -8.724  -0.282 124.933  0.00  0.00    +0.000 A 
ENDBRANCH  57  58
ENDBRANCH  36  57
ENDBRANCH  14  34
BRANCH   1  65
ATOM     65  C   UNL     1      -4.408   5.154 133.134  0.00  0.00    +0.000 C 
ATOM     66  C   UNL     1      -4.001   6.841 131.877  0.00  0.00    +0.000 C 
BRANCH  65  68
ATOM     67  C   UNL     1      -3.297   7.496 131.858  0.00  0.00    +0.000 C 
ATOM     68  C   UNL     1      -3.070   6.553 133.058  0.00  0.00    +0.000 C 
ENDBRANCH  65  68
ENDBRANCH   1  65
BRANCH  18  69
ATOM     69  C   UNL     1      -6.201   1.884 133.076  0.00  0.00    +0.000 C 
BRANCH  69  70
ATOM     70  C   UNL     1      -7.494   1.759 132.999  0.00  0.00    +0.000 C 
ATOM     71  N   UNL     1      -8.111   3.093 133.229  0.00  0.00    +0.000 N 
ATOM     72  O   UNL     1      -7.795   0.503 132.976  0.00  0.00    +0.000 OA
ATOM     73  H   UNL     1      -7.745   3.798 133.909  0.00  0.00    +0.000 HD
ATOM     74  H   UNL     1      -9.211   2.861 133.570  0.00  0.00    +0.000 HD
ENDBRANCH  69  70
ENDBRANCH  18  69
BRANCH   5  75
ATOM     75  C   UNL     1      -2.806  -0.711 137.115  0.00  0.00    +0.000 C 
BRANCH  75  76
ATOM     76  C   UNL     1      -1.614  -1.508 137.507  0.00  0.00    +0.000 A 
ATOM     77  C   UNL     1      -1.147  -1.649 138.836  0.00  0.00    +0.000 A 
ATOM     78  C   UNL     1       0.018  -2.334 139.079  0.00  0.00    +0.000 A 
ATOM     79  C   UNL     1       0.735  -2.802 137.996  0.00  0.00    +0.000 A 
ATOM     80  C   UNL     1       0.370  -2.488 136.700  0.00  0.00    +0.000 A 
ATOM     81  C   UNL     1      -0.770  -1.792 136.459  0.00  0.00    +0.000 A 
BRANCH  79  82
ATOM     82  O   UNL     1       1.834  -3.589 138.107  0.00  0.00    +0.000 OA
ATOM     83  H   UNL     1       2.326  -3.421 138.925  0.00  0.00    +0.000 HD
ENDBRANCH  79  82
ENDBRANCH  75  76
ENDBRANCH   5  75
BRANCH  22  84
ATOM     84  C   UNL     1      -6.991   5.555 131.230  0.00  0.00    +0.000 C 
BRANCH  84  85
ATOM     85  C   UNL     1      -7.896   6.415 131.968  0.00  0.00    +0.000 C 
BRANCH  85  86
ATOM     86  C   UNL     1      -9.281   6.098 131.607  0.00  0.00    +0.000 C 
ATOM     87  N   UNL     1      -9.516   5.419 130.438  0.00  0.00    +0.000 N 
ATOM     88  O   UNL     1     -10.173   6.461 132.362  0.00  0.00    +0.000 OA
ATOM     89  H   UNL     1      -8.810   5.101 129.782  0.00  0.00    +0.000 HD
ATOM     90  H   UNL     1     -10.460   5.178 130.187  0.00  0.00    +0.000 HD
ENDBRANCH  85  86
ENDBRANCH  84  85
ENDBRANCH  22  84
TORSDOF 22
ENDMDL
MODEL 5
REMARK VINA RESULT:     -11.2      1.630      2.205
REMARK  Name = CHEMBL4458988
REMARK  26 active torsions:
REMARK  status: ('A' for Active; 'I' for Inactive)
REMARK    1  A    between atoms: C_1  and  C_2
REMARK    2  A    between atoms: C_2  and  C_3
REMARK    3  A    between atoms: C_3  and  C_4
REMARK    4  A    between atoms: C_3  and  C_5
REMARK    5  A    between atoms: C_9  and  C_10
REMARK    6  A    between atoms: C_10  and  C_11
REMARK    7  A    between atoms: C_14  and  O_15
REMARK    8  A    between atoms: C_21  and  N_22
REMARK    9  A    between atoms: C_27  and  C_28
REMARK   10  A    between atoms: N_30  and  C_31
REMARK   11  A    between atoms: N_30  and  C_47
REMARK   12  A    between atoms: C_31  and  C_32
REMARK   13  A    between atoms: N_34  and  C_35
REMARK   14  A    between atoms: C_35  and  C_36
REMARK   15  A    between atoms: C_35  and  C_40
REMARK   16  A    between atoms: C_36  and  C_37
REMARK   17  A    between atoms: C_37  and  C_38
REMARK   18  A    between atoms: C_37  and  C_39
REMARK   19  A    between atoms: N_42  and  C_43
REMARK   20  A    between atoms: C_43  and  C_44
REMARK   21  A    between atoms: C_47  and  C_48
REMARK   22  A    between atoms: C_58  and  C_59
REMARK   23  A    between atoms: C_59  and  C_60
REMARK   24  A    between atoms: C_66  and  C_67
REMARK   25  A    between atoms: C_67  and  C_68
REMARK   26  A    between atoms: C_68  and  C_69
REMARK                            x       y       z     vdW  Elec       q    Type
REMARK                         _______ _______ _______ _____ _____    ______ ____
ROOT
ATOM      1  C   UNL     1      -5.960   3.150 134.056  0.00  0.00    +0.000 C 
ATOM      2  N   UNL     1      -5.524   1.430 135.255  0.00  0.00    +0.000 N 
ATOM      3  C   UNL     1      -5.353  -0.282 136.423  0.00  0.00    +0.000 C 
ATOM      4  O   UNL     1      -6.167  -1.248 137.214  0.00  0.00    +0.000 OA
ATOM      5  C   UNL     1      -4.330  -2.104 136.158  0.00  0.00    +0.000 C 
ATOM      6  N   UNL     1      -4.467  -3.338 135.019  0.00  0.00    +0.000 N 
ATOM      7  C   UNL     1      -5.500  -3.360 134.157  0.00  0.00    +0.000 C 
ATOM      8  O   UNL     1      -5.621  -4.055 133.159  0.00  0.00    +0.000 OA
ATOM      9  C   UNL     1      -6.508  -2.361 134.302  0.00  0.00    +0.000 C 
ATOM     10  C   UNL     1      -6.072  -1.168 133.685  0.00  0.00    +0.000 C 
ATOM     11  C   UNL     1      -6.980  -1.639 132.290  0.00  0.00    +0.000 C 
ATOM     12  S   UNL     1      -7.722   0.024 130.503  0.00  0.00    +0.000 S 
ATOM     13  C   UNL     1      -7.944  -0.743 128.847  0.00  0.00    +0.000 C 
ATOM     14  C   UNL     1      -7.610   0.115 127.761  0.00  0.00    +0.000 C 
ATOM     15  N   UNL     1      -8.324   1.221 128.103  0.00  0.00    +0.000 N 
ATOM     16  C   UNL     1      -8.059   1.902 129.213  0.00  0.00    +0.000 C 
ATOM     17  O   UNL     1      -9.070   2.502 129.633  0.00  0.00    +0.000 OA
ATOM     18  C   UNL     1      -6.391   1.649 130.207  0.00  0.00    +0.000 C 
ATOM     19  N   UNL     1      -5.319   2.439 130.486  0.00  0.00    +0.000 N 
ATOM     20  C   UNL     1      -5.596   3.318 131.542  0.00  0.00    +0.000 C 
ATOM     21  O   UNL     1      -4.339   3.973 131.315  0.00  0.00    +0.000 OA
ATOM     22  C   UNL     1      -7.614   4.211 131.964  0.00  0.00    +0.000 C 
ATOM     23  N   UNL     1      -8.058   4.494 133.274  0.00  0.00    +0.000 N 
ATOM     24  C   UNL     1      -7.049   4.627 134.162  0.00  0.00    +0.000 C 
ATOM     25  O   UNL     1      -6.887   5.776 134.585  0.00  0.00    +0.000 OA
ATOM     26  H   UNL     1      -5.908   0.820 136.413  0.00  0.00    +0.000 HD
ATOM     27  H   UNL     1      -3.846  -4.183 134.832  0.00  0.00    +0.000 HD
ATOM     28  H   UNL     1      -9.229   1.255 127.722  0.00  0.00    +0.000 HD
ATOM     29  H   UNL     1      -4.424   2.342 130.047  0.00  0.00    +0.000 HD
ATOM     30  H   UNL     1      -8.367   3.637 133.604  0.00  0.00    +0.000 HD
ENDROOT
BRANCH   9  31
ATOM     31  N   UNL     1      -6.420  -1.471 135.250  0.00  0.00    +0.000 NA
ATOM     32  H   UNL     1      -5.685  -0.880 134.870  0.00  0.00    +0.000 HD
ATOM     33  H   UNL     1      -5.936  -1.985 135.949  0.00  0.00    +0.000 HD
ENDBRANCH   9  31
BRANCH  14  34
ATOM     34  C   UNL     1      -7.967  -0.777 126.565  0.00  0.00    +0.000 C 
ATOM     35  O   UNL     1      -8.629  -1.755 126.895  0.00  0.00    +0.000 OA
ATOM     36  N   UNL     1      -7.495  -0.543 125.216  0.00  0.00    +0.000 N 
BRANCH  36  37
ATOM     37  C   UNL     1      -6.459   0.527 124.757  0.00  0.00    +0.000 C 
BRANCH  37  38
ATOM     38  C   UNL     1      -6.685   1.979 125.091  0.00  0.00    +0.000 C 
ATOM     39  O   UNL     1      -7.820   2.400 125.162  0.00  0.00    +0.000 OA
ATOM     40  N   UNL     1      -5.771   2.804 125.621  0.00  0.00    +0.000 N 
ATOM     41  H   UNL     1      -4.800   2.615 125.609  0.00  0.00    +0.000 HD
BRANCH  40  42
ATOM     42  C   UNL     1      -6.140   3.880 126.498  0.00  0.00    +0.000 C 
BRANCH  42  43
ATOM     43  C   UNL     1      -7.070   4.959 125.948  0.00  0.00    +0.000 C 
ATOM     44  O   UNL     1      -6.509   5.758 125.211  0.00  0.00    +0.000 OA
ATOM     45  N   UNL     1      -8.404   5.123 126.402  0.00  0.00    +0.000 N 
ATOM     46  H   UNL     1      -8.847   4.568 127.139  0.00  0.00    +0.000 HD
BRANCH  45  47
ATOM     47  C   UNL     1      -9.228   6.143 125.843  0.00  0.00    +0.000 C 
BRANCH  47  48
ATOM     48  C   UNL     1     -10.185   6.799 126.844  0.00  0.00    +0.000 C 
ATOM     49  N   UNL     1     -11.150   7.662 126.345  0.00  0.00    +0.000 N 
ATOM     50  O   UNL     1     -10.134   6.533 128.040  0.00  0.00    +0.000 OA
ATOM     51  H   UNL     1     -11.430   7.762 125.378  0.00  0.00    +0.000 HD
ATOM     52  H   UNL     1     -11.875   7.964 126.994  0.00  0.00    +0.000 HD
ENDBRANCH  47  48
ENDBRANCH  45  47
ENDBRANCH  42  43
BRANCH  42  53
ATOM     53  C   UNL     1      -4.989   4.779 126.431  0.00  0.00    +0.000 C 
BRANCH  53  54
ATOM     54  C   UNL     1      -3.872   4.759 127.795  0.00  0.00    +0.000 C 
ATOM     55  C   UNL     1      -2.755   3.866 127.737  0.00  0.00    +0.000 C 
ATOM     56  C   UNL     1      -2.714   6.119 128.958  0.00  0.00    +0.000 C 
ENDBRANCH  53  54
ENDBRANCH  42  53
ENDBRANCH  40  42
ENDBRANCH  37  38
ENDBRANCH  36  37
BRANCH  36  57
ATOM     57  C   UNL     1      -7.931  -1.530 124.204  0.00  0.00    +0.000 C 
BRANCH  57  58
ATOM     58  C   UNL     1      -6.927  -2.633 123.970  0.00  0.00    +0.000 A 
ATOM     59  C   UNL     1      -7.038  -3.920 124.447  0.00  0.00    +0.000 A 
ATOM     60  C   UNL     1      -5.980  -4.820 124.283  0.00  0.00    +0.000 A 
ATOM     61  C   UNL     1      -4.811  -4.426 123.657  0.00  0.00    +0.000 A 
ATOM     62  F   UNL     1      -3.803  -5.280 123.498  0.00  0.00    +0.000 F 
ATOM     63  C   UNL     1      -4.684  -3.171 123.154  0.00  0.00    +0.000 A 
ATOM     64  C   UNL     1      -5.791  -2.370 123.218  0.00  0.00    +0.000 A 
ENDBRANCH  57  58
ENDBRANCH  36  57
ENDBRANCH  14  34
BRANCH   1  65
ATOM     65  C   UNL     1      -5.890   4.934 132.529  0.00  0.00    +0.000 C 
ATOM     66  C   UNL     1      -5.695   6.800 131.496  0.00  0.00    +0.000 C 
BRANCH  65  68
ATOM     67  C   UNL     1      -3.644   6.307 133.718  0.00  0.00    +0.000 C 
ATOM     68  C   UNL     1      -4.662   6.431 132.564  0.00  0.00    +0.000 C 
ENDBRANCH  65  68
ENDBRANCH   1  65
BRANCH  18  69
ATOM     69  C   UNL     1      -7.223   1.485 132.040  0.00  0.00    +0.000 C 
BRANCH  69  70
ATOM     70  C   UNL     1      -8.491   1.209 131.942  0.00  0.00    +0.000 C 
ATOM     71  N   UNL     1      -9.266   2.412 132.350  0.00  0.00    +0.000 N 
ATOM     72  O   UNL     1      -8.633  -0.059 131.747  0.00  0.00    +0.000 OA
ATOM     73  H   UNL     1      -8.982   3.058 133.121  0.00  0.00    +0.000 HD
ATOM     74  H   UNL     1     -10.324   2.000 132.653  0.00  0.00    +0.000 HD
ENDBRANCH  69  70
ENDBRANCH  18  69
BRANCH   5  75
ATOM     75  C   UNL     1      -3.451  -1.122 135.722  0.00  0.00    +0.000 C 
BRANCH  75  76
ATOM     76  C   UNL     1      -2.179  -1.892 135.741  0.00  0.00    +0.000 A 
ATOM     77  C   UNL     1      -1.635  -2.509 136.893  0.00  0.00    +0.000 A 
ATOM     78  C   UNL     1      -0.407  -3.121 136.821  0.00  0.00    +0.000 A 
ATOM     79  C   UNL     1       0.289  -3.044 135.631  0.00  0.00    +0.000 A 
ATOM     80  C   UNL     1      -0.167  -2.272 134.579  0.00  0.00    +0.000 A 
ATOM     81  C   UNL     1      -1.369  -1.650 134.656  0.00  0.00    +0.000 A 
BRANCH  79  82
ATOM     82  O   UNL     1       1.453  -3.700 135.399  0.00  0.00    +0.000 OA
ATOM     83  H   UNL     1       1.937  -3.890 136.217  0.00  0.00    +0.000 HD
ENDBRANCH  79  82
ENDBRANCH  75  76
ENDBRANCH   5  75
BRANCH  22  84
ATOM     84  C   UNL     1      -8.530   5.220 130.683  0.00  0.00    +0.000 C 
BRANCH  84  85
ATOM     85  C   UNL     1      -9.318   6.076 131.549  0.00  0.00    +0.000 C 
BRANCH  85  86
ATOM     86  C   UNL     1     -10.744   5.802 131.348  0.00  0.00    +0.000 C 
ATOM     87  N   UNL     1     -11.104   4.743 130.552  0.00  0.00    +0.000 N 
ATOM     88  O   UNL     1     -11.557   6.538 131.892  0.00  0.00    +0.000 OA
ATOM     89  H   UNL     1     -10.466   4.110 130.080  0.00  0.00    +0.000 HD
ATOM     90  H   UNL     1     -12.078   4.532 130.420  0.00  0.00    +0.000 HD
ENDBRANCH  85  86
ENDBRANCH  84  85
ENDBRANCH  22  84
TORSDOF 22
ENDMDL
MODEL 6
REMARK VINA RESULT:     -10.9      3.925     10.790
REMARK  Name = CHEMBL4458988
REMARK  26 active torsions:
REMARK  status: ('A' for Active; 'I' for Inactive)
REMARK    1  A    between atoms: C_1  and  C_2
REMARK    2  A    between atoms: C_2  and  C_3
REMARK    3  A    between atoms: C_3  and  C_4
REMARK    4  A    between atoms: C_3  and  C_5
REMARK    5  A    between atoms: C_9  and  C_10
REMARK    6  A    between atoms: C_10  and  C_11
REMARK    7  A    between atoms: C_14  and  O_15
REMARK    8  A    between atoms: C_21  and  N_22
REMARK    9  A    between atoms: C_27  and  C_28
REMARK   10  A    between atoms: N_30  and  C_31
REMARK   11  A    between atoms: N_30  and  C_47
REMARK   12  A    between atoms: C_31  and  C_32
REMARK   13  A    between atoms: N_34  and  C_35
REMARK   14  A    between atoms: C_35  and  C_36
REMARK   15  A    between atoms: C_35  and  C_40
REMARK   16  A    between atoms: C_36  and  C_37
REMARK   17  A    between atoms: C_37  and  C_38
REMARK   18  A    between atoms: C_37  and  C_39
REMARK   19  A    between atoms: N_42  and  C_43
REMARK   20  A    between atoms: C_43  and  C_44
REMARK   21  A    between atoms: C_47  and  C_48
REMARK   22  A    between atoms: C_58  and  C_59
REMARK   23  A    between atoms: C_59  and  C_60
REMARK   24  A    between atoms: C_66  and  C_67
REMARK   25  A    between atoms: C_67  and  C_68
REMARK   26  A    between atoms: C_68  and  C_69
REMARK                            x       y       z     vdW  Elec       q    Type
REMARK                         _______ _______ _______ _____ _____    ______ ____
ROOT
ATOM      1  C   UNL     1      -6.334  -1.642 129.439  0.00  0.00    +0.000 C 
ATOM      2  N   UNL     1      -7.239  -0.331 128.007  0.00  0.00    +0.000 N 
ATOM      3  C   UNL     1      -8.325   0.935 126.767  0.00  0.00    +0.000 C 
ATOM      4  O   UNL     1      -9.704   1.449 126.534  0.00  0.00    +0.000 OA
ATOM      5  C   UNL     1      -7.997   2.899 126.079  0.00  0.00    +0.000 C 
ATOM      6  N   UNL     1      -7.870   4.381 126.869  0.00  0.00    +0.000 N 
ATOM      7  C   UNL     1      -8.179   4.489 128.174  0.00  0.00    +0.000 C 
ATOM      8  O   UNL     1      -7.942   5.427 128.920  0.00  0.00    +0.000 OA
ATOM      9  C   UNL     1      -8.699   3.334 128.831  0.00  0.00    +0.000 C 
ATOM     10  C   UNL     1      -7.631   2.487 129.198  0.00  0.00    +0.000 C 
ATOM     11  C   UNL     1      -7.695   3.202 130.771  0.00  0.00    +0.000 C 
ATOM     12  S   UNL     1      -6.713   2.073 132.838  0.00  0.00    +0.000 S 
ATOM     13  C   UNL     1      -6.207   3.265 134.143  0.00  0.00    +0.000 C 
ATOM     14  C   UNL     1      -5.063   2.859 134.887  0.00  0.00    +0.000 C 
ATOM     15  N   UNL     1      -5.433   1.594 135.223  0.00  0.00    +0.000 N 
ATOM     16  C   UNL     1      -5.629   0.660 134.299  0.00  0.00    +0.000 C 
ATOM     17  O   UNL     1      -6.436  -0.208 134.692  0.00  0.00    +0.000 OA
ATOM     18  C   UNL     1      -5.001   0.880 132.458  0.00  0.00    +0.000 C 
ATOM     19  N   UNL     1      -4.081   0.242 131.683  0.00  0.00    +0.000 N 
ATOM     20  C   UNL     1      -4.594  -0.955 131.166  0.00  0.00    +0.000 C 
ATOM     21  O   UNL     1      -3.296  -1.276 130.645  0.00  0.00    +0.000 OA
ATOM     22  C   UNL     1      -6.072  -2.274 132.227  0.00  0.00    +0.000 C 
ATOM     23  N   UNL     1      -7.051  -3.022 131.537  0.00  0.00    +0.000 N 
ATOM     24  C   UNL     1      -6.736  -3.246 130.242  0.00  0.00    +0.000 C 
ATOM     25  O   UNL     1      -6.473  -4.422 129.975  0.00  0.00    +0.000 OA
ATOM     26  H   UNL     1      -8.380  -0.188 127.273  0.00  0.00    +0.000 HD
ATOM     27  H   UNL     1      -7.570   5.337 126.508  0.00  0.00    +0.000 HD
ATOM     28  H   UNL     1      -5.897   1.522 136.087  0.00  0.00    +0.000 HD
ATOM     29  H   UNL     1      -3.186   0.627 131.447  0.00  0.00    +0.000 HD
ATOM     30  H   UNL     1      -7.752  -2.378 131.358  0.00  0.00    +0.000 HD
ENDROOT
BRANCH   9  31
ATOM     31  N   UNL     1      -8.870   2.223 128.171  0.00  0.00    +0.000 NA
ATOM     32  H   UNL     1      -8.047   1.710 128.473  0.00  0.00    +0.000 HD
ATOM     33  H   UNL     1      -8.616   2.507 127.253  0.00  0.00    +0.000 HD
ENDBRANCH   9  31
BRANCH  14  34
ATOM     34  C   UNL     1      -4.957   4.001 135.906  0.00  0.00    +0.000 C 
ATOM     35  O   UNL     1      -4.723   3.594 137.039  0.00  0.00    +0.000 OA
ATOM     36  N   UNL     1      -5.203   5.392 135.586  0.00  0.00    +0.000 N 
BRANCH  36  37
ATOM     37  C   UNL     1      -5.741   5.964 134.240  0.00  0.00    +0.000 C 
BRANCH  37  38
ATOM     38  C   UNL     1      -4.781   6.258 133.115  0.00  0.00    +0.000 C 
ATOM     39  O   UNL     1      -5.189   6.259 131.974  0.00  0.00    +0.000 OA
ATOM     40  N   UNL     1      -3.573   6.823 133.255  0.00  0.00    +0.000 N 
ATOM     41  H   UNL     1      -3.094   6.868 134.120  0.00  0.00    +0.000 HD
BRANCH  40  42
ATOM     42  C   UNL     1      -3.006   7.659 132.234  0.00  0.00    +0.000 C 
BRANCH  42  43
ATOM     43  C   UNL     1      -2.299   6.974 131.066  0.00  0.00    +0.000 C 
ATOM     44  O   UNL     1      -1.136   6.680 131.303  0.00  0.00    +0.000 OA
ATOM     45  N   UNL     1      -2.883   6.866 129.777  0.00  0.00    +0.000 N 
ATOM     46  H   UNL     1      -3.792   7.250 129.509  0.00  0.00    +0.000 HD
BRANCH  45  47
ATOM     47  C   UNL     1      -2.178   6.206 128.728  0.00  0.00    +0.000 C 
BRANCH  47  48
ATOM     48  C   UNL     1      -2.939   5.035 128.098  0.00  0.00    +0.000 C 
ATOM     49  N   UNL     1      -4.326   5.086 128.105  0.00  0.00    +0.000 N 
ATOM     50  O   UNL     1      -2.345   4.106 127.561  0.00  0.00    +0.000 OA
ATOM     51  H   UNL     1      -4.900   5.896 128.299  0.00  0.00    +0.000 HD
ATOM     52  H   UNL     1      -4.813   4.387 127.547  0.00  0.00    +0.000 HD
ENDBRANCH  47  48
ENDBRANCH  45  47
ENDBRANCH  42  43
BRANCH  42  53
ATOM     53  C   UNL     1      -1.731   8.078 132.814  0.00  0.00    +0.000 C 
BRANCH  53  54
ATOM     54  C   UNL     1      -1.543   9.790 133.190  0.00  0.00    +0.000 C 
ATOM     55  C   UNL     1      -2.287  10.322 134.291  0.00  0.00    +0.000 C 
ATOM     56  C   UNL     1       0.008  11.204 133.566  0.00  0.00    +0.000 C 
ENDBRANCH  53  54
ENDBRANCH  42  53
ENDBRANCH  40  42
ENDBRANCH  37  38
ENDBRANCH  36  37
BRANCH  36  57
ATOM     57  C   UNL     1      -5.072   6.342 136.712  0.00  0.00    +0.000 C 
BRANCH  57  58
ATOM     58  C   UNL     1      -6.394   6.893 137.188  0.00  0.00    +0.000 A 
ATOM     59  C   UNL     1      -7.577   6.188 137.233  0.00  0.00    +0.000 A 
ATOM     60  C   UNL     1      -8.768   6.841 137.563  0.00  0.00    +0.000 A 
ATOM     61  C   UNL     1      -8.776   8.199 137.833  0.00  0.00    +0.000 A 
ATOM     62  F   UNL     1      -9.907   8.823 138.149  0.00  0.00    +0.000 F 
ATOM     63  C   UNL     1      -7.621   8.913 137.821  0.00  0.00    +0.000 A 
ATOM     64  C   UNL     1      -6.466   8.208 137.626  0.00  0.00    +0.000 A 
ENDBRANCH  57  58
ENDBRANCH  36  57
ENDBRANCH  14  34
BRANCH   1  65
ATOM     65  C   UNL     1      -4.840  -2.823 130.815  0.00  0.00    +0.000 C 
ATOM     66  C   UNL     1      -3.517  -4.221 131.756  0.00  0.00    +0.000 C 
BRANCH  65  68
ATOM     67  C   UNL     1      -3.170  -3.921 128.729  0.00  0.00    +0.000 C 
ATOM     68  C   UNL     1      -3.485  -4.078 130.232  0.00  0.00    +0.000 C 
ENDBRANCH  65  68
ENDBRANCH   1  65
BRANCH  18  69
ATOM     69  C   UNL     1      -6.713   0.318 131.547  0.00  0.00    +0.000 C 
BRANCH  69  70
ATOM     70  C   UNL     1      -7.708   0.357 132.384  0.00  0.00    +0.000 C 
ATOM     71  N   UNL     1      -8.135  -1.039 132.673  0.00  0.00    +0.000 N 
ATOM     72  O   UNL     1      -8.120   1.576 132.495  0.00  0.00    +0.000 OA
ATOM     73  H   UNL     1      -8.144  -1.807 131.964  0.00  0.00    +0.000 HD
ATOM     74  H   UNL     1      -9.241  -0.944 133.055  0.00  0.00    +0.000 HD
ENDBRANCH  69  70
ENDBRANCH  18  69
BRANCH   5  75
ATOM     75  C   UNL     1      -6.762   2.271 126.000  0.00  0.00    +0.000 C 
BRANCH  75  76
ATOM     76  C   UNL     1      -6.295   2.790 124.688  0.00  0.00    +0.000 A 
ATOM     77  C   UNL     1      -5.462   3.924 124.527  0.00  0.00    +0.000 A 
ATOM     78  C   UNL     1      -5.162   4.373 123.264  0.00  0.00    +0.000 A 
ATOM     79  C   UNL     1      -5.752   3.737 122.190  0.00  0.00    +0.000 A 
ATOM     80  C   UNL     1      -6.714   2.760 122.371  0.00  0.00    +0.000 A 
ATOM     81  C   UNL     1      -7.027   2.330 123.619  0.00  0.00    +0.000 A 
BRANCH  79  82
ATOM     82  O   UNL     1      -5.449   4.010 120.897  0.00  0.00    +0.000 OA
ATOM     83  H   UNL     1      -4.672   4.584 120.814  0.00  0.00    +0.000 HD
ENDBRANCH  79  82
ENDBRANCH  75  76
ENDBRANCH   5  75
BRANCH  22  84
ATOM     84  C   UNL     1      -5.720  -2.979 133.923  0.00  0.00    +0.000 C 
BRANCH  84  85
ATOM     85  C   UNL     1      -6.646  -4.096 133.931  0.00  0.00    +0.000 C 
BRANCH  85  86
ATOM     86  C   UNL     1      -7.615  -3.925 135.016  0.00  0.00    +0.000 C 
ATOM     87  N   UNL     1      -7.715  -4.908 135.969  0.00  0.00    +0.000 N 
ATOM     88  O   UNL     1      -8.304  -2.913 135.023  0.00  0.00    +0.000 OA
ATOM     89  H   UNL     1      -7.167  -5.762 136.002  0.00  0.00    +0.000 HD
ATOM     90  H   UNL     1      -8.362  -4.795 136.730  0.00  0.00    +0.000 HD
ENDBRANCH  85  86
ENDBRANCH  84  85
ENDBRANCH  22  84
TORSDOF 22
ENDMDL
MODEL 7
REMARK VINA RESULT:     -10.7      3.771      8.791
REMARK  Name = CHEMBL4458988
REMARK  26 active torsions:
REMARK  status: ('A' for Active; 'I' for Inactive)
REMARK    1  A    between atoms: C_1  and  C_2
REMARK    2  A    between atoms: C_2  and  C_3
REMARK    3  A    between atoms: C_3  and  C_4
REMARK    4  A    between atoms: C_3  and  C_5
REMARK    5  A    between atoms: C_9  and  C_10
REMARK    6  A    between atoms: C_10  and  C_11
REMARK    7  A    between atoms: C_14  and  O_15
REMARK    8  A    between atoms: C_21  and  N_22
REMARK    9  A    between atoms: C_27  and  C_28
REMARK   10  A    between atoms: N_30  and  C_31
REMARK   11  A    between atoms: N_30  and  C_47
REMARK   12  A    between atoms: C_31  and  C_32
REMARK   13  A    between atoms: N_34  and  C_35
REMARK   14  A    between atoms: C_35  and  C_36
REMARK   15  A    between atoms: C_35  and  C_40
REMARK   16  A    between atoms: C_36  and  C_37
REMARK   17  A    between atoms: C_37  and  C_38
REMARK   18  A    between atoms: C_37  and  C_39
REMARK   19  A    between atoms: N_42  and  C_43
REMARK   20  A    between atoms: C_43  and  C_44
REMARK   21  A    between atoms: C_47  and  C_48
REMARK   22  A    between atoms: C_58  and  C_59
REMARK   23  A    between atoms: C_59  and  C_60
REMARK   24  A    between atoms: C_66  and  C_67
REMARK   25  A    between atoms: C_67  and  C_68
REMARK   26  A    between atoms: C_68  and  C_69
REMARK                            x       y       z     vdW  Elec       q    Type
REMARK                         _______ _______ _______ _____ _____    ______ ____
ROOT
ATOM      1  C   UNL     1      -6.532  -3.323 132.179  0.00  0.00    +0.000 C 
ATOM      2  N   UNL     1      -6.367  -3.472 134.309  0.00  0.00    +0.000 N 
ATOM      3  C   UNL     1      -5.954  -3.627 136.340  0.00  0.00    +0.000 C 
ATOM      4  O   UNL     1      -4.849  -3.930 137.293  0.00  0.00    +0.000 OA
ATOM      5  C   UNL     1      -6.390  -2.395 137.992  0.00  0.00    +0.000 C 
ATOM      6  N   UNL     1      -5.943  -0.821 138.395  0.00  0.00    +0.000 N 
ATOM      7  C   UNL     1      -4.996  -0.178 137.687  0.00  0.00    +0.000 C 
ATOM      8  O   UNL     1      -4.720   1.011 137.724  0.00  0.00    +0.000 OA
ATOM      9  C   UNL     1      -4.331  -0.903 136.654  0.00  0.00    +0.000 C 
ATOM     10  C   UNL     1      -5.137  -0.904 135.494  0.00  0.00    +0.000 C 
ATOM     11  C   UNL     1      -4.200   0.433 134.925  0.00  0.00    +0.000 C 
ATOM     12  S   UNL     1      -4.085   1.085 132.461  0.00  0.00    +0.000 S 
ATOM     13  C   UNL     1      -3.723   2.868 132.200  0.00  0.00    +0.000 C 
ATOM     14  C   UNL     1      -4.354   3.426 131.051  0.00  0.00    +0.000 C 
ATOM     15  N   UNL     1      -3.993   2.510 130.112  0.00  0.00    +0.000 N 
ATOM     16  C   UNL     1      -4.396   1.247 130.184  0.00  0.00    +0.000 C 
ATOM     17  O   UNL     1      -3.594   0.478 129.614  0.00  0.00    +0.000 OA
ATOM     18  C   UNL     1      -5.858   0.694 131.364  0.00  0.00    +0.000 C 
ATOM     19  N   UNL     1      -7.104   0.184 131.163  0.00  0.00    +0.000 N 
ATOM     20  C   UNL     1      -7.054  -1.189 130.891  0.00  0.00    +0.000 C 
ATOM     21  O   UNL     1      -8.459  -1.174 130.602  0.00  0.00    +0.000 OA
ATOM     22  C   UNL     1      -5.382  -2.214 129.794  0.00  0.00    +0.000 C 
ATOM     23  N   UNL     1      -4.980  -3.535 130.089  0.00  0.00    +0.000 N 
ATOM     24  C   UNL     1      -5.937  -4.257 130.711  0.00  0.00    +0.000 C 
ATOM     25  O   UNL     1      -6.417  -5.167 130.029  0.00  0.00    +0.000 OA
ATOM     26  H   UNL     1      -5.760  -4.219 135.275  0.00  0.00    +0.000 HD
ATOM     27  H   UNL     1      -6.288  -0.178 139.170  0.00  0.00    +0.000 HD
ATOM     28  H   UNL     1      -3.160   2.724 129.636  0.00  0.00    +0.000 HD
ATOM     29  H   UNL     1      -7.948   0.711 131.280  0.00  0.00    +0.000 HD
ATOM     30  H   UNL     1      -4.410  -3.436 130.867  0.00  0.00    +0.000 HD
ENDROOT
BRANCH   9  31
ATOM     31  N   UNL     1      -4.637  -2.149 136.423  0.00  0.00    +0.000 NA
ATOM     32  H   UNL     1      -4.052  -2.327 135.612  0.00  0.00    +0.000 HD
ATOM     33  H   UNL     1      -5.538  -2.051 136.014  0.00  0.00    +0.000 HD
ENDBRANCH   9  31
BRANCH  14  34
ATOM     34  C   UNL     1      -3.804   4.857 131.082  0.00  0.00    +0.000 C 
ATOM     35  O   UNL     1      -2.674   4.932 130.611  0.00  0.00    +0.000 OA
ATOM     36  N   UNL     1      -4.499   5.975 131.687  0.00  0.00    +0.000 N 
BRANCH  36  37
ATOM     37  C   UNL     1      -5.817   5.922 132.518  0.00  0.00    +0.000 C 
BRANCH  37  38
ATOM     38  C   UNL     1      -7.148   5.978 131.813  0.00  0.00    +0.000 C 
ATOM     39  O   UNL     1      -7.493   7.011 131.281  0.00  0.00    +0.000 OA
ATOM     40  N   UNL     1      -7.874   4.913 131.442  0.00  0.00    +0.000 N 
ATOM     41  H   UNL     1      -7.733   4.007 131.814  0.00  0.00    +0.000 HD
BRANCH  40  42
ATOM     42  C   UNL     1      -8.711   4.937 130.275  0.00  0.00    +0.000 C 
BRANCH  42  43
ATOM     43  C   UNL     1     -10.200   5.220 130.475  0.00  0.00    +0.000 C 
ATOM     44  O   UNL     1     -10.927   4.351 130.016  0.00  0.00    +0.000 OA
ATOM     45  N   UNL     1     -10.682   6.458 130.972  0.00  0.00    +0.000 N 
ATOM     46  H   UNL     1     -10.098   7.264 131.211  0.00  0.00    +0.000 HD
BRANCH  45  47
ATOM     47  C   UNL     1     -12.082   6.660 131.146  0.00  0.00    +0.000 C 
BRANCH  47  48
ATOM     48  C   UNL     1     -12.762   7.392 129.984  0.00  0.00    +0.000 C 
ATOM     49  N   UNL     1     -12.701   8.778 129.969  0.00  0.00    +0.000 N 
ATOM     50  O   UNL     1     -13.300   6.775 129.070  0.00  0.00    +0.000 OA
ATOM     51  H   UNL     1     -12.091   9.362 130.528  0.00  0.00    +0.000 HD
ATOM     52  H   UNL     1     -13.014   9.242 129.118  0.00  0.00    +0.000 HD
ENDBRANCH  47  48
ENDBRANCH  45  47
ENDBRANCH  42  43
BRANCH  42  53
ATOM     53  C   UNL     1      -8.972   3.522 130.020  0.00  0.00    +0.000 C 
BRANCH  53  54
ATOM     54  C   UNL     1      -8.100   2.772 128.683  0.00  0.00    +0.000 C 
ATOM     55  C   UNL     1      -8.630   1.563 128.129  0.00  0.00    +0.000 C 
ATOM     56  C   UNL     1      -7.307   3.291 126.774  0.00  0.00    +0.000 C 
ENDBRANCH  53  54
ENDBRANCH  42  53
ENDBRANCH  40  42
ENDBRANCH  37  38
ENDBRANCH  36  37
BRANCH  36  57
ATOM     57  C   UNL     1      -3.792   7.274 131.635  0.00  0.00    +0.000 C 
BRANCH  57  58
ATOM     58  C   UNL     1      -2.623   7.358 132.585  0.00  0.00    +0.000 A 
ATOM     59  C   UNL     1      -1.297   7.397 132.211  0.00  0.00    +0.000 A 
ATOM     60  C   UNL     1      -0.294   7.336 133.183  0.00  0.00    +0.000 A 
ATOM     61  C   UNL     1      -0.618   7.223 134.523  0.00  0.00    +0.000 A 
ATOM     62  F   UNL     1       0.334   7.167 135.451  0.00  0.00    +0.000 F 
ATOM     63  C   UNL     1      -1.916   7.209 134.923  0.00  0.00    +0.000 A 
ATOM     64  C   UNL     1      -2.858   7.405 133.952  0.00  0.00    +0.000 A 
ENDBRANCH  57  58
ENDBRANCH  36  57
ENDBRANCH  14  34
BRANCH   1  65
ATOM     65  C   UNL     1      -7.213  -2.866 129.977  0.00  0.00    +0.000 C 
ATOM     66  C   UNL     1      -7.988  -2.873 127.980  0.00  0.00    +0.000 C 
BRANCH  65  68
ATOM     67  C   UNL     1      -8.662  -3.466 127.551  0.00  0.00    +0.000 C 
ATOM     68  C   UNL     1      -8.779  -3.579 129.086  0.00  0.00    +0.000 C 
ENDBRANCH  65  68
ENDBRANCH   1  65
BRANCH  18  69
ATOM     69  C   UNL     1      -4.926  -0.904 132.175  0.00  0.00    +0.000 C 
BRANCH  69  70
ATOM     70  C   UNL     1      -3.638  -0.810 132.015  0.00  0.00    +0.000 C 
ATOM     71  N   UNL     1      -3.213  -1.820 131.008  0.00  0.00    +0.000 N 
ATOM     72  O   UNL     1      -3.154  -0.043 132.934  0.00  0.00    +0.000 OA
ATOM     73  H   UNL     1      -3.631  -2.774 130.925  0.00  0.00    +0.000 HD
ATOM     74  H   UNL     1      -2.069  -1.988 131.214  0.00  0.00    +0.000 HD
ENDBRANCH  69  70
ENDBRANCH  18  69
BRANCH   5  75
ATOM     75  C   UNL     1      -7.545  -2.400 137.222  0.00  0.00    +0.000 C 
BRANCH  75  76
ATOM     76  C   UNL     1      -8.526  -2.862 138.239  0.00  0.00    +0.000 A 
ATOM     77  C   UNL     1      -8.836  -4.221 138.492  0.00  0.00    +0.000 A 
ATOM     78  C   UNL     1      -9.824  -4.537 139.392  0.00  0.00    +0.000 A 
ATOM     79  C   UNL     1     -10.537  -3.503 139.965  0.00  0.00    +0.000 A 
ATOM     80  C   UNL     1     -10.357  -2.193 139.561  0.00  0.00    +0.000 A 
ATOM     81  C   UNL     1      -9.395  -1.881 138.657  0.00  0.00    +0.000 A 
BRANCH  79  82
ATOM     82  O   UNL     1     -11.455  -3.678 140.948  0.00  0.00    +0.000 OA
ATOM     83  H   UNL     1     -11.228  -4.416 141.535  0.00  0.00    +0.000 HD
ENDBRANCH  79  82
ENDBRANCH  75  76
ENDBRANCH   5  75
BRANCH  22  84
ATOM     84  C   UNL     1      -4.878  -1.699 128.067  0.00  0.00    +0.000 C 
BRANCH  84  85
ATOM     85  C   UNL     1      -5.891  -0.698 127.795  0.00  0.00    +0.000 C 
BRANCH  85  86
ATOM     86  C   UNL     1      -5.551   0.026 126.567  0.00  0.00    +0.000 C 
ATOM     87  N   UNL     1      -4.535   0.948 126.608  0.00  0.00    +0.000 N 
ATOM     88  O   UNL     1      -6.195  -0.217 125.555  0.00  0.00    +0.000 OA
ATOM     89  H   UNL     1      -3.977   1.182 127.422  0.00  0.00    +0.000 HD
ATOM     90  H   UNL     1      -4.278   1.437 125.768  0.00  0.00    +0.000 HD
ENDBRANCH  85  86
ENDBRANCH  84  85
ENDBRANCH  22  84
TORSDOF 22
ENDMDL
MODEL 8
REMARK VINA RESULT:     -10.5      3.957     11.102
REMARK  Name = CHEMBL4458988
REMARK  26 active torsions:
REMARK  status: ('A' for Active; 'I' for Inactive)
REMARK    1  A    between atoms: C_1  and  C_2
REMARK    2  A    between atoms: C_2  and  C_3
REMARK    3  A    between atoms: C_3  and  C_4
REMARK    4  A    between atoms: C_3  and  C_5
REMARK    5  A    between atoms: C_9  and  C_10
REMARK    6  A    between atoms: C_10  and  C_11
REMARK    7  A    between atoms: C_14  and  O_15
REMARK    8  A    between atoms: C_21  and  N_22
REMARK    9  A    between atoms: C_27  and  C_28
REMARK   10  A    between atoms: N_30  and  C_31
REMARK   11  A    between atoms: N_30  and  C_47
REMARK   12  A    between atoms: C_31  and  C_32
REMARK   13  A    between atoms: N_34  and  C_35
REMARK   14  A    between atoms: C_35  and  C_36
REMARK   15  A    between atoms: C_35  and  C_40
REMARK   16  A    between atoms: C_36  and  C_37
REMARK   17  A    between atoms: C_37  and  C_38
REMARK   18  A    between atoms: C_37  and  C_39
REMARK   19  A    between atoms: N_42  and  C_43
REMARK   20  A    between atoms: C_43  and  C_44
REMARK   21  A    between atoms: C_47  and  C_48
REMARK   22  A    between atoms: C_58  and  C_59
REMARK   23  A    between atoms: C_59  and  C_60
REMARK   24  A    between atoms: C_66  and  C_67
REMARK   25  A    between atoms: C_67  and  C_68
REMARK   26  A    between atoms: C_68  and  C_69
REMARK                            x       y       z     vdW  Elec       q    Type
REMARK                         _______ _______ _______ _____ _____    ______ ____
ROOT
ATOM      1  C   UNL     1      -6.254  -1.666 129.594  0.00  0.00    +0.000 C 
ATOM      2  N   UNL     1      -7.137  -0.273 128.227  0.00  0.00    +0.000 N 
ATOM      3  C   UNL     1      -8.205   1.061 127.044  0.00  0.00    +0.000 C 
ATOM      4  O   UNL     1      -9.582   1.578 126.809  0.00  0.00    +0.000 OA
ATOM      5  C   UNL     1      -7.879   3.068 126.492  0.00  0.00    +0.000 C 
ATOM      6  N   UNL     1      -7.786   4.497 127.378  0.00  0.00    +0.000 N 
ATOM      7  C   UNL     1      -8.129   4.518 128.679  0.00  0.00    +0.000 C 
ATOM      8  O   UNL     1      -7.919   5.408 129.489  0.00  0.00    +0.000 OA
ATOM      9  C   UNL     1      -8.653   3.319 129.247  0.00  0.00    +0.000 C 
ATOM     10  C   UNL     1      -7.586   2.459 129.585  0.00  0.00    +0.000 C 
ATOM     11  C   UNL     1      -7.696   3.071 131.200  0.00  0.00    +0.000 C 
ATOM     12  S   UNL     1      -6.754   1.819 133.214  0.00  0.00    +0.000 S 
ATOM     13  C   UNL     1      -6.292   2.929 134.605  0.00  0.00    +0.000 C 
ATOM     14  C   UNL     1      -5.163   2.485 135.350  0.00  0.00    +0.000 C 
ATOM     15  N   UNL     1      -5.529   1.199 135.595  0.00  0.00    +0.000 N 
ATOM     16  C   UNL     1      -5.692   0.324 134.609  0.00  0.00    +0.000 C 
ATOM     17  O   UNL     1      -6.501  -0.574 134.924  0.00  0.00    +0.000 OA
ATOM     18  C   UNL     1      -5.021   0.668 132.802  0.00  0.00    +0.000 C 
ATOM     19  N   UNL     1      -4.077   0.089 132.011  0.00  0.00    +0.000 N 
ATOM     20  C   UNL     1      -4.564  -1.077 131.405  0.00  0.00    +0.000 C 
ATOM     21  O   UNL     1      -3.251  -1.353 130.898  0.00  0.00    +0.000 OA
ATOM     22  C   UNL     1      -6.055  -2.474 132.341  0.00  0.00    +0.000 C 
ATOM     23  N   UNL     1      -7.009  -3.184 131.581  0.00  0.00    +0.000 N 
ATOM     24  C   UNL     1      -6.661  -3.322 130.282  0.00  0.00    +0.000 C 
ATOM     25  O   UNL     1      -6.379  -4.476 129.947  0.00  0.00    +0.000 OA
ATOM     26  H   UNL     1      -8.260  -0.093 127.475  0.00  0.00    +0.000 HD
ATOM     27  H   UNL     1      -7.487   5.477 127.086  0.00  0.00    +0.000 HD
ATOM     28  H   UNL     1      -6.013   1.068 136.440  0.00  0.00    +0.000 HD
ATOM     29  H   UNL     1      -3.180   0.495 131.823  0.00  0.00    +0.000 HD
ATOM     30  H   UNL     1      -7.713  -2.536 131.426  0.00  0.00    +0.000 HD
ENDROOT
BRANCH   9  31
ATOM     31  N   UNL     1      -8.797   2.252 128.513  0.00  0.00    +0.000 NA
ATOM     32  H   UNL     1      -7.976   1.727 128.802  0.00  0.00    +0.000 HD
ATOM     33  H   UNL     1      -8.523   2.596 127.622  0.00  0.00    +0.000 HD
ENDBRANCH   9  31
BRANCH  14  34
ATOM     34  C   UNL     1      -5.094   3.561 136.442  0.00  0.00    +0.000 C 
ATOM     35  O   UNL     1      -4.892   3.082 137.554  0.00  0.00    +0.000 OA
ATOM     36  N   UNL     1      -5.335   4.968 136.204  0.00  0.00    +0.000 N 
BRANCH  36  37
ATOM     37  C   UNL     1      -5.834   5.624 134.881  0.00  0.00    +0.000 C 
BRANCH  37  38
ATOM     38  C   UNL     1      -4.883   6.444 134.048  0.00  0.00    +0.000 C 
ATOM     39  O   UNL     1      -4.000   7.066 134.597  0.00  0.00    +0.000 OA
ATOM     40  N   UNL     1      -4.713   6.324 132.723  0.00  0.00    +0.000 N 
ATOM     41  H   UNL     1      -5.366   5.872 132.133  0.00  0.00    +0.000 HD
BRANCH  40  42
ATOM     42  C   UNL     1      -3.447   6.582 132.096  0.00  0.00    +0.000 C 
BRANCH  42  43
ATOM     43  C   UNL     1      -3.019   8.040 131.931  0.00  0.00    +0.000 C 
ATOM     44  O   UNL     1      -3.262   8.498 130.824  0.00  0.00    +0.000 OA
ATOM     45  N   UNL     1      -2.247   8.723 132.905  0.00  0.00    +0.000 N 
ATOM     46  H   UNL     1      -1.891   8.310 133.770  0.00  0.00    +0.000 HD
BRANCH  45  47
ATOM     47  C   UNL     1      -1.886  10.087 132.700  0.00  0.00    +0.000 C 
BRANCH  47  48
ATOM     48  C   UNL     1      -2.443  11.051 133.753  0.00  0.00    +0.000 C 
ATOM     49  N   UNL     1      -2.709  10.545 135.017  0.00  0.00    +0.000 N 
ATOM     50  O   UNL     1      -2.602  12.242 133.504  0.00  0.00    +0.000 OA
ATOM     51  H   UNL     1      -2.395   9.659 135.391  0.00  0.00    +0.000 HD
ATOM     52  H   UNL     1      -2.925  11.223 135.746  0.00  0.00    +0.000 HD
ENDBRANCH  47  48
ENDBRANCH  45  47
ENDBRANCH  42  43
BRANCH  42  53
ATOM     53  C   UNL     1      -3.748   6.466 130.670  0.00  0.00    +0.000 C 
BRANCH  53  54
ATOM     54  C   UNL     1      -3.135   5.042 129.832  0.00  0.00    +0.000 C 
ATOM     55  C   UNL     1      -3.811   3.797 130.038  0.00  0.00    +0.000 C 
ATOM     56  C   UNL     1      -2.615   4.424 127.859  0.00  0.00    +0.000 C 
ENDBRANCH  53  54
ENDBRANCH  42  53
ENDBRANCH  40  42
ENDBRANCH  37  38
ENDBRANCH  36  37
BRANCH  36  57
ATOM     57  C   UNL     1      -5.243   5.845 137.393  0.00  0.00    +0.000 C 
BRANCH  57  58
ATOM     58  C   UNL     1      -6.430   6.763 137.553  0.00  0.00    +0.000 A 
ATOM     59  C   UNL     1      -7.747   6.359 137.587  0.00  0.00    +0.000 A 
ATOM     60  C   UNL     1      -8.770   7.312 137.602  0.00  0.00    +0.000 A 
ATOM     61  C   UNL     1      -8.476   8.663 137.568  0.00  0.00    +0.000 A 
ATOM     62  F   UNL     1      -9.447   9.572 137.583  0.00  0.00    +0.000 F 
ATOM     63  C   UNL     1      -7.187   9.090 137.560  0.00  0.00    +0.000 A 
ATOM     64  C   UNL     1      -6.222   8.129 137.681  0.00  0.00    +0.000 A 
ENDBRANCH  57  58
ENDBRANCH  36  57
ENDBRANCH  14  34
BRANCH   1  65
ATOM     65  C   UNL     1      -4.783  -2.920 130.929  0.00  0.00    +0.000 C 
ATOM     66  C   UNL     1      -3.503  -4.382 131.832  0.00  0.00    +0.000 C 
BRANCH  65  68
ATOM     67  C   UNL     1      -2.977  -3.895 128.896  0.00  0.00    +0.000 C 
ATOM     68  C   UNL     1      -3.501  -4.233 130.308  0.00  0.00    +0.000 C 
ENDBRANCH  65  68
ENDBRANCH   1  65
BRANCH  18  69
ATOM     69  C   UNL     1      -6.705   0.152 131.814  0.00  0.00    +0.000 C 
BRANCH  69  70
ATOM     70  C   UNL     1      -7.718   0.112 132.629  0.00  0.00    +0.000 C 
ATOM     71  N   UNL     1      -8.109  -1.310 132.826  0.00  0.00    +0.000 N 
ATOM     72  O   UNL     1      -8.167   1.310 132.802  0.00  0.00    +0.000 OA
ATOM     73  H   UNL     1      -8.081  -2.035 132.074  0.00  0.00    +0.000 HD
ATOM     74  H   UNL     1      -9.225  -1.269 133.188  0.00  0.00    +0.000 HD
ENDBRANCH  69  70
ENDBRANCH  18  69
BRANCH   5  75
ATOM     75  C   UNL     1      -6.636   2.457 126.404  0.00  0.00    +0.000 C 
BRANCH  75  76
ATOM     76  C   UNL     1      -6.241   2.878 125.035  0.00  0.00    +0.000 A 
ATOM     77  C   UNL     1      -5.450   4.016 124.744  0.00  0.00    +0.000 A 
ATOM     78  C   UNL     1      -5.217   4.367 123.437  0.00  0.00    +0.000 A 
ATOM     79  C   UNL     1      -5.832   3.628 122.446  0.00  0.00    +0.000 A 
ATOM     80  C   UNL     1      -6.756   2.645 122.748  0.00  0.00    +0.000 A 
ATOM     81  C   UNL     1      -7.003   2.311 124.039  0.00  0.00    +0.000 A 
BRANCH  79  82
ATOM     82  O   UNL     1      -5.592   3.802 121.122  0.00  0.00    +0.000 OA
ATOM     83  H   UNL     1      -4.837   4.387 120.959  0.00  0.00    +0.000 HD
ENDBRANCH  79  82
ENDBRANCH  75  76
ENDBRANCH   5  75
BRANCH  22  84
ATOM     84  C   UNL     1      -5.738  -3.284 133.997  0.00  0.00    +0.000 C 
BRANCH  84  85
ATOM     85  C   UNL     1      -6.718  -4.352 133.949  0.00  0.00    +0.000 C 
BRANCH  85  86
ATOM     86  C   UNL     1      -7.666  -4.202 135.056  0.00  0.00    +0.000 C 
ATOM     87  N   UNL     1      -7.761  -5.212 135.982  0.00  0.00    +0.000 N 
ATOM     88  O   UNL     1      -8.343  -3.183 135.104  0.00  0.00    +0.000 OA
ATOM     89  H   UNL     1      -7.223  -6.072 135.980  0.00  0.00    +0.000 HD
ATOM     90  H   UNL     1      -8.393  -5.113 136.757  0.00  0.00    +0.000 HD
ENDBRANCH  85  86
ENDBRANCH  84  85
ENDBRANCH  22  84
TORSDOF 22
ENDMDL
MODEL 9
REMARK VINA RESULT:     -10.3      3.502     10.590
REMARK  Name = CHEMBL4458988
REMARK  26 active torsions:
REMARK  status: ('A' for Active; 'I' for Inactive)
REMARK    1  A    between atoms: C_1  and  C_2
REMARK    2  A    between atoms: C_2  and  C_3
REMARK    3  A    between atoms: C_3  and  C_4
REMARK    4  A    between atoms: C_3  and  C_5
REMARK    5  A    between atoms: C_9  and  C_10
REMARK    6  A    between atoms: C_10  and  C_11
REMARK    7  A    between atoms: C_14  and  O_15
REMARK    8  A    between atoms: C_21  and  N_22
REMARK    9  A    between atoms: C_27  and  C_28
REMARK   10  A    between atoms: N_30  and  C_31
REMARK   11  A    between atoms: N_30  and  C_47
REMARK   12  A    between atoms: C_31  and  C_32
REMARK   13  A    between atoms: N_34  and  C_35
REMARK   14  A    between atoms: C_35  and  C_36
REMARK   15  A    between atoms: C_35  and  C_40
REMARK   16  A    between atoms: C_36  and  C_37
REMARK   17  A    between atoms: C_37  and  C_38
REMARK   18  A    between atoms: C_37  and  C_39
REMARK   19  A    between atoms: N_42  and  C_43
REMARK   20  A    between atoms: C_43  and  C_44
REMARK   21  A    between atoms: C_47  and  C_48
REMARK   22  A    between atoms: C_58  and  C_59
REMARK   23  A    between atoms: C_59  and  C_60
REMARK   24  A    between atoms: C_66  and  C_67
REMARK   25  A    between atoms: C_67  and  C_68
REMARK   26  A    between atoms: C_68  and  C_69
REMARK                            x       y       z     vdW  Elec       q    Type
REMARK                         _______ _______ _______ _____ _____    ______ ____
ROOT
ATOM      1  C   UNL     1      -6.332  -1.747 129.358  0.00  0.00    +0.000 C 
ATOM      2  N   UNL     1      -7.257  -0.504 127.880  0.00  0.00    +0.000 N 
ATOM      3  C   UNL     1      -8.362   0.700 126.594  0.00  0.00    +0.000 C 
ATOM      4  O   UNL     1      -9.749   1.183 126.343  0.00  0.00    +0.000 OA
ATOM      5  C   UNL     1      -8.064   2.642 125.835  0.00  0.00    +0.000 C 
ATOM      6  N   UNL     1      -7.961   4.154 126.571  0.00  0.00    +0.000 N 
ATOM      7  C   UNL     1      -8.273   4.304 127.871  0.00  0.00    +0.000 C 
ATOM      8  O   UNL     1      -8.050   5.272 128.583  0.00  0.00    +0.000 OA
ATOM      9  C   UNL     1      -8.775   3.166 128.570  0.00  0.00    +0.000 C 
ATOM     10  C   UNL     1      -7.693   2.349 128.967  0.00  0.00    +0.000 C 
ATOM     11  C   UNL     1      -7.770   3.120 130.514  0.00  0.00    +0.000 C 
ATOM     12  S   UNL     1      -6.771   2.082 132.620  0.00  0.00    +0.000 S 
ATOM     13  C   UNL     1      -6.285   3.329 133.881  0.00  0.00    +0.000 C 
ATOM     14  C   UNL     1      -5.135   2.968 134.639  0.00  0.00    +0.000 C 
ATOM     15  N   UNL     1      -5.486   1.711 135.021  0.00  0.00    +0.000 N 
ATOM     16  C   UNL     1      -5.666   0.741 134.131  0.00  0.00    +0.000 C 
ATOM     17  O   UNL     1      -6.460  -0.125 134.555  0.00  0.00    +0.000 OA
ATOM     18  C   UNL     1      -5.040   0.904 132.284  0.00  0.00    +0.000 C 
ATOM     19  N   UNL     1      -4.111   0.253 131.532  0.00  0.00    +0.000 N 
ATOM     20  C   UNL     1      -4.604  -0.970 131.059  0.00  0.00    +0.000 C 
ATOM     21  O   UNL     1      -3.301  -1.290 130.550  0.00  0.00    +0.000 OA
ATOM     22  C   UNL     1      -6.062  -2.273 132.166  0.00  0.00    +0.000 C 
ATOM     23  N   UNL     1      -7.028  -3.062 131.504  0.00  0.00    +0.000 N 
ATOM     24  C   UNL     1      -6.710  -3.327 130.219  0.00  0.00    +0.000 C 
ATOM     25  O   UNL     1      -6.428  -4.508 129.994  0.00  0.00    +0.000 OA
ATOM     26  H   UNL     1      -8.399  -0.405 127.141  0.00  0.00    +0.000 HD
ATOM     27  H   UNL     1      -7.676   5.101 126.175  0.00  0.00    +0.000 HD
ATOM     28  H   UNL     1      -5.949   1.663 135.886  0.00  0.00    +0.000 HD
ATOM     29  H   UNL     1      -3.222   0.642 131.282  0.00  0.00    +0.000 HD
ATOM     30  H   UNL     1      -7.740  -2.435 131.302  0.00  0.00    +0.000 HD
ENDROOT
BRANCH   9  31
ATOM     31  N   UNL     1      -8.928   2.029 127.950  0.00  0.00    +0.000 NA
ATOM     32  H   UNL     1      -9.942   1.957 127.963  0.00  0.00    +0.000 HD
ATOM     33  H   UNL     1      -8.663   1.388 128.661  0.00  0.00    +0.000 HD
ENDBRANCH   9  31
BRANCH  14  34
ATOM     34  C   UNL     1      -5.048   4.148 135.616  0.00  0.00    +0.000 C 
ATOM     35  O   UNL     1      -5.975   4.155 136.420  0.00  0.00    +0.000 OA
ATOM     36  N   UNL     1      -4.044   5.188 135.536  0.00  0.00    +0.000 N 
BRANCH  36  37
ATOM     37  C   UNL     1      -2.987   5.387 134.408  0.00  0.00    +0.000 C 
BRANCH  37  38
ATOM     38  C   UNL     1      -3.421   5.363 132.965  0.00  0.00    +0.000 C 
ATOM     39  O   UNL     1      -3.077   4.440 132.258  0.00  0.00    +0.000 OA
ATOM     40  N   UNL     1      -4.408   6.103 132.440  0.00  0.00    +0.000 N 
ATOM     41  H   UNL     1      -4.773   6.909 132.882  0.00  0.00    +0.000 HD
BRANCH  40  42
ATOM     42  C   UNL     1      -5.209   5.631 131.345  0.00  0.00    +0.000 C 
BRANCH  42  43
ATOM     43  C   UNL     1      -4.650   5.796 129.932  0.00  0.00    +0.000 C 
ATOM     44  O   UNL     1      -4.930   6.869 129.419  0.00  0.00    +0.000 OA
ATOM     45  N   UNL     1      -4.034   4.730 129.225  0.00  0.00    +0.000 N 
ATOM     46  H   UNL     1      -3.934   3.774 129.573  0.00  0.00    +0.000 HD
BRANCH  45  47
ATOM     47  C   UNL     1      -3.523   4.948 127.913  0.00  0.00    +0.000 C 
BRANCH  47  48
ATOM     48  C   UNL     1      -2.962   3.692 127.239  0.00  0.00    +0.000 C 
ATOM     49  N   UNL     1      -3.544   2.473 127.556  0.00  0.00    +0.000 N 
ATOM     50  O   UNL     1      -2.062   3.764 126.408  0.00  0.00    +0.000 OA
ATOM     51  H   UNL     1      -4.426   2.330 128.031  0.00  0.00    +0.000 HD
ATOM     52  H   UNL     1      -3.272   1.673 126.988  0.00  0.00    +0.000 HD
ENDBRANCH  47  48
ENDBRANCH  45  47
ENDBRANCH  42  43
BRANCH  42  53
ATOM     53  C   UNL     1      -6.168   6.714 131.137  0.00  0.00    +0.000 C 
BRANCH  53  54
ATOM     54  C   UNL     1      -7.874   6.332 131.363  0.00  0.00    +0.000 C 
ATOM     55  C   UNL     1      -8.357   6.176 132.702  0.00  0.00    +0.000 C 
ATOM     56  C   UNL     1      -9.788   7.057 130.766  0.00  0.00    +0.000 C 
ENDBRANCH  53  54
ENDBRANCH  42  53
ENDBRANCH  40  42
ENDBRANCH  37  38
ENDBRANCH  36  37
BRANCH  36  57
ATOM     57  C   UNL     1      -4.142   6.254 136.558  0.00  0.00    +0.000 C 
BRANCH  57  58
ATOM     58  C   UNL     1      -3.080   7.318 136.417  0.00  0.00    +0.000 A 
ATOM     59  C   UNL     1      -3.211   8.477 135.684  0.00  0.00    +0.000 A 
ATOM     60  C   UNL     1      -2.112   9.324 135.515  0.00  0.00    +0.000 A 
ATOM     61  C   UNL     1      -0.884   9.004 136.065  0.00  0.00    +0.000 A 
ATOM     62  F   UNL     1       0.164   9.809 135.907  0.00  0.00    +0.000 F 
ATOM     63  C   UNL     1      -0.732   7.881 136.814  0.00  0.00    +0.000 A 
ATOM     64  C   UNL     1      -1.863   7.155 137.064  0.00  0.00    +0.000 A 
ENDBRANCH  57  58
ENDBRANCH  36  57
ENDBRANCH  14  34
BRANCH   1  65
ATOM     65  C   UNL     1      -4.820  -2.853 130.776  0.00  0.00    +0.000 C 
ATOM     66  C   UNL     1      -3.467  -4.190 131.761  0.00  0.00    +0.000 C 
BRANCH  65  68
ATOM     67  C   UNL     1      -3.116  -3.964 128.724  0.00  0.00    +0.000 C 
ATOM     68  C   UNL     1      -3.417  -4.074 130.234  0.00  0.00    +0.000 C 
ENDBRANCH  65  68
ENDBRANCH   1  65
BRANCH  18  69
ATOM     69  C   UNL     1      -6.743   0.282 131.394  0.00  0.00    +0.000 C 
BRANCH  69  70
ATOM     70  C   UNL     1      -7.738   0.329 132.231  0.00  0.00    +0.000 C 
ATOM     71  N   UNL     1      -8.067  -1.060 132.649  0.00  0.00    +0.000 N 
ATOM     72  O   UNL     1      -8.233   1.522 132.232  0.00  0.00    +0.000 OA
ATOM     73  H   UNL     1      -8.023  -1.889 132.014  0.00  0.00    +0.000 HD
ATOM     74  H   UNL     1      -9.177  -1.007 133.029  0.00  0.00    +0.000 HD
ENDBRANCH  69  70
ENDBRANCH  18  69
BRANCH   5  75
ATOM     75  C   UNL     1      -6.820   2.031 125.780  0.00  0.00    +0.000 C 
BRANCH  75  76
ATOM     76  C   UNL     1      -6.291   2.644 124.533  0.00  0.00    +0.000 A 
ATOM     77  C   UNL     1      -5.476   3.802 124.493  0.00  0.00    +0.000 A 
ATOM     78  C   UNL     1      -5.115   4.338 123.282  0.00  0.00    +0.000 A 
ATOM     79  C   UNL     1      -5.627   3.762 122.137  0.00  0.00    +0.000 A 
ATOM     80  C   UNL     1      -6.576   2.758 122.198  0.00  0.00    +0.000 A 
ATOM     81  C   UNL     1      -6.949   2.241 123.395  0.00  0.00    +0.000 A 
BRANCH  79  82
ATOM     82  O   UNL     1      -5.257   4.125 120.883  0.00  0.00    +0.000 OA
ATOM     83  H   UNL     1      -4.400   4.578 120.870  0.00  0.00    +0.000 HD
ENDBRANCH  79  82
ENDBRANCH  75  76
ENDBRANCH   5  75
BRANCH  22  84
ATOM     84  C   UNL     1      -5.700  -2.911 133.888  0.00  0.00    +0.000 C 
BRANCH  84  85
ATOM     85  C   UNL     1      -4.343  -2.429 134.057  0.00  0.00    +0.000 C 
BRANCH  85  86
ATOM     86  C   UNL     1      -3.986  -2.449 135.479  0.00  0.00    +0.000 C 
ATOM     87  N   UNL     1      -4.931  -2.065 136.398  0.00  0.00    +0.000 N 
ATOM     88  O   UNL     1      -2.855  -2.799 135.787  0.00  0.00    +0.000 OA
ATOM     89  H   UNL     1      -5.878  -1.766 136.188  0.00  0.00    +0.000 HD
ATOM     90  H   UNL     1      -4.707  -2.093 137.377  0.00  0.00    +0.000 HD
ENDBRANCH  85  86
ENDBRANCH  84  85
ENDBRANCH  22  84
TORSDOF 22
ENDMDL
