MODEL 1
REMARK VINA RESULT:      -8.8      0.000      0.000
REMARK  Name = CHEMBL3142789
REMARK  42 active torsions:
REMARK  status: ('A' for Active; 'I' for Inactive)
REMARK    1  A    between atoms: C_1  and  C_2
REMARK    2  A    between atoms: C_2  and  C_3
REMARK    3  A    between atoms: C_3  and  C_4
REMARK    4  A    between atoms: C_3  and  C_5
REMARK    5  A    between atoms: C_5  and  N_6
REMARK    6  A    between atoms: C_5  and  C_34
REMARK    7  A    between atoms: C_7  and  C_9
REMARK    8  A    between atoms: C_9  and  C_10
REMARK    9  A    between atoms: C_9  and  N_18
REMARK   10  A    between atoms: C_10  and  C_11
REMARK   11  A    between atoms: C_14  and  O_15
REMARK   12  A    between atoms: C_19  and  C_21
REMARK   13  A    between atoms: C_21  and  C_22
REMARK   14  A    between atoms: C_22  and  S_23
REMARK   15  A    between atoms: S_23  and  C_24
REMARK   16  A    between atoms: C_24  and  C_25
REMARK   17  A    between atoms: C_25  and  C_26
REMARK   18  A    between atoms: N_36  and  C_37
REMARK   19  A    between atoms: C_37  and  C_38
REMARK   20  A    between atoms: C_37  and  C_85
REMARK   21  A    between atoms: N_40  and  C_41
REMARK   22  A    between atoms: C_41  and  C_42
REMARK   23  A    between atoms: C_41  and  C_46
REMARK   24  A    between atoms: C_42  and  C_43
REMARK   25  A    between atoms: N_48  and  C_49
REMARK   26  A    between atoms: C_49  and  C_50
REMARK   27  A    between atoms: C_49  and  C_52
REMARK   28  A    between atoms: C_50  and  S_51
REMARK   29  A    between atoms: C_58  and  C_59
REMARK   30  A    between atoms: N_61  and  C_62
REMARK   31  A    between atoms: C_62  and  C_63
REMARK   32  A    between atoms: C_62  and  C_67
REMARK   33  A    between atoms: C_63  and  C_64
REMARK   34  A    between atoms: C_64  and  C_65
REMARK   35  A    between atoms: C_65  and  N_66
REMARK   36  A    between atoms: N_69  and  C_70
REMARK   37  A    between atoms: C_70  and  C_71
REMARK   38  A    between atoms: C_70  and  C_82
REMARK   39  A    between atoms: C_71  and  C_72
REMARK   40  A    between atoms: C_75  and  N_76
REMARK   41  A    between atoms: C_85  and  C_86
REMARK   42  A    between atoms: C_85  and  O_87
REMARK                            x       y       z     vdW  Elec       q    Type
REMARK                         _______ _______ _______ _____ _____    ______ ____
ROOT
ATOM      1  C   UNL     1      -3.482   5.247 137.108  0.00  0.00    +0.000 C 
ENDROOT
BRANCH   1   4
ATOM      2  C   UNL     1      -3.179   7.098 134.984  0.00  0.00    +0.000 C 
ATOM      3  O   UNL     1      -3.346   8.187 135.559  0.00  0.00    +0.000 OA
ATOM      4  N   UNL     1      -3.639   5.884 135.601  0.00  0.00    +0.000 N 
ATOM      5  H   UNL     1      -3.811   5.112 134.977  0.00  0.00    +0.000 HD
BRANCH   2   6
ATOM      6  C   UNL     1      -2.167   7.110 133.492  0.00  0.00    +0.000 C 
BRANCH   6   9
ATOM      7  C   UNL     1      -3.800   7.293 131.619  0.00  0.00    +0.000 C 
ATOM      8  O   UNL     1      -3.921   8.026 130.631  0.00  0.00    +0.000 OA
ATOM      9  N   UNL     1      -3.011   7.882 132.579  0.00  0.00    +0.000 N 
ATOM     10  H   UNL     1      -2.745   8.848 132.391  0.00  0.00    +0.000 HD
BRANCH   7  11
ATOM     11  C   UNL     1      -4.544   5.722 131.744  0.00  0.00    +0.000 C 
BRANCH  11  12
ATOM     12  N   UNL     1      -5.872   5.773 130.988  0.00  0.00    +0.000 N 
ATOM     13  C   UNL     1      -7.209   5.865 131.435  0.00  0.00    +0.000 C 
ATOM     14  O   UNL     1      -7.500   6.131 132.607  0.00  0.00    +0.000 OA
ATOM     15  H   UNL     1      -5.669   6.163 130.087  0.00  0.00    +0.000 HD
BRANCH  13  16
ATOM     16  C   UNL     1      -8.425   5.721 130.425  0.00  0.00    +0.000 C 
BRANCH  16  17
ATOM     17  N   UNL     1      -8.483   4.333 129.863  0.00  0.00    +0.000 N 
ATOM     18  C   UNL     1      -8.454   4.188 128.493  0.00  0.00    +0.000 C 
ATOM     19  O   UNL     1      -8.666   5.166 127.779  0.00  0.00    +0.000 OA
ATOM     20  H   UNL     1      -8.190   3.555 130.438  0.00  0.00    +0.000 HD
BRANCH  18  21
ATOM     21  C   UNL     1      -8.163   2.777 127.931  0.00  0.00    +0.000 C 
BRANCH  21  22
ATOM     22  C   UNL     1      -6.905   2.725 127.013  0.00  0.00    +0.000 C 
ATOM     23  C   UNL     1      -5.847   3.747 127.527  0.00  0.00    +0.000 C 
ATOM     24  C   UNL     1      -4.558   3.685 126.749  0.00  0.00    +0.000 C 
ATOM     25  C   UNL     1      -3.983   2.256 126.675  0.00  0.00    +0.000 C 
ATOM     26  C   UNL     1      -4.953   1.141 126.330  0.00  0.00    +0.000 C 
ATOM     27  C   UNL     1      -6.274   1.300 127.060  0.00  0.00    +0.000 C 
BRANCH  22  28
ATOM     28  S   UNL     1      -7.610   3.351 125.380  0.00  0.00    +0.000 S 
BRANCH  28  29
ATOM     29  C   UNL     1      -7.873   1.886 124.442  0.00  0.00    +0.000 C 
BRANCH  29  30
ATOM     30  C   UNL     1      -7.201   1.841 123.144  0.00  0.00    +0.000 C 
BRANCH  30  31
ATOM     31  C   UNL     1      -7.692   2.981 122.254  0.00  0.00    +0.000 C 
ATOM     32  N   UNL     1      -6.835   3.815 121.650  0.00  0.00    +0.000 N 
ATOM     33  O   UNL     1      -8.894   3.189 122.098  0.00  0.00    +0.000 OA
ATOM     34  H   UNL     1      -5.892   3.775 122.023  0.00  0.00    +0.000 HD
ATOM     35  H   UNL     1      -7.159   4.772 121.722  0.00  0.00    +0.000 HD
ENDBRANCH  30  31
ENDBRANCH  29  30
ENDBRANCH  28  29
ENDBRANCH  22  28
ENDBRANCH  21  22
ENDBRANCH  18  21
ENDBRANCH  16  17
BRANCH  16  36
ATOM     36  C   UNL     1      -9.641   5.997 131.302  0.00  0.00    +0.000 C 
BRANCH  36  37
ATOM     37  C   UNL     1     -10.661   6.911 130.657  0.00  0.00    +0.000 A 
ATOM     38  C   UNL     1     -11.995   6.996 131.103  0.00  0.00    +0.000 A 
ATOM     39  C   UNL     1     -12.959   7.654 130.347  0.00  0.00    +0.000 A 
ATOM     40  C   UNL     1     -12.580   8.345 129.210  0.00  0.00    +0.000 A 
ATOM     41  C   UNL     1     -11.245   8.394 128.837  0.00  0.00    +0.000 A 
ATOM     42  C   UNL     1     -10.289   7.654 129.537  0.00  0.00    +0.000 A 
BRANCH  40  43
ATOM     43  O   UNL     1     -13.498   8.986 128.433  0.00  0.00    +0.000 OA
ATOM     44  H   UNL     1     -14.079   9.497 129.027  0.00  0.00    +0.000 HD
ENDBRANCH  40  43
ENDBRANCH  36  37
ENDBRANCH  16  36
ENDBRANCH  13  16
ENDBRANCH  11  12
BRANCH  11  45
ATOM     45  C   UNL     1      -3.768   4.450 131.172  0.00  0.00    +0.000 C 
ATOM     46  C   UNL     1      -3.013   4.644 129.857  0.00  0.00    +0.000 C 
BRANCH  45  48
ATOM     47  C   UNL     1      -4.246   1.731 130.362  0.00  0.00    +0.000 C 
ATOM     48  C   UNL     1      -4.445   3.089 131.057  0.00  0.00    +0.000 C 
ENDBRANCH  45  48
ENDBRANCH  11  45
ENDBRANCH   7  11
ENDBRANCH   6   9
BRANCH   6  49
ATOM     49  C   UNL     1      -0.694   7.666 133.021  0.00  0.00    +0.000 C 
ATOM     50  C   UNL     1       0.377   8.028 134.045  0.00  0.00    +0.000 C 
BRANCH  49  51
ATOM     51  O   UNL     1      -0.052   6.641 132.251  0.00  0.00    +0.000 OA
ATOM     52  H   UNL     1       0.135   5.936 132.890  0.00  0.00    +0.000 HD
ENDBRANCH  49  51
ENDBRANCH   6  49
ENDBRANCH   2   6
ENDBRANCH   1   4
BRANCH   1  53
ATOM     53  C   UNL     1      -3.927   3.692 137.069  0.00  0.00    +0.000 C 
ATOM     54  O   UNL     1      -4.998   3.422 136.524  0.00  0.00    +0.000 OA
ATOM     55  N   UNL     1      -3.048   2.687 137.465  0.00  0.00    +0.000 N 
ATOM     56  H   UNL     1      -2.401   2.947 138.173  0.00  0.00    +0.000 HD
BRANCH  55  57
ATOM     57  C   UNL     1      -3.390   1.228 137.595  0.00  0.00    +0.000 C 
BRANCH  57  58
ATOM     58  C   UNL     1      -4.218   0.458 136.409  0.00  0.00    +0.000 C 
ATOM     59  O   UNL     1      -5.389   0.092 136.495  0.00  0.00    +0.000 OA
ATOM     60  N   UNL     1      -3.494   0.018 135.327  0.00  0.00    +0.000 N 
ATOM     61  C   UNL     1      -2.764  -1.227 135.462  0.00  0.00    +0.000 C 
ATOM     62  C   UNL     1      -1.824  -1.100 134.319  0.00  0.00    +0.000 C 
ATOM     63  C   UNL     1      -2.848  -0.738 133.282  0.00  0.00    +0.000 C 
ATOM     64  C   UNL     1      -3.968   0.097 133.911  0.00  0.00    +0.000 C 
BRANCH  64  65
ATOM     65  C   UNL     1      -5.333  -0.596 133.457  0.00  0.00    +0.000 C 
ATOM     66  O   UNL     1      -5.443  -1.823 133.492  0.00  0.00    +0.000 OA
ATOM     67  N   UNL     1      -6.374   0.211 132.935  0.00  0.00    +0.000 N 
ATOM     68  H   UNL     1      -6.147   1.124 132.561  0.00  0.00    +0.000 HD
BRANCH  67  69
ATOM     69  C   UNL     1      -7.733  -0.296 132.480  0.00  0.00    +0.000 C 
BRANCH  69  70
ATOM     70  C   UNL     1      -7.759  -1.074 131.144  0.00  0.00    +0.000 C 
ATOM     71  O   UNL     1      -8.332  -0.611 130.162  0.00  0.00    +0.000 OA
ATOM     72  N   UNL     1      -7.131  -2.319 131.148  0.00  0.00    +0.000 N 
ATOM     73  H   UNL     1      -6.932  -2.762 132.031  0.00  0.00    +0.000 HD
BRANCH  72  74
ATOM     74  C   UNL     1      -6.801  -3.045 129.897  0.00  0.00    +0.000 C 
BRANCH  74  75
ATOM     75  C   UNL     1      -5.649  -4.074 130.066  0.00  0.00    +0.000 C 
ATOM     76  N   UNL     1      -4.418  -3.780 129.546  0.00  0.00    +0.000 N 
ATOM     77  O   UNL     1      -5.809  -5.163 130.615  0.00  0.00    +0.000 OA
ATOM     78  H   UNL     1      -4.142  -2.925 129.099  0.00  0.00    +0.000 HD
ATOM     79  H   UNL     1      -3.688  -4.471 129.679  0.00  0.00    +0.000 HD
ENDBRANCH  74  75
BRANCH  74  80
ATOM     80  C   UNL     1      -6.402  -2.094 128.719  0.00  0.00    +0.000 C 
BRANCH  80  81
ATOM     81  C   UNL     1      -7.134  -2.358 127.426  0.00  0.00    +0.000 A 
ATOM     82  C   UNL     1      -8.465  -2.727 127.307  0.00  0.00    +0.000 A 
ATOM     83  C   UNL     1      -9.104  -2.717 126.046  0.00  0.00    +0.000 A 
ATOM     84  C   UNL     1      -8.451  -2.357 124.861  0.00  0.00    +0.000 A 
ATOM     85  C   UNL     1      -7.073  -2.245 124.998  0.00  0.00    +0.000 A 
ATOM     86  I   UNL     1      -5.702  -2.658 123.564  0.00  0.00    +0.000 I 
ATOM     87  C   UNL     1      -6.438  -2.224 126.245  0.00  0.00    +0.000 A 
BRANCH  84  88
ATOM     88  N   UNL     1      -9.255  -2.384 123.701  0.00  0.00    +0.000 NA
ATOM     89  N   UNL     1      -9.696  -1.341 123.188  0.00  0.00    +0.000 NA
ATOM     90  N   UNL     1     -10.148  -0.470 122.616  0.00  0.00    +0.000 NA
ENDBRANCH  84  88
ENDBRANCH  80  81
ENDBRANCH  74  80
ENDBRANCH  72  74
ENDBRANCH  69  70
BRANCH  69  91
ATOM     91  C   UNL     1      -8.621   0.833 132.057  0.00  0.00    +0.000 C 
BRANCH  91  92
ATOM     92  C   UNL     1      -8.195   2.022 132.803  0.00  0.00    +0.000 C 
BRANCH  92  93
ATOM     93  C   UNL     1      -9.398   2.811 133.031  0.00  0.00    +0.000 C 
BRANCH  93  94
ATOM     94  N   UNL     1     -10.186   2.343 131.943  0.00  0.00    +0.000 NA
ATOM     95  H   UNL     1      -9.942   1.423 131.582  0.00  0.00    +0.000 HD
ATOM     96  H   UNL     1     -10.011   3.031 131.250  0.00  0.00    +0.000 HD
ENDBRANCH  93  94
ENDBRANCH  92  93
ENDBRANCH  91  92
ENDBRANCH  69  91
ENDBRANCH  67  69
ENDBRANCH  64  65
ENDBRANCH  57  58
BRANCH  57  97
ATOM     97  C   UNL     1      -4.276   1.038 138.819  0.00  0.00    +0.000 C 
BRANCH  97  98
ATOM     98  S   UNL     1      -4.096  -0.386 139.913  0.00  0.00    +0.000 S 
ATOM     99  H   UNL     1      -5.390  -0.752 139.839  0.00  0.00    +0.000 HD
ENDBRANCH  97  98
ENDBRANCH  57  97
ENDBRANCH  55  57
ENDBRANCH   1  53
BRANCH   1 100
ATOM    100  C   UNL     1      -4.236   6.011 138.173  0.00  0.00    +0.000 C 
BRANCH 100 101
ATOM    101  C   UNL     1      -5.542   6.701 137.849  0.00  0.00    +0.000 C 
ATOM    102  N   UNL     1      -6.018   7.493 138.792  0.00  0.00    +0.000 N 
ATOM    103  O   UNL     1      -6.247   6.486 136.824  0.00  0.00    +0.000 OA
ATOM    104  H   UNL     1      -5.281   7.570 139.448  0.00  0.00    +0.000 HD
ATOM    105  H   UNL     1      -6.392   8.400 138.512  0.00  0.00    +0.000 HD
ENDBRANCH 100 101
ENDBRANCH   1 100
TORSDOF 39
ENDMDL
MODEL 2
REMARK VINA RESULT:      -8.4      1.890      2.532
REMARK  Name = CHEMBL3142789
REMARK  42 active torsions:
REMARK  status: ('A' for Active; 'I' for Inactive)
REMARK    1  A    between atoms: C_1  and  C_2
REMARK    2  A    between atoms: C_2  and  C_3
REMARK    3  A    between atoms: C_3  and  C_4
REMARK    4  A    between atoms: C_3  and  C_5
REMARK    5  A    between atoms: C_5  and  N_6
REMARK    6  A    between atoms: C_5  and  C_34
REMARK    7  A    between atoms: C_7  and  C_9
REMARK    8  A    between atoms: C_9  and  C_10
REMARK    9  A    between atoms: C_9  and  N_18
REMARK   10  A    between atoms: C_10  and  C_11
REMARK   11  A    between atoms: C_14  and  O_15
REMARK   12  A    between atoms: C_19  and  C_21
REMARK   13  A    between atoms: C_21  and  C_22
REMARK   14  A    between atoms: C_22  and  S_23
REMARK   15  A    between atoms: S_23  and  C_24
REMARK   16  A    between atoms: C_24  and  C_25
REMARK   17  A    between atoms: C_25  and  C_26
REMARK   18  A    between atoms: N_36  and  C_37
REMARK   19  A    between atoms: C_37  and  C_38
REMARK   20  A    between atoms: C_37  and  C_85
REMARK   21  A    between atoms: N_40  and  C_41
REMARK   22  A    between atoms: C_41  and  C_42
REMARK   23  A    between atoms: C_41  and  C_46
REMARK   24  A    between atoms: C_42  and  C_43
REMARK   25  A    between atoms: N_48  and  C_49
REMARK   26  A    between atoms: C_49  and  C_50
REMARK   27  A    between atoms: C_49  and  C_52
REMARK   28  A    between atoms: C_50  and  S_51
REMARK   29  A    between atoms: C_58  and  C_59
REMARK   30  A    between atoms: N_61  and  C_62
REMARK   31  A    between atoms: C_62  and  C_63
REMARK   32  A    between atoms: C_62  and  C_67
REMARK   33  A    between atoms: C_63  and  C_64
REMARK   34  A    between atoms: C_64  and  C_65
REMARK   35  A    between atoms: C_65  and  N_66
REMARK   36  A    between atoms: N_69  and  C_70
REMARK   37  A    between atoms: C_70  and  C_71
REMARK   38  A    between atoms: C_70  and  C_82
REMARK   39  A    between atoms: C_71  and  C_72
REMARK   40  A    between atoms: C_75  and  N_76
REMARK   41  A    between atoms: C_85  and  C_86
REMARK   42  A    between atoms: C_85  and  O_87
REMARK                            x       y       z     vdW  Elec       q    Type
REMARK                         _______ _______ _______ _____ _____    ______ ____
ROOT
ATOM      1  C   UNL     1      -4.834   6.310 137.339  0.00  0.00    +0.000 C 
ENDROOT
BRANCH   1   4
ATOM      2  C   UNL     1      -3.543   8.038 135.503  0.00  0.00    +0.000 C 
ATOM      3  O   UNL     1      -3.414   9.079 136.169  0.00  0.00    +0.000 OA
ATOM      4  N   UNL     1      -4.498   7.043 135.907  0.00  0.00    +0.000 N 
ATOM      5  H   UNL     1      -4.821   6.424 135.181  0.00  0.00    +0.000 HD
BRANCH   2   6
ATOM      6  C   UNL     1      -2.353   7.764 134.177  0.00  0.00    +0.000 C 
BRANCH   6   9
ATOM      7  C   UNL     1      -3.388   7.865 131.912  0.00  0.00    +0.000 C 
ATOM      8  O   UNL     1      -3.306   8.629 130.944  0.00  0.00    +0.000 OA
ATOM      9  N   UNL     1      -2.983   8.486 133.071  0.00  0.00    +0.000 N 
ATOM     10  H   UNL     1      -2.791   9.483 132.985  0.00  0.00    +0.000 HD
BRANCH   7  11
ATOM     11  C   UNL     1      -3.945   6.218 131.788  0.00  0.00    +0.000 C 
BRANCH  11  12
ATOM     12  N   UNL     1      -5.260   6.227 131.008  0.00  0.00    +0.000 N 
ATOM     13  C   UNL     1      -6.608   6.206 131.431  0.00  0.00    +0.000 C 
ATOM     14  O   UNL     1      -6.936   6.382 132.610  0.00  0.00    +0.000 OA
ATOM     15  H   UNL     1      -5.068   6.683 130.136  0.00  0.00    +0.000 HD
BRANCH  13  16
ATOM     16  C   UNL     1      -7.794   6.043 130.389  0.00  0.00    +0.000 C 
BRANCH  16  17
ATOM     17  N   UNL     1      -8.021   4.597 130.069  0.00  0.00    +0.000 N 
ATOM     18  C   UNL     1      -8.242   4.253 128.754  0.00  0.00    +0.000 C 
ATOM     19  O   UNL     1      -8.526   5.130 127.941  0.00  0.00    +0.000 OA
ATOM     20  H   UNL     1      -7.673   3.891 130.703  0.00  0.00    +0.000 HD
BRANCH  18  21
ATOM     21  C   UNL     1      -8.128   2.757 128.380  0.00  0.00    +0.000 C 
BRANCH  21  22
ATOM     22  C   UNL     1      -6.671   2.313 128.046  0.00  0.00    +0.000 C 
ATOM     23  C   UNL     1      -5.806   3.570 127.736  0.00  0.00    +0.000 C 
ATOM     24  C   UNL     1      -4.357   3.232 127.500  0.00  0.00    +0.000 C 
ATOM     25  C   UNL     1      -3.755   2.391 128.645  0.00  0.00    +0.000 C 
ATOM     26  C   UNL     1      -4.579   1.219 129.144  0.00  0.00    +0.000 C 
ATOM     27  C   UNL     1      -6.048   1.578 129.271  0.00  0.00    +0.000 C 
BRANCH  22  28
ATOM     28  S   UNL     1      -6.935   1.348 126.447  0.00  0.00    +0.000 S 
BRANCH  28  29
ATOM     29  C   UNL     1      -8.262   2.190 125.657  0.00  0.00    +0.000 C 
BRANCH  29  30
ATOM     30  C   UNL     1      -7.870   3.236 124.714  0.00  0.00    +0.000 C 
BRANCH  30  31
ATOM     31  C   UNL     1      -8.455   2.950 123.332  0.00  0.00    +0.000 C 
ATOM     32  N   UNL     1      -7.923   3.484 122.225  0.00  0.00    +0.000 N 
ATOM     33  O   UNL     1      -9.457   2.251 123.202  0.00  0.00    +0.000 OA
ATOM     34  H   UNL     1      -7.287   4.254 122.404  0.00  0.00    +0.000 HD
ATOM     35  H   UNL     1      -8.651   3.818 121.606  0.00  0.00    +0.000 HD
ENDBRANCH  30  31
ENDBRANCH  29  30
ENDBRANCH  28  29
ENDBRANCH  22  28
ENDBRANCH  21  22
ENDBRANCH  18  21
ENDBRANCH  16  17
BRANCH  16  36
ATOM     36  C   UNL     1      -8.992   6.625 131.132  0.00  0.00    +0.000 C 
BRANCH  36  37
ATOM     37  C   UNL     1     -10.173   6.930 130.235  0.00  0.00    +0.000 A 
ATOM     38  C   UNL     1     -11.390   6.224 130.316  0.00  0.00    +0.000 A 
ATOM     39  C   UNL     1     -12.361   6.361 129.329  0.00  0.00    +0.000 A 
ATOM     40  C   UNL     1     -12.186   7.298 128.326  0.00  0.00    +0.000 A 
ATOM     41  C   UNL     1     -11.058   8.105 128.315  0.00  0.00    +0.000 A 
ATOM     42  C   UNL     1     -10.037   7.904 129.246  0.00  0.00    +0.000 A 
BRANCH  40  43
ATOM     43  O   UNL     1     -13.106   7.448 127.331  0.00  0.00    +0.000 OA
ATOM     44  H   UNL     1     -12.618   7.579 126.497  0.00  0.00    +0.000 HD
ENDBRANCH  40  43
ENDBRANCH  36  37
ENDBRANCH  16  36
ENDBRANCH  13  16
ENDBRANCH  11  12
BRANCH  11  45
ATOM     45  C   UNL     1      -3.019   5.140 131.063  0.00  0.00    +0.000 C 
ATOM     46  C   UNL     1      -1.978   4.435 131.934  0.00  0.00    +0.000 C 
BRANCH  45  48
ATOM     47  C   UNL     1      -2.484   6.322 128.494  0.00  0.00    +0.000 C 
ATOM     48  C   UNL     1      -2.307   5.453 129.752  0.00  0.00    +0.000 C 
ENDBRANCH  45  48
ENDBRANCH  11  45
ENDBRANCH   7  11
ENDBRANCH   6   9
BRANCH   6  49
ATOM     49  C   UNL     1      -0.780   8.117 133.857  0.00  0.00    +0.000 C 
ATOM     50  C   UNL     1       0.007   7.338 132.808  0.00  0.00    +0.000 C 
BRANCH  49  51
ATOM     51  O   UNL     1      -0.714   9.460 133.359  0.00  0.00    +0.000 OA
ATOM     52  H   UNL     1      -1.630   9.682 133.132  0.00  0.00    +0.000 HD
ENDBRANCH  49  51
ENDBRANCH   6  49
ENDBRANCH   2   6
ENDBRANCH   1   4
BRANCH   1  53
ATOM     53  C   UNL     1      -3.979   4.939 137.439  0.00  0.00    +0.000 C 
ATOM     54  O   UNL     1      -2.833   5.016 137.886  0.00  0.00    +0.000 OA
ATOM     55  N   UNL     1      -4.580   3.704 137.208  0.00  0.00    +0.000 N 
ATOM     56  H   UNL     1      -5.329   3.714 136.556  0.00  0.00    +0.000 HD
BRANCH  55  57
ATOM     57  C   UNL     1      -3.863   2.382 137.145  0.00  0.00    +0.000 C 
BRANCH  57  58
ATOM     58  C   UNL     1      -4.211   1.302 135.963  0.00  0.00    +0.000 C 
ATOM     59  O   UNL     1      -3.738   0.169 135.886  0.00  0.00    +0.000 OA
ATOM     60  N   UNL     1      -4.922   1.767 134.882  0.00  0.00    +0.000 N 
ATOM     61  C   UNL     1      -4.197   2.482 133.852  0.00  0.00    +0.000 C 
ATOM     62  C   UNL     1      -5.326   3.156 133.162  0.00  0.00    +0.000 C 
ATOM     63  C   UNL     1      -6.195   1.941 133.006  0.00  0.00    +0.000 C 
ATOM     64  C   UNL     1      -6.011   1.001 134.202  0.00  0.00    +0.000 C 
BRANCH  64  65
ATOM     65  C   UNL     1      -5.739  -0.445 133.580  0.00  0.00    +0.000 C 
ATOM     66  O   UNL     1      -5.036  -0.560 132.574  0.00  0.00    +0.000 OA
ATOM     67  N   UNL     1      -6.387  -1.570 134.146  0.00  0.00    +0.000 N 
ATOM     68  H   UNL     1      -7.225  -1.429 134.695  0.00  0.00    +0.000 HD
BRANCH  67  69
ATOM     69  C   UNL     1      -6.216  -3.007 133.680  0.00  0.00    +0.000 C 
BRANCH  69  70
ATOM     70  C   UNL     1      -6.274  -3.241 132.152  0.00  0.00    +0.000 C 
ATOM     71  O   UNL     1      -7.353  -3.301 131.570  0.00  0.00    +0.000 OA
ATOM     72  N   UNL     1      -5.047  -3.404 131.511  0.00  0.00    +0.000 N 
ATOM     73  H   UNL     1      -4.233  -3.624 132.064  0.00  0.00    +0.000 HD
BRANCH  72  74
ATOM     74  C   UNL     1      -4.906  -3.331 130.036  0.00  0.00    +0.000 C 
BRANCH  74  75
ATOM     75  C   UNL     1      -3.432  -3.206 129.562  0.00  0.00    +0.000 C 
ATOM     76  N   UNL     1      -2.976  -4.053 128.588  0.00  0.00    +0.000 N 
ATOM     77  O   UNL     1      -2.643  -2.401 130.056  0.00  0.00    +0.000 OA
ATOM     78  H   UNL     1      -3.513  -4.735 128.085  0.00  0.00    +0.000 HD
ATOM     79  H   UNL     1      -2.011  -3.940 128.298  0.00  0.00    +0.000 HD
ENDBRANCH  74  75
BRANCH  74  80
ATOM     80  C   UNL     1      -5.698  -2.138 129.400  0.00  0.00    +0.000 C 
BRANCH  80  81
ATOM     81  C   UNL     1      -6.557  -2.517 128.219  0.00  0.00    +0.000 A 
ATOM     82  C   UNL     1      -7.843  -3.030 128.281  0.00  0.00    +0.000 A 
ATOM     83  C   UNL     1      -8.637  -3.126 127.114  0.00  0.00    +0.000 A 
ATOM     84  C   UNL     1      -8.185  -2.733 125.849  0.00  0.00    +0.000 A 
ATOM     85  C   UNL     1      -6.821  -2.470 125.802  0.00  0.00    +0.000 A 
ATOM     86  I   UNL     1      -5.609  -2.776 124.208  0.00  0.00    +0.000 I 
ATOM     87  C   UNL     1      -6.037  -2.345 126.955  0.00  0.00    +0.000 A 
BRANCH  84  88
ATOM     88  N   UNL     1      -9.123  -2.880 124.805  0.00  0.00    +0.000 NA
ATOM     89  N   UNL     1      -9.376  -1.951 124.018  0.00  0.00    +0.000 NA
ATOM     90  N   UNL     1      -9.688  -1.195 123.230  0.00  0.00    +0.000 NA
ENDBRANCH  84  88
ENDBRANCH  80  81
ENDBRANCH  74  80
ENDBRANCH  72  74
ENDBRANCH  69  70
BRANCH  69  91
ATOM     91  C   UNL     1      -7.406  -3.842 134.043  0.00  0.00    +0.000 C 
BRANCH  91  92
ATOM     92  C   UNL     1      -6.910  -5.003 134.787  0.00  0.00    +0.000 C 
BRANCH  92  93
ATOM     93  C   UNL     1      -7.941  -5.333 135.762  0.00  0.00    +0.000 C 
BRANCH  93  94
ATOM     94  N   UNL     1      -9.009  -4.555 135.233  0.00  0.00    +0.000 NA
ATOM     95  H   UNL     1      -8.800  -3.575 135.059  0.00  0.00    +0.000 HD
ATOM     96  H   UNL     1      -9.692  -4.630 135.948  0.00  0.00    +0.000 HD
ENDBRANCH  93  94
ENDBRANCH  92  93
ENDBRANCH  91  92
ENDBRANCH  69  91
ENDBRANCH  67  69
ENDBRANCH  64  65
ENDBRANCH  57  58
BRANCH  57  97
ATOM     97  C   UNL     1      -4.150   1.606 138.423  0.00  0.00    +0.000 C 
BRANCH  97  98
ATOM     98  S   UNL     1      -3.425   2.079 140.007  0.00  0.00    +0.000 S 
ATOM     99  H   UNL     1      -3.046   0.829 140.337  0.00  0.00    +0.000 HD
ENDBRANCH  97  98
ENDBRANCH  57  97
ENDBRANCH  55  57
ENDBRANCH   1  53
BRANCH   1 100
ATOM    100  C   UNL     1      -6.308   6.058 137.563  0.00  0.00    +0.000 C 
BRANCH 100 101
ATOM    101  C   UNL     1      -7.239   5.830 136.393  0.00  0.00    +0.000 C 
ATOM    102  N   UNL     1      -8.325   6.581 136.374  0.00  0.00    +0.000 N 
ATOM    103  O   UNL     1      -7.116   4.917 135.529  0.00  0.00    +0.000 OA
ATOM    104  H   UNL     1      -8.173   7.258 137.079  0.00  0.00    +0.000 HD
ATOM    105  H   UNL     1      -8.603   6.995 135.484  0.00  0.00    +0.000 HD
ENDBRANCH 100 101
ENDBRANCH   1 100
TORSDOF 39
ENDMDL
MODEL 3
REMARK VINA RESULT:      -8.1      2.069      3.387
REMARK  Name = CHEMBL3142789
REMARK  42 active torsions:
REMARK  status: ('A' for Active; 'I' for Inactive)
REMARK    1  A    between atoms: C_1  and  C_2
REMARK    2  A    between atoms: C_2  and  C_3
REMARK    3  A    between atoms: C_3  and  C_4
REMARK    4  A    between atoms: C_3  and  C_5
REMARK    5  A    between atoms: C_5  and  N_6
REMARK    6  A    between atoms: C_5  and  C_34
REMARK    7  A    between atoms: C_7  and  C_9
REMARK    8  A    between atoms: C_9  and  C_10
REMARK    9  A    between atoms: C_9  and  N_18
REMARK   10  A    between atoms: C_10  and  C_11
REMARK   11  A    between atoms: C_14  and  O_15
REMARK   12  A    between atoms: C_19  and  C_21
REMARK   13  A    between atoms: C_21  and  C_22
REMARK   14  A    between atoms: C_22  and  S_23
REMARK   15  A    between atoms: S_23  and  C_24
REMARK   16  A    between atoms: C_24  and  C_25
REMARK   17  A    between atoms: C_25  and  C_26
REMARK   18  A    between atoms: N_36  and  C_37
REMARK   19  A    between atoms: C_37  and  C_38
REMARK   20  A    between atoms: C_37  and  C_85
REMARK   21  A    between atoms: N_40  and  C_41
REMARK   22  A    between atoms: C_41  and  C_42
REMARK   23  A    between atoms: C_41  and  C_46
REMARK   24  A    between atoms: C_42  and  C_43
REMARK   25  A    between atoms: N_48  and  C_49
REMARK   26  A    between atoms: C_49  and  C_50
REMARK   27  A    between atoms: C_49  and  C_52
REMARK   28  A    between atoms: C_50  and  S_51
REMARK   29  A    between atoms: C_58  and  C_59
REMARK   30  A    between atoms: N_61  and  C_62
REMARK   31  A    between atoms: C_62  and  C_63
REMARK   32  A    between atoms: C_62  and  C_67
REMARK   33  A    between atoms: C_63  and  C_64
REMARK   34  A    between atoms: C_64  and  C_65
REMARK   35  A    between atoms: C_65  and  N_66
REMARK   36  A    between atoms: N_69  and  C_70
REMARK   37  A    between atoms: C_70  and  C_71
REMARK   38  A    between atoms: C_70  and  C_82
REMARK   39  A    between atoms: C_71  and  C_72
REMARK   40  A    between atoms: C_75  and  N_76
REMARK   41  A    between atoms: C_85  and  C_86
REMARK   42  A    between atoms: C_85  and  O_87
REMARK                            x       y       z     vdW  Elec       q    Type
REMARK                         _______ _______ _______ _____ _____    ______ ____
ROOT
ATOM      1  C   UNL     1      -4.904   6.080 137.502  0.00  0.00    +0.000 C 
ENDROOT
BRANCH   1   4
ATOM      2  C   UNL     1      -3.591   8.107 136.021  0.00  0.00    +0.000 C 
ATOM      3  O   UNL     1      -3.850   9.125 136.684  0.00  0.00    +0.000 OA
ATOM      4  N   UNL     1      -4.387   6.921 136.189  0.00  0.00    +0.000 N 
ATOM      5  H   UNL     1      -4.386   6.278 135.414  0.00  0.00    +0.000 HD
BRANCH   2   6
ATOM      6  C   UNL     1      -2.082   8.134 135.035  0.00  0.00    +0.000 C 
BRANCH   6   9
ATOM      7  C   UNL     1      -2.812   8.176 132.653  0.00  0.00    +0.000 C 
ATOM      8  O   UNL     1      -2.577   8.897 131.677  0.00  0.00    +0.000 OA
ATOM      9  N   UNL     1      -2.537   8.830 133.831  0.00  0.00    +0.000 N 
ATOM     10  H   UNL     1      -2.298   9.817 133.735  0.00  0.00    +0.000 HD
BRANCH   7  11
ATOM     11  C   UNL     1      -3.409   6.544 132.518  0.00  0.00    +0.000 C 
BRANCH  11  12
ATOM     12  N   UNL     1      -4.688   6.583 131.681  0.00  0.00    +0.000 N 
ATOM     13  C   UNL     1      -6.030   6.270 131.993  0.00  0.00    +0.000 C 
ATOM     14  O   UNL     1      -6.414   6.081 133.153  0.00  0.00    +0.000 OA
ATOM     15  H   UNL     1      -4.540   7.275 130.971  0.00  0.00    +0.000 HD
BRANCH  13  16
ATOM     16  C   UNL     1      -7.148   6.231 130.868  0.00  0.00    +0.000 C 
BRANCH  16  17
ATOM     17  N   UNL     1      -7.281   4.850 130.303  0.00  0.00    +0.000 N 
ATOM     18  C   UNL     1      -6.286   4.395 129.466  0.00  0.00    +0.000 C 
ATOM     19  O   UNL     1      -5.488   5.197 128.986  0.00  0.00    +0.000 OA
ATOM     20  H   UNL     1      -7.856   4.172 130.785  0.00  0.00    +0.000 HD
BRANCH  18  21
ATOM     21  C   UNL     1      -6.243   2.877 129.170  0.00  0.00    +0.000 C 
BRANCH  21  22
ATOM     22  C   UNL     1      -6.734   2.513 127.736  0.00  0.00    +0.000 C 
ATOM     23  C   UNL     1      -6.982   3.821 126.927  0.00  0.00    +0.000 C 
ATOM     24  C   UNL     1      -7.364   3.552 125.495  0.00  0.00    +0.000 C 
ATOM     25  C   UNL     1      -6.361   2.621 124.783  0.00  0.00    +0.000 C 
ATOM     26  C   UNL     1      -5.920   1.380 125.537  0.00  0.00    +0.000 C 
ATOM     27  C   UNL     1      -5.643   1.679 126.999  0.00  0.00    +0.000 C 
BRANCH  22  28
ATOM     28  S   UNL     1      -8.397   1.705 128.107  0.00  0.00    +0.000 S 
BRANCH  28  29
ATOM     29  C   UNL     1      -8.456   1.641 129.863  0.00  0.00    +0.000 C 
BRANCH  29  30
ATOM     30  C   UNL     1      -9.605   2.303 130.479  0.00  0.00    +0.000 C 
BRANCH  30  31
ATOM     31  C   UNL     1      -9.789   1.818 131.915  0.00  0.00    +0.000 C 
ATOM     32  N   UNL     1      -9.737   2.667 132.951  0.00  0.00    +0.000 N 
ATOM     33  O   UNL     1      -9.952   0.626 132.164  0.00  0.00    +0.000 OA
ATOM     34  H   UNL     1      -9.334   3.569 132.722  0.00  0.00    +0.000 HD
ATOM     35  H   UNL     1      -9.199   2.268 133.710  0.00  0.00    +0.000 HD
ENDBRANCH  30  31
ENDBRANCH  29  30
ENDBRANCH  28  29
ENDBRANCH  22  28
ENDBRANCH  21  22
ENDBRANCH  18  21
ENDBRANCH  16  17
BRANCH  16  36
ATOM     36  C   UNL     1      -8.413   6.629 131.621  0.00  0.00    +0.000 C 
BRANCH  36  37
ATOM     37  C   UNL     1      -9.644   6.708 130.742  0.00  0.00    +0.000 A 
ATOM     38  C   UNL     1     -10.751   5.852 130.906  0.00  0.00    +0.000 A 
ATOM     39  C   UNL     1     -11.751   5.787 129.942  0.00  0.00    +0.000 A 
ATOM     40  C   UNL     1     -11.727   6.667 128.874  0.00  0.00    +0.000 A 
ATOM     41  C   UNL     1     -10.721   7.617 128.776  0.00  0.00    +0.000 A 
ATOM     42  C   UNL     1      -9.663   7.621 129.687  0.00  0.00    +0.000 A 
BRANCH  40  43
ATOM     43  O   UNL     1     -12.680   6.622 127.900  0.00  0.00    +0.000 OA
ATOM     44  H   UNL     1     -13.471   6.201 128.283  0.00  0.00    +0.000 HD
ENDBRANCH  40  43
ENDBRANCH  36  37
ENDBRANCH  16  36
ENDBRANCH  13  16
ENDBRANCH  11  12
BRANCH  11  45
ATOM     45  C   UNL     1      -2.483   5.434 131.842  0.00  0.00    +0.000 C 
ATOM     46  C   UNL     1      -1.128   5.178 132.503  0.00  0.00    +0.000 C 
BRANCH  45  48
ATOM     47  C   UNL     1      -2.163   6.400 129.150  0.00  0.00    +0.000 C 
ATOM     48  C   UNL     1      -2.211   5.428 130.342  0.00  0.00    +0.000 C 
ENDBRANCH  45  48
ENDBRANCH  11  45
ENDBRANCH   7  11
ENDBRANCH   6   9
BRANCH   6  49
ATOM     49  C   UNL     1      -0.566   8.761 135.143  0.00  0.00    +0.000 C 
ATOM     50  C   UNL     1      -0.105   9.875 134.208  0.00  0.00    +0.000 C 
BRANCH  49  51
ATOM     51  O   UNL     1      -0.420   9.362 136.436  0.00  0.00    +0.000 OA
ATOM     52  H   UNL     1      -0.295   8.614 137.040  0.00  0.00    +0.000 HD
ENDBRANCH  49  51
ENDBRANCH   6  49
ENDBRANCH   2   6
ENDBRANCH   1   4
BRANCH   1  53
ATOM     53  C   UNL     1      -4.045   4.714 137.620  0.00  0.00    +0.000 C 
ATOM     54  O   UNL     1      -2.912   4.795 138.097  0.00  0.00    +0.000 OA
ATOM     55  N   UNL     1      -4.633   3.476 137.370  0.00  0.00    +0.000 N 
ATOM     56  H   UNL     1      -5.365   3.485 136.698  0.00  0.00    +0.000 HD
BRANCH  55  57
ATOM     57  C   UNL     1      -3.908   2.158 137.321  0.00  0.00    +0.000 C 
BRANCH  57  58
ATOM     58  C   UNL     1      -4.174   1.106 136.093  0.00  0.00    +0.000 C 
ATOM     59  O   UNL     1      -3.792  -0.063 136.075  0.00  0.00    +0.000 OA
ATOM     60  N   UNL     1      -4.684   1.625 134.927  0.00  0.00    +0.000 N 
ATOM     61  C   UNL     1      -3.762   2.272 134.015  0.00  0.00    +0.000 C 
ATOM     62  C   UNL     1      -4.722   3.037 133.177  0.00  0.00    +0.000 C 
ATOM     63  C   UNL     1      -5.658   1.898 132.891  0.00  0.00    +0.000 C 
ATOM     64  C   UNL     1      -5.726   0.950 134.093  0.00  0.00    +0.000 C 
BRANCH  64  65
ATOM     65  C   UNL     1      -5.490  -0.516 133.504  0.00  0.00    +0.000 C 
ATOM     66  O   UNL     1      -4.629  -0.702 132.642  0.00  0.00    +0.000 OA
ATOM     67  N   UNL     1      -6.341  -1.569 133.921  0.00  0.00    +0.000 N 
ATOM     68  H   UNL     1      -7.247  -1.343 134.309  0.00  0.00    +0.000 HD
BRANCH  67  69
ATOM     69  C   UNL     1      -6.232  -3.015 133.467  0.00  0.00    +0.000 C 
BRANCH  69  70
ATOM     70  C   UNL     1      -6.301  -3.260 131.941  0.00  0.00    +0.000 C 
ATOM     71  O   UNL     1      -7.384  -3.345 131.370  0.00  0.00    +0.000 OA
ATOM     72  N   UNL     1      -5.077  -3.403 131.289  0.00  0.00    +0.000 N 
ATOM     73  H   UNL     1      -4.254  -3.603 131.834  0.00  0.00    +0.000 HD
BRANCH  72  74
ATOM     74  C   UNL     1      -4.953  -3.336 129.812  0.00  0.00    +0.000 C 
BRANCH  74  75
ATOM     75  C   UNL     1      -3.480  -3.294 129.318  0.00  0.00    +0.000 C 
ATOM     76  N   UNL     1      -2.671  -2.273 129.735  0.00  0.00    +0.000 N 
ATOM     77  O   UNL     1      -3.022  -4.123 128.533  0.00  0.00    +0.000 OA
ATOM     78  H   UNL     1      -2.904  -1.548 130.389  0.00  0.00    +0.000 HD
ATOM     79  H   UNL     1      -1.714  -2.279 129.398  0.00  0.00    +0.000 HD
ENDBRANCH  74  75
BRANCH  74  80
ATOM     80  C   UNL     1      -5.685  -2.100 129.187  0.00  0.00    +0.000 C 
BRANCH  80  81
ATOM     81  C   UNL     1      -6.586  -2.429 128.024  0.00  0.00    +0.000 A 
ATOM     82  C   UNL     1      -7.878  -2.925 128.111  0.00  0.00    +0.000 A 
ATOM     83  C   UNL     1      -8.710  -2.973 126.968  0.00  0.00    +0.000 A 
ATOM     84  C   UNL     1      -8.292  -2.548 125.701  0.00  0.00    +0.000 A 
ATOM     85  C   UNL     1      -6.926  -2.304 125.619  0.00  0.00    +0.000 A 
ATOM     86  I   UNL     1      -5.770  -2.579 123.977  0.00  0.00    +0.000 I 
ATOM     87  C   UNL     1      -6.104  -2.226 126.749  0.00  0.00    +0.000 A 
BRANCH  84  88
ATOM     88  N   UNL     1      -9.265  -2.649 124.684  0.00  0.00    +0.000 NA
ATOM     89  N   UNL     1      -9.449  -1.734 123.863  0.00  0.00    +0.000 NA
ATOM     90  N   UNL     1      -9.707  -0.985 123.049  0.00  0.00    +0.000 NA
ENDBRANCH  84  88
ENDBRANCH  80  81
ENDBRANCH  74  80
ENDBRANCH  72  74
ENDBRANCH  69  70
BRANCH  69  91
ATOM     91  C   UNL     1      -7.457  -3.795 133.837  0.00  0.00    +0.000 C 
BRANCH  91  92
ATOM     92  C   UNL     1      -8.220  -2.978 134.785  0.00  0.00    +0.000 C 
BRANCH  92  93
ATOM     93  C   UNL     1      -8.381  -3.790 135.984  0.00  0.00    +0.000 C 
BRANCH  93  94
ATOM     94  N   UNL     1      -9.086  -4.890 135.419  0.00  0.00    +0.000 NA
ATOM     95  H   UNL     1      -8.713  -5.812 135.634  0.00  0.00    +0.000 HD
ATOM     96  H   UNL     1      -9.000  -4.713 134.447  0.00  0.00    +0.000 HD
ENDBRANCH  93  94
ENDBRANCH  92  93
ENDBRANCH  91  92
ENDBRANCH  69  91
ENDBRANCH  67  69
ENDBRANCH  64  65
ENDBRANCH  57  58
BRANCH  57  97
ATOM     97  C   UNL     1      -4.273   1.350 138.559  0.00  0.00    +0.000 C 
BRANCH  97  98
ATOM     98  S   UNL     1      -4.342   2.100 140.199  0.00  0.00    +0.000 S 
ATOM     99  H   UNL     1      -4.790   3.293 139.761  0.00  0.00    +0.000 HD
ENDBRANCH  97  98
ENDBRANCH  57  97
ENDBRANCH  55  57
ENDBRANCH   1  53
BRANCH   1 100
ATOM    100  C   UNL     1      -6.390   5.799 137.500  0.00  0.00    +0.000 C 
BRANCH 100 101
ATOM    101  C   UNL     1      -7.389   6.930 137.396  0.00  0.00    +0.000 C 
ATOM    102  N   UNL     1      -8.627   6.572 137.111  0.00  0.00    +0.000 N 
ATOM    103  O   UNL     1      -7.106   8.160 137.440  0.00  0.00    +0.000 OA
ATOM    104  H   UNL     1      -8.629   5.587 137.202  0.00  0.00    +0.000 HD
ATOM    105  H   UNL     1      -9.385   7.016 137.631  0.00  0.00    +0.000 HD
ENDBRANCH 100 101
ENDBRANCH   1 100
TORSDOF 39
ENDMDL
MODEL 4
REMARK VINA RESULT:      -8.1      3.970     11.087
REMARK  Name = CHEMBL3142789
REMARK  42 active torsions:
REMARK  status: ('A' for Active; 'I' for Inactive)
REMARK    1  A    between atoms: C_1  and  C_2
REMARK    2  A    between atoms: C_2  and  C_3
REMARK    3  A    between atoms: C_3  and  C_4
REMARK    4  A    between atoms: C_3  and  C_5
REMARK    5  A    between atoms: C_5  and  N_6
REMARK    6  A    between atoms: C_5  and  C_34
REMARK    7  A    between atoms: C_7  and  C_9
REMARK    8  A    between atoms: C_9  and  C_10
REMARK    9  A    between atoms: C_9  and  N_18
REMARK   10  A    between atoms: C_10  and  C_11
REMARK   11  A    between atoms: C_14  and  O_15
REMARK   12  A    between atoms: C_19  and  C_21
REMARK   13  A    between atoms: C_21  and  C_22
REMARK   14  A    between atoms: C_22  and  S_23
REMARK   15  A    between atoms: S_23  and  C_24
REMARK   16  A    between atoms: C_24  and  C_25
REMARK   17  A    between atoms: C_25  and  C_26
REMARK   18  A    between atoms: N_36  and  C_37
REMARK   19  A    between atoms: C_37  and  C_38
REMARK   20  A    between atoms: C_37  and  C_85
REMARK   21  A    between atoms: N_40  and  C_41
REMARK   22  A    between atoms: C_41  and  C_42
REMARK   23  A    between atoms: C_41  and  C_46
REMARK   24  A    between atoms: C_42  and  C_43
REMARK   25  A    between atoms: N_48  and  C_49
REMARK   26  A    between atoms: C_49  and  C_50
REMARK   27  A    between atoms: C_49  and  C_52
REMARK   28  A    between atoms: C_50  and  S_51
REMARK   29  A    between atoms: C_58  and  C_59
REMARK   30  A    between atoms: N_61  and  C_62
REMARK   31  A    between atoms: C_62  and  C_63
REMARK   32  A    between atoms: C_62  and  C_67
REMARK   33  A    between atoms: C_63  and  C_64
REMARK   34  A    between atoms: C_64  and  C_65
REMARK   35  A    between atoms: C_65  and  N_66
REMARK   36  A    between atoms: N_69  and  C_70
REMARK   37  A    between atoms: C_70  and  C_71
REMARK   38  A    between atoms: C_70  and  C_82
REMARK   39  A    between atoms: C_71  and  C_72
REMARK   40  A    between atoms: C_75  and  N_76
REMARK   41  A    between atoms: C_85  and  C_86
REMARK   42  A    between atoms: C_85  and  O_87
REMARK                            x       y       z     vdW  Elec       q    Type
REMARK                         _______ _______ _______ _____ _____    ______ ____
ROOT
ATOM      1  C   UNL     1      -8.251   4.532 132.086  0.00  0.00    +0.000 C 
ENDROOT
BRANCH   1   4
ATOM      2  C   UNL     1      -8.995   2.061 130.915  0.00  0.00    +0.000 C 
ATOM      3  O   UNL     1      -9.302   2.401 129.761  0.00  0.00    +0.000 OA
ATOM      4  N   UNL     1      -8.942   3.046 131.962  0.00  0.00    +0.000 N 
ATOM      5  H   UNL     1      -9.049   2.696 132.900  0.00  0.00    +0.000 HD
BRANCH   2   6
ATOM      6  C   UNL     1      -8.426   0.366 131.145  0.00  0.00    +0.000 C 
BRANCH   6   9
ATOM      7  C   UNL     1      -6.669  -0.072 129.433  0.00  0.00    +0.000 C 
ATOM      8  O   UNL     1      -5.490  -0.445 129.463  0.00  0.00    +0.000 OA
ATOM      9  N   UNL     1      -7.053   0.453 130.645  0.00  0.00    +0.000 N 
ATOM     10  H   UNL     1      -6.306   0.561 131.330  0.00  0.00    +0.000 HD
BRANCH   7  11
ATOM     11  C   UNL     1      -7.684  -0.215 128.024  0.00  0.00    +0.000 C 
BRANCH  11  12
ATOM     12  N   UNL     1      -7.237   0.847 127.019  0.00  0.00    +0.000 N 
ATOM     13  C   UNL     1      -7.941   1.554 126.017  0.00  0.00    +0.000 C 
ATOM     14  O   UNL     1      -9.174   1.539 125.937  0.00  0.00    +0.000 OA
ATOM     15  H   UNL     1      -6.450   1.312 127.430  0.00  0.00    +0.000 HD
BRANCH  13  16
ATOM     16  C   UNL     1      -7.181   2.488 124.982  0.00  0.00    +0.000 C 
BRANCH  16  17
ATOM     17  N   UNL     1      -5.727   2.587 125.329  0.00  0.00    +0.000 N 
ATOM     18  C   UNL     1      -5.169   3.843 125.420  0.00  0.00    +0.000 C 
ATOM     19  O   UNL     1      -5.772   4.807 124.953  0.00  0.00    +0.000 OA
ATOM     20  H   UNL     1      -5.283   1.823 125.820  0.00  0.00    +0.000 HD
BRANCH  18  21
ATOM     21  C   UNL     1      -3.788   3.961 126.108  0.00  0.00    +0.000 C 
BRANCH  21  22
ATOM     22  C   UNL     1      -3.878   4.057 127.661  0.00  0.00    +0.000 C 
ATOM     23  C   UNL     1      -5.256   4.661 128.063  0.00  0.00    +0.000 C 
ATOM     24  C   UNL     1      -5.461   4.693 129.555  0.00  0.00    +0.000 C 
ATOM     25  C   UNL     1      -5.225   3.318 130.212  0.00  0.00    +0.000 C 
ATOM     26  C   UNL     1      -3.983   2.556 129.786  0.00  0.00    +0.000 C 
ATOM     27  C   UNL     1      -3.763   2.634 128.287  0.00  0.00    +0.000 C 
BRANCH  22  28
ATOM     28  S   UNL     1      -2.530   5.323 128.033  0.00  0.00    +0.000 S 
BRANCH  28  29
ATOM     29  C   UNL     1      -3.378   6.863 128.015  0.00  0.00    +0.000 C 
BRANCH  29  30
ATOM     30  C   UNL     1      -2.912   7.850 128.988  0.00  0.00    +0.000 C 
BRANCH  30  31
ATOM     31  C   UNL     1      -4.090   8.652 129.536  0.00  0.00    +0.000 C 
ATOM     32  N   UNL     1      -4.098   9.992 129.505  0.00  0.00    +0.000 N 
ATOM     33  O   UNL     1      -5.049   8.089 130.059  0.00  0.00    +0.000 OA
ATOM     34  H   UNL     1      -3.189  10.404 129.324  0.00  0.00    +0.000 HD
ATOM     35  H   UNL     1      -4.441  10.366 130.381  0.00  0.00    +0.000 HD
ENDBRANCH  30  31
ENDBRANCH  29  30
ENDBRANCH  28  29
ENDBRANCH  22  28
ENDBRANCH  21  22
ENDBRANCH  18  21
ENDBRANCH  16  17
BRANCH  16  36
ATOM     36  C   UNL     1      -7.370   1.762 123.655  0.00  0.00    +0.000 C 
BRANCH  36  37
ATOM     37  C   UNL     1      -7.416   2.688 122.458  0.00  0.00    +0.000 A 
ATOM     38  C   UNL     1      -8.626   3.142 121.894  0.00  0.00    +0.000 A 
ATOM     39  C   UNL     1      -8.640   3.787 120.661  0.00  0.00    +0.000 A 
ATOM     40  C   UNL     1      -7.443   4.103 120.043  0.00  0.00    +0.000 A 
ATOM     41  C   UNL     1      -6.238   3.793 120.657  0.00  0.00    +0.000 A 
ATOM     42  C   UNL     1      -6.219   3.060 121.845  0.00  0.00    +0.000 A 
BRANCH  40  43
ATOM     43  O   UNL     1      -7.417   4.718 118.827  0.00  0.00    +0.000 OA
ATOM     44  H   UNL     1      -6.666   4.350 118.328  0.00  0.00    +0.000 HD
ENDBRANCH  40  43
ENDBRANCH  36  37
ENDBRANCH  16  36
ENDBRANCH  13  16
ENDBRANCH  11  12
BRANCH  11  45
ATOM     45  C   UNL     1      -7.703  -1.592 127.219  0.00  0.00    +0.000 C 
ATOM     46  C   UNL     1      -6.460  -1.918 126.390  0.00  0.00    +0.000 C 
BRANCH  45  48
ATOM     47  C   UNL     1      -9.567  -3.251 125.785  0.00  0.00    +0.000 C 
ATOM     48  C   UNL     1      -8.889  -1.989 126.347  0.00  0.00    +0.000 C 
ENDBRANCH  45  48
ENDBRANCH  11  45
ENDBRANCH   7  11
ENDBRANCH   6   9
BRANCH   6  49
ATOM     49  C   UNL     1      -8.186  -0.682 132.388  0.00  0.00    +0.000 C 
ATOM     50  C   UNL     1      -7.492  -2.023 132.167  0.00  0.00    +0.000 C 
BRANCH  49  51
ATOM     51  O   UNL     1      -7.335  -0.048 133.352  0.00  0.00    +0.000 OA
ATOM     52  H   UNL     1      -7.129   0.816 132.964  0.00  0.00    +0.000 HD
ENDBRANCH  49  51
ENDBRANCH   6  49
ENDBRANCH   2   6
ENDBRANCH   1   4
BRANCH   1  53
ATOM     53  C   UNL     1      -7.342   4.576 133.424  0.00  0.00    +0.000 C 
ATOM     54  O   UNL     1      -7.873   4.239 134.483  0.00  0.00    +0.000 OA
ATOM     55  N   UNL     1      -5.970   4.803 133.348  0.00  0.00    +0.000 N 
ATOM     56  H   UNL     1      -5.678   5.378 132.593  0.00  0.00    +0.000 HD
BRANCH  55  57
ATOM     57  C   UNL     1      -5.050   4.994 134.523  0.00  0.00    +0.000 C 
BRANCH  57  58
ATOM     58  C   UNL     1      -3.873   6.134 134.483  0.00  0.00    +0.000 C 
ATOM     59  O   UNL     1      -3.963   7.253 134.987  0.00  0.00    +0.000 OA
ATOM     60  N   UNL     1      -2.799   5.893 133.661  0.00  0.00    +0.000 N 
ATOM     61  C   UNL     1      -2.952   6.171 132.247  0.00  0.00    +0.000 C 
ATOM     62  C   UNL     1      -1.808   5.393 131.705  0.00  0.00    +0.000 C 
ATOM     63  C   UNL     1      -0.765   5.928 132.644  0.00  0.00    +0.000 C 
ATOM     64  C   UNL     1      -1.381   6.207 134.019  0.00  0.00    +0.000 C 
BRANCH  64  65
ATOM     65  C   UNL     1      -0.936   7.693 134.400  0.00  0.00    +0.000 C 
ATOM     66  O   UNL     1      -0.154   7.881 135.335  0.00  0.00    +0.000 OA
ATOM     67  N   UNL     1      -1.520   8.784 133.711  0.00  0.00    +0.000 N 
ATOM     68  H   UNL     1      -2.404   8.650 133.240  0.00  0.00    +0.000 HD
BRANCH  67  69
ATOM     69  C   UNL     1      -1.187  10.248 133.947  0.00  0.00    +0.000 C 
BRANCH  69  70
ATOM     70  C   UNL     1      -2.033  10.978 135.016  0.00  0.00    +0.000 C 
ATOM     71  O   UNL     1      -3.172  11.357 134.760  0.00  0.00    +0.000 OA
ATOM     72  N   UNL     1      -1.410  11.195 136.245  0.00  0.00    +0.000 N 
ATOM     73  H   UNL     1      -0.407  11.120 136.304  0.00  0.00    +0.000 HD
BRANCH  72  74
ATOM     74  C   UNL     1      -2.167  11.596 137.456  0.00  0.00    +0.000 C 
BRANCH  74  75
ATOM     75  C   UNL     1      -1.303  12.356 138.500  0.00  0.00    +0.000 C 
ATOM     76  N   UNL     1       0.052  12.416 138.320  0.00  0.00    +0.000 N 
ATOM     77  O   UNL     1      -1.784  12.874 139.507  0.00  0.00    +0.000 OA
ATOM     78  H   UNL     1       0.571  12.062 137.537  0.00  0.00    +0.000 HD
ATOM     79  H   UNL     1       0.586  12.925 139.016  0.00  0.00    +0.000 HD
ENDBRANCH  74  75
BRANCH  74  80
ATOM     80  C   UNL     1      -2.829  10.386 138.199  0.00  0.00    +0.000 C 
BRANCH  80  81
ATOM     81  C   UNL     1      -4.337  10.368 138.145  0.00  0.00    +0.000 A 
ATOM     82  C   UNL     1      -5.111   9.590 137.299  0.00  0.00    +0.000 A 
ATOM     83  C   UNL     1      -6.507   9.480 137.497  0.00  0.00    +0.000 A 
ATOM     84  C   UNL     1      -7.187  10.145 138.526  0.00  0.00    +0.000 A 
ATOM     85  C   UNL     1      -6.414  11.099 139.177  0.00  0.00    +0.000 A 
ATOM     86  I   UNL     1      -7.098  12.826 139.988  0.00  0.00    +0.000 I 
ATOM     87  C   UNL     1      -5.028  11.192 139.006  0.00  0.00    +0.000 A 
BRANCH  84  88
ATOM     88  N   UNL     1      -8.575   9.899 138.583  0.00  0.00    +0.000 NA
ATOM     89  N   UNL     1      -9.182   9.356 137.643  0.00  0.00    +0.000 NA
ATOM     90  N   UNL     1      -9.849   8.861 136.869  0.00  0.00    +0.000 NA
ENDBRANCH  84  88
ENDBRANCH  80  81
ENDBRANCH  74  80
ENDBRANCH  72  74
ENDBRANCH  69  70
BRANCH  69  91
ATOM     91  C   UNL     1      -1.593  11.093 132.778  0.00  0.00    +0.000 C 
BRANCH  91  92
ATOM     92  C   UNL     1      -0.444  11.937 132.433  0.00  0.00    +0.000 C 
BRANCH  92  93
ATOM     93  C   UNL     1      -0.994  13.147 131.836  0.00  0.00    +0.000 C 
BRANCH  93  94
ATOM     94  N   UNL     1      -1.720  13.642 132.955  0.00  0.00    +0.000 NA
ATOM     95  H   UNL     1      -1.387  13.340 133.868  0.00  0.00    +0.000 HD
ATOM     96  H   UNL     1      -2.627  13.276 132.791  0.00  0.00    +0.000 HD
ENDBRANCH  93  94
ENDBRANCH  92  93
ENDBRANCH  91  92
ENDBRANCH  69  91
ENDBRANCH  67  69
ENDBRANCH  64  65
ENDBRANCH  57  58
BRANCH  57  97
ATOM     97  C   UNL     1      -4.277   3.703 134.758  0.00  0.00    +0.000 C 
BRANCH  97  98
ATOM     98  S   UNL     1      -5.052   2.251 135.498  0.00  0.00    +0.000 S 
ATOM     99  H   UNL     1      -6.256   2.833 135.659  0.00  0.00    +0.000 HD
ENDBRANCH  97  98
ENDBRANCH  57  97
ENDBRANCH  55  57
ENDBRANCH   1  53
BRANCH   1 100
ATOM    100  C   UNL     1      -9.246   5.670 132.057  0.00  0.00    +0.000 C 
BRANCH 100 101
ATOM    101  C   UNL     1      -9.436   6.497 130.805  0.00  0.00    +0.000 C 
ATOM    102  N   UNL     1     -10.530   6.239 130.112  0.00  0.00    +0.000 N 
ATOM    103  O   UNL     1      -8.589   7.302 130.326  0.00  0.00    +0.000 OA
ATOM    104  H   UNL     1     -11.066   5.652 130.702  0.00  0.00    +0.000 HD
ATOM    105  H   UNL     1     -11.065   7.029 129.753  0.00  0.00    +0.000 HD
ENDBRANCH 100 101
ENDBRANCH   1 100
TORSDOF 39
ENDMDL
MODEL 5
REMARK VINA RESULT:      -8.0      2.969      9.317
REMARK  Name = CHEMBL3142789
REMARK  42 active torsions:
REMARK  status: ('A' for Active; 'I' for Inactive)
REMARK    1  A    between atoms: C_1  and  C_2
REMARK    2  A    between atoms: C_2  and  C_3
REMARK    3  A    between atoms: C_3  and  C_4
REMARK    4  A    between atoms: C_3  and  C_5
REMARK    5  A    between atoms: C_5  and  N_6
REMARK    6  A    between atoms: C_5  and  C_34
REMARK    7  A    between atoms: C_7  and  C_9
REMARK    8  A    between atoms: C_9  and  C_10
REMARK    9  A    between atoms: C_9  and  N_18
REMARK   10  A    between atoms: C_10  and  C_11
REMARK   11  A    between atoms: C_14  and  O_15
REMARK   12  A    between atoms: C_19  and  C_21
REMARK   13  A    between atoms: C_21  and  C_22
REMARK   14  A    between atoms: C_22  and  S_23
REMARK   15  A    between atoms: S_23  and  C_24
REMARK   16  A    between atoms: C_24  and  C_25
REMARK   17  A    between atoms: C_25  and  C_26
REMARK   18  A    between atoms: N_36  and  C_37
REMARK   19  A    between atoms: C_37  and  C_38
REMARK   20  A    between atoms: C_37  and  C_85
REMARK   21  A    between atoms: N_40  and  C_41
REMARK   22  A    between atoms: C_41  and  C_42
REMARK   23  A    between atoms: C_41  and  C_46
REMARK   24  A    between atoms: C_42  and  C_43
REMARK   25  A    between atoms: N_48  and  C_49
REMARK   26  A    between atoms: C_49  and  C_50
REMARK   27  A    between atoms: C_49  and  C_52
REMARK   28  A    between atoms: C_50  and  S_51
REMARK   29  A    between atoms: C_58  and  C_59
REMARK   30  A    between atoms: N_61  and  C_62
REMARK   31  A    between atoms: C_62  and  C_63
REMARK   32  A    between atoms: C_62  and  C_67
REMARK   33  A    between atoms: C_63  and  C_64
REMARK   34  A    between atoms: C_64  and  C_65
REMARK   35  A    between atoms: C_65  and  N_66
REMARK   36  A    between atoms: N_69  and  C_70
REMARK   37  A    between atoms: C_70  and  C_71
REMARK   38  A    between atoms: C_70  and  C_82
REMARK   39  A    between atoms: C_71  and  C_72
REMARK   40  A    between atoms: C_75  and  N_76
REMARK   41  A    between atoms: C_85  and  C_86
REMARK   42  A    between atoms: C_85  and  O_87
REMARK                            x       y       z     vdW  Elec       q    Type
REMARK                         _______ _______ _______ _____ _____    ______ ____
ROOT
ATOM      1  C   UNL     1      -4.881  -4.129 130.762  0.00  0.00    +0.000 C 
ENDROOT
BRANCH   1   4
ATOM      2  C   UNL     1      -3.808  -1.633 131.562  0.00  0.00    +0.000 C 
ATOM      3  O   UNL     1      -4.115  -0.897 130.609  0.00  0.00    +0.000 OA
ATOM      4  N   UNL     1      -3.805  -3.060 131.394  0.00  0.00    +0.000 N 
ATOM      5  H   UNL     1      -3.226  -3.577 132.036  0.00  0.00    +0.000 HD
BRANCH   2   6
ATOM      6  C   UNL     1      -3.589  -0.841 133.167  0.00  0.00    +0.000 C 
BRANCH   6   9
ATOM      7  C   UNL     1      -5.356   0.140 134.625  0.00  0.00    +0.000 C 
ATOM      8  O   UNL     1      -6.326  -0.307 135.246  0.00  0.00    +0.000 OA
ATOM      9  N   UNL     1      -4.976  -0.716 133.617  0.00  0.00    +0.000 N 
ATOM     10  H   UNL     1      -5.597  -1.509 133.462  0.00  0.00    +0.000 HD
BRANCH   7  11
ATOM     11  C   UNL     1      -4.590   1.658 135.006  0.00  0.00    +0.000 C 
BRANCH  11  12
ATOM     12  N   UNL     1      -5.588   2.774 134.696  0.00  0.00    +0.000 N 
ATOM     13  C   UNL     1      -5.408   4.140 134.378  0.00  0.00    +0.000 C 
ATOM     14  O   UNL     1      -4.302   4.616 134.098  0.00  0.00    +0.000 OA
ATOM     15  H   UNL     1      -6.404   2.328 134.323  0.00  0.00    +0.000 HD
BRANCH  13  16
ATOM     16  C   UNL     1      -6.645   5.129 134.273  0.00  0.00    +0.000 C 
BRANCH  16  17
ATOM     17  N   UNL     1      -7.575   4.699 133.180  0.00  0.00    +0.000 N 
ATOM     18  C   UNL     1      -7.579   5.426 132.010  0.00  0.00    +0.000 C 
ATOM     19  O   UNL     1      -7.055   6.539 131.990  0.00  0.00    +0.000 OA
ATOM     20  H   UNL     1      -7.899   3.741 133.156  0.00  0.00    +0.000 HD
BRANCH  18  21
ATOM     21  C   UNL     1      -8.263   4.790 130.778  0.00  0.00    +0.000 C 
BRANCH  21  22
ATOM     22  C   UNL     1      -9.728   5.279 130.564  0.00  0.00    +0.000 C 
ATOM     23  C   UNL     1     -10.222   6.009 131.848  0.00  0.00    +0.000 C 
ATOM     24  C   UNL     1     -11.598   6.600 131.684  0.00  0.00    +0.000 C 
ATOM     25  C   UNL     1     -11.708   7.500 130.436  0.00  0.00    +0.000 C 
ATOM     26  C   UNL     1     -11.122   6.959 129.144  0.00  0.00    +0.000 C 
ATOM     27  C   UNL     1      -9.783   6.284 129.375  0.00  0.00    +0.000 C 
BRANCH  22  28
ATOM     28  S   UNL     1     -10.647   3.639 130.408  0.00  0.00    +0.000 S 
BRANCH  28  29
ATOM     29  C   UNL     1      -9.424   2.431 130.779  0.00  0.00    +0.000 C 
BRANCH  29  30
ATOM     30  C   UNL     1      -9.772   1.490 131.844  0.00  0.00    +0.000 C 
BRANCH  30  31
ATOM     31  C   UNL     1      -8.511   1.012 132.561  0.00  0.00    +0.000 C 
ATOM     32  N   UNL     1      -8.090  -0.256 132.462  0.00  0.00    +0.000 N 
ATOM     33  O   UNL     1      -7.868   1.771 133.283  0.00  0.00    +0.000 OA
ATOM     34  H   UNL     1      -8.788  -0.893 132.092  0.00  0.00    +0.000 HD
ATOM     35  H   UNL     1      -7.797  -0.605 133.366  0.00  0.00    +0.000 HD
ENDBRANCH  30  31
ENDBRANCH  29  30
ENDBRANCH  28  29
ENDBRANCH  22  28
ENDBRANCH  21  22
ENDBRANCH  18  21
ENDBRANCH  16  17
BRANCH  16  36
ATOM     36  C   UNL     1      -7.315   4.993 135.635  0.00  0.00    +0.000 C 
BRANCH  36  37
ATOM     37  C   UNL     1      -7.064   6.168 136.556  0.00  0.00    +0.000 A 
ATOM     38  C   UNL     1      -8.046   6.670 137.434  0.00  0.00    +0.000 A 
ATOM     39  C   UNL     1      -7.868   7.887 138.084  0.00  0.00    +0.000 A 
ATOM     40  C   UNL     1      -6.660   8.550 137.969  0.00  0.00    +0.000 A 
ATOM     41  C   UNL     1      -5.628   7.997 137.225  0.00  0.00    +0.000 A 
ATOM     42  C   UNL     1      -5.835   6.826 136.493  0.00  0.00    +0.000 A 
BRANCH  40  43
ATOM     43  O   UNL     1      -6.454   9.754 138.575  0.00  0.00    +0.000 OA
ATOM     44  H   UNL     1      -6.985   9.765 139.393  0.00  0.00    +0.000 HD
ENDBRANCH  40  43
ENDBRANCH  36  37
ENDBRANCH  16  36
ENDBRANCH  13  16
ENDBRANCH  11  12
BRANCH  11  45
ATOM     45  C   UNL     1      -4.094   1.923 136.499  0.00  0.00    +0.000 C 
ATOM     46  C   UNL     1      -3.693   0.693 137.314  0.00  0.00    +0.000 C 
BRANCH  45  48
ATOM     47  C   UNL     1      -4.651   3.900 138.513  0.00  0.00    +0.000 C 
ATOM     48  C   UNL     1      -4.884   2.807 137.457  0.00  0.00    +0.000 C 
ENDBRANCH  45  48
ENDBRANCH  11  45
ENDBRANCH   7  11
ENDBRANCH   6   9
BRANCH   6  49
ATOM     49  C   UNL     1      -2.875  -1.182 134.608  0.00  0.00    +0.000 C 
ATOM     50  C   UNL     1      -2.766  -2.616 135.115  0.00  0.00    +0.000 C 
BRANCH  49  51
ATOM     51  O   UNL     1      -1.503  -0.774 134.537  0.00  0.00    +0.000 OA
ATOM     52  H   UNL     1      -1.484   0.095 134.967  0.00  0.00    +0.000 HD
ENDBRANCH  49  51
ENDBRANCH   6  49
ENDBRANCH   2   6
ENDBRANCH   1   4
BRANCH   1  53
ATOM     53  C   UNL     1      -6.176  -3.317 130.230  0.00  0.00    +0.000 C 
ATOM     54  O   UNL     1      -7.051  -3.043 131.052  0.00  0.00    +0.000 OA
ATOM     55  N   UNL     1      -6.208  -2.787 128.942  0.00  0.00    +0.000 N 
ATOM     56  H   UNL     1      -5.693  -3.297 128.263  0.00  0.00    +0.000 HD
BRANCH  55  57
ATOM     57  C   UNL     1      -7.398  -2.131 128.297  0.00  0.00    +0.000 C 
BRANCH  57  58
ATOM     58  C   UNL     1      -7.298  -1.542 126.770  0.00  0.00    +0.000 C 
ATOM     59  O   UNL     1      -6.952  -0.398 126.481  0.00  0.00    +0.000 OA
ATOM     60  N   UNL     1      -7.828  -2.317 125.767  0.00  0.00    +0.000 N 
ATOM     61  C   UNL     1      -9.262  -2.273 125.564  0.00  0.00    +0.000 C 
ATOM     62  C   UNL     1      -9.447  -3.509 124.760  0.00  0.00    +0.000 C 
ATOM     63  C   UNL     1      -8.363  -3.236 123.757  0.00  0.00    +0.000 C 
ATOM     64  C   UNL     1      -7.199  -2.494 124.422  0.00  0.00    +0.000 C 
BRANCH  64  65
ATOM     65  C   UNL     1      -6.891  -1.239 123.483  0.00  0.00    +0.000 C 
ATOM     66  O   UNL     1      -6.148  -1.367 122.508  0.00  0.00    +0.000 OA
ATOM     67  N   UNL     1      -7.411   0.030 123.839  0.00  0.00    +0.000 N 
ATOM     68  H   UNL     1      -7.679   0.198 124.800  0.00  0.00    +0.000 HD
BRANCH  67  69
ATOM     69  C   UNL     1      -7.222   1.310 123.041  0.00  0.00    +0.000 C 
BRANCH  69  70
ATOM     70  C   UNL     1      -6.500   2.468 123.768  0.00  0.00    +0.000 C 
ATOM     71  O   UNL     1      -6.027   3.406 123.133  0.00  0.00    +0.000 OA
ATOM     72  N   UNL     1      -6.402   2.353 125.154  0.00  0.00    +0.000 N 
ATOM     73  H   UNL     1      -6.550   1.452 125.581  0.00  0.00    +0.000 HD
BRANCH  72  74
ATOM     74  C   UNL     1      -6.023   3.497 126.020  0.00  0.00    +0.000 C 
BRANCH  74  75
ATOM     75  C   UNL     1      -6.848   4.783 125.738  0.00  0.00    +0.000 C 
ATOM     76  N   UNL     1      -6.309   5.753 124.937  0.00  0.00    +0.000 N 
ATOM     77  O   UNL     1      -7.953   4.983 126.240  0.00  0.00    +0.000 OA
ATOM     78  H   UNL     1      -5.435   5.711 124.446  0.00  0.00    +0.000 HD
ATOM     79  H   UNL     1      -6.877   6.577 124.770  0.00  0.00    +0.000 HD
ENDBRANCH  74  75
BRANCH  74  80
ATOM     80  C   UNL     1      -4.510   3.884 125.903  0.00  0.00    +0.000 C 
BRANCH  80  81
ATOM     81  C   UNL     1      -3.852   4.239 127.213  0.00  0.00    +0.000 A 
ATOM     82  C   UNL     1      -2.769   5.089 127.375  0.00  0.00    +0.000 A 
ATOM     83  C   UNL     1      -2.388   5.531 128.663  0.00  0.00    +0.000 A 
ATOM     84  C   UNL     1      -3.050   5.140 129.833  0.00  0.00    +0.000 A 
ATOM     85  C   UNL     1      -3.953   4.101 129.639  0.00  0.00    +0.000 A 
ATOM     86  I   UNL     1      -4.410   2.660 130.989  0.00  0.00    +0.000 I 
ATOM     87  C   UNL     1      -4.356   3.679 128.367  0.00  0.00    +0.000 A 
BRANCH  84  88
ATOM     88  N   UNL     1      -2.544   5.699 131.025  0.00  0.00    +0.000 NA
ATOM     89  N   UNL     1      -3.120   6.637 131.603  0.00  0.00    +0.000 NA
ATOM     90  N   UNL     1      -3.550   7.479 132.233  0.00  0.00    +0.000 NA
ENDBRANCH  84  88
ENDBRANCH  80  81
ENDBRANCH  74  80
ENDBRANCH  72  74
ENDBRANCH  69  70
BRANCH  69  91
ATOM     91  C   UNL     1      -8.528   2.011 122.821  0.00  0.00    +0.000 C 
BRANCH  91  92
ATOM     92  C   UNL     1      -9.592   1.051 123.130  0.00  0.00    +0.000 C 
BRANCH  92  93
ATOM     93  C   UNL     1     -10.393   1.658 124.184  0.00  0.00    +0.000 C 
BRANCH  93  94
ATOM     94  N   UNL     1      -9.554   1.378 125.297  0.00  0.00    +0.000 NA
ATOM     95  H   UNL     1      -8.794   2.036 125.456  0.00  0.00    +0.000 HD
ATOM     96  H   UNL     1      -9.183   0.490 125.058  0.00  0.00    +0.000 HD
ENDBRANCH  93  94
ENDBRANCH  92  93
ENDBRANCH  91  92
ENDBRANCH  69  91
ENDBRANCH  67  69
ENDBRANCH  64  65
ENDBRANCH  57  58
BRANCH  57  97
ATOM     97  C   UNL     1      -7.791  -0.910 129.118  0.00  0.00    +0.000 C 
BRANCH  97  98
ATOM     98  S   UNL     1      -6.829   0.616 129.075  0.00  0.00    +0.000 S 
ATOM     99  H   UNL     1      -5.895   0.187 129.945  0.00  0.00    +0.000 HD
ENDBRANCH  97  98
ENDBRANCH  57  97
ENDBRANCH  55  57
ENDBRANCH   1  53
BRANCH   1 100
ATOM    100  C   UNL     1      -5.276  -5.234 131.716  0.00  0.00    +0.000 C 
BRANCH 100 101
ATOM    101  C   UNL     1      -5.203  -5.024 133.211  0.00  0.00    +0.000 C 
ATOM    102  N   UNL     1      -6.006  -4.095 133.697  0.00  0.00    +0.000 N 
ATOM    103  O   UNL     1      -4.368  -5.569 133.986  0.00  0.00    +0.000 OA
ATOM    104  H   UNL     1      -6.607  -3.867 132.945  0.00  0.00    +0.000 HD
ATOM    105  H   UNL     1      -6.514  -4.304 134.557  0.00  0.00    +0.000 HD
ENDBRANCH 100 101
ENDBRANCH   1 100
TORSDOF 39
ENDMDL
MODEL 6
REMARK VINA RESULT:      -7.9      3.167      9.861
REMARK  Name = CHEMBL3142789
REMARK  42 active torsions:
REMARK  status: ('A' for Active; 'I' for Inactive)
REMARK    1  A    between atoms: C_1  and  C_2
REMARK    2  A    between atoms: C_2  and  C_3
REMARK    3  A    between atoms: C_3  and  C_4
REMARK    4  A    between atoms: C_3  and  C_5
REMARK    5  A    between atoms: C_5  and  N_6
REMARK    6  A    between atoms: C_5  and  C_34
REMARK    7  A    between atoms: C_7  and  C_9
REMARK    8  A    between atoms: C_9  and  C_10
REMARK    9  A    between atoms: C_9  and  N_18
REMARK   10  A    between atoms: C_10  and  C_11
REMARK   11  A    between atoms: C_14  and  O_15
REMARK   12  A    between atoms: C_19  and  C_21
REMARK   13  A    between atoms: C_21  and  C_22
REMARK   14  A    between atoms: C_22  and  S_23
REMARK   15  A    between atoms: S_23  and  C_24
REMARK   16  A    between atoms: C_24  and  C_25
REMARK   17  A    between atoms: C_25  and  C_26
REMARK   18  A    between atoms: N_36  and  C_37
REMARK   19  A    between atoms: C_37  and  C_38
REMARK   20  A    between atoms: C_37  and  C_85
REMARK   21  A    between atoms: N_40  and  C_41
REMARK   22  A    between atoms: C_41  and  C_42
REMARK   23  A    between atoms: C_41  and  C_46
REMARK   24  A    between atoms: C_42  and  C_43
REMARK   25  A    between atoms: N_48  and  C_49
REMARK   26  A    between atoms: C_49  and  C_50
REMARK   27  A    between atoms: C_49  and  C_52
REMARK   28  A    between atoms: C_50  and  S_51
REMARK   29  A    between atoms: C_58  and  C_59
REMARK   30  A    between atoms: N_61  and  C_62
REMARK   31  A    between atoms: C_62  and  C_63
REMARK   32  A    between atoms: C_62  and  C_67
REMARK   33  A    between atoms: C_63  and  C_64
REMARK   34  A    between atoms: C_64  and  C_65
REMARK   35  A    between atoms: C_65  and  N_66
REMARK   36  A    between atoms: N_69  and  C_70
REMARK   37  A    between atoms: C_70  and  C_71
REMARK   38  A    between atoms: C_70  and  C_82
REMARK   39  A    between atoms: C_71  and  C_72
REMARK   40  A    between atoms: C_75  and  N_76
REMARK   41  A    between atoms: C_85  and  C_86
REMARK   42  A    between atoms: C_85  and  O_87
REMARK                            x       y       z     vdW  Elec       q    Type
REMARK                         _______ _______ _______ _____ _____    ______ ____
ROOT
ATOM      1  C   UNL     1      -4.409  -4.044 131.471  0.00  0.00    +0.000 C 
ENDROOT
BRANCH   1   4
ATOM      2  C   UNL     1      -3.350  -1.574 132.369  0.00  0.00    +0.000 C 
ATOM      3  O   UNL     1      -3.319  -0.906 131.323  0.00  0.00    +0.000 OA
ATOM      4  N   UNL     1      -3.442  -3.007 132.302  0.00  0.00    +0.000 N 
ATOM      5  H   UNL     1      -3.107  -3.507 133.110  0.00  0.00    +0.000 HD
BRANCH   2   6
ATOM      6  C   UNL     1      -3.491  -0.662 133.918  0.00  0.00    +0.000 C 
BRANCH   6   9
ATOM      7  C   UNL     1      -5.232   0.999 134.566  0.00  0.00    +0.000 C 
ATOM      8  O   UNL     1      -6.460   0.972 134.705  0.00  0.00    +0.000 OA
ATOM      9  N   UNL     1      -4.801  -0.029 133.760  0.00  0.00    +0.000 N 
ATOM     10  H   UNL     1      -5.540  -0.574 133.318  0.00  0.00    +0.000 HD
BRANCH   7  11
ATOM     11  C   UNL     1      -4.209   2.196 135.313  0.00  0.00    +0.000 C 
BRANCH  11  12
ATOM     12  N   UNL     1      -4.325   3.484 134.497  0.00  0.00    +0.000 N 
ATOM     13  C   UNL     1      -5.407   4.364 134.270  0.00  0.00    +0.000 C 
ATOM     14  O   UNL     1      -6.458   4.303 134.918  0.00  0.00    +0.000 OA
ATOM     15  H   UNL     1      -3.405   3.882 134.465  0.00  0.00    +0.000 HD
BRANCH  13  16
ATOM     16  C   UNL     1      -5.297   5.550 133.222  0.00  0.00    +0.000 C 
BRANCH  16  17
ATOM     17  N   UNL     1      -3.949   6.200 133.300  0.00  0.00    +0.000 N 
ATOM     18  C   UNL     1      -3.594   6.814 134.481  0.00  0.00    +0.000 C 
ATOM     19  O   UNL     1      -4.461   7.060 135.317  0.00  0.00    +0.000 OA
ATOM     20  H   UNL     1      -3.216   5.895 132.673  0.00  0.00    +0.000 HD
BRANCH  18  21
ATOM     21  C   UNL     1      -2.102   7.170 134.679  0.00  0.00    +0.000 C 
BRANCH  21  22
ATOM     22  C   UNL     1      -1.791   8.680 134.450  0.00  0.00    +0.000 C 
ATOM     23  C   UNL     1      -2.381   9.126 133.079  0.00  0.00    +0.000 C 
ATOM     24  C   UNL     1      -2.209  10.602 132.828  0.00  0.00    +0.000 C 
ATOM     25  C   UNL     1      -2.746  11.463 133.990  0.00  0.00    +0.000 C 
ATOM     26  C   UNL     1      -2.364  11.037 135.395  0.00  0.00    +0.000 C 
ATOM     27  C   UNL     1      -2.456   9.533 135.571  0.00  0.00    +0.000 C 
BRANCH  22  28
ATOM     28  S   UNL     1       0.090   8.657 134.322  0.00  0.00    +0.000 S 
BRANCH  28  29
ATOM     29  C   UNL     1       0.566   7.291 135.322  0.00  0.00    +0.000 C 
BRANCH  29  30
ATOM     30  C   UNL     1       1.566   7.581 136.349  0.00  0.00    +0.000 C 
BRANCH  30  31
ATOM     31  C   UNL     1       2.321   6.309 136.728  0.00  0.00    +0.000 C 
ATOM     32  N   UNL     1       1.792   5.406 137.565  0.00  0.00    +0.000 N 
ATOM     33  O   UNL     1       3.456   6.098 136.306  0.00  0.00    +0.000 OA
ATOM     34  H   UNL     1       0.995   5.749 138.090  0.00  0.00    +0.000 HD
ATOM     35  H   UNL     1       2.488   5.085 138.227  0.00  0.00    +0.000 HD
ENDBRANCH  30  31
ENDBRANCH  29  30
ENDBRANCH  28  29
ENDBRANCH  22  28
ENDBRANCH  21  22
ENDBRANCH  18  21
ENDBRANCH  16  17
BRANCH  16  36
ATOM     36  C   UNL     1      -5.479   4.848 131.881  0.00  0.00    +0.000 C 
BRANCH  36  37
ATOM     37  C   UNL     1      -6.712   5.293 131.124  0.00  0.00    +0.000 A 
ATOM     38  C   UNL     1      -7.507   6.380 131.538  0.00  0.00    +0.000 A 
ATOM     39  C   UNL     1      -8.754   6.611 130.967  0.00  0.00    +0.000 A 
ATOM     40  C   UNL     1      -9.163   5.844 129.891  0.00  0.00    +0.000 A 
ATOM     41  C   UNL     1      -8.328   4.863 129.375  0.00  0.00    +0.000 A 
ATOM     42  C   UNL     1      -7.119   4.563 130.006  0.00  0.00    +0.000 A 
BRANCH  40  43
ATOM     43  O   UNL     1     -10.386   6.027 129.316  0.00  0.00    +0.000 OA
ATOM     44  H   UNL     1     -10.428   6.950 129.004  0.00  0.00    +0.000 HD
ENDBRANCH  40  43
ENDBRANCH  36  37
ENDBRANCH  16  36
ENDBRANCH  13  16
ENDBRANCH  11  12
BRANCH  11  45
ATOM     45  C   UNL     1      -4.486   2.617 136.827  0.00  0.00    +0.000 C 
ATOM     46  C   UNL     1      -3.701   3.816 137.359  0.00  0.00    +0.000 C 
BRANCH  45  48
ATOM     47  C   UNL     1      -5.191   0.295 138.374  0.00  0.00    +0.000 C 
ATOM     48  C   UNL     1      -4.475   1.591 137.954  0.00  0.00    +0.000 C 
ENDBRANCH  45  48
ENDBRANCH  11  45
ENDBRANCH   7  11
ENDBRANCH   6   9
BRANCH   6  49
ATOM     49  C   UNL     1      -3.551  -0.991 135.527  0.00  0.00    +0.000 C 
ATOM     50  C   UNL     1      -3.942  -2.375 136.035  0.00  0.00    +0.000 C 
BRANCH  49  51
ATOM     51  O   UNL     1      -2.234  -0.823 136.069  0.00  0.00    +0.000 OA
ATOM     52  H   UNL     1      -2.267  -1.266 136.931  0.00  0.00    +0.000 HD
ENDBRANCH  49  51
ENDBRANCH   6  49
ENDBRANCH   2   6
ENDBRANCH   1   4
BRANCH   1  53
ATOM     53  C   UNL     1      -5.718  -3.242 130.959  0.00  0.00    +0.000 C 
ATOM     54  O   UNL     1      -6.747  -3.351 131.626  0.00  0.00    +0.000 OA
ATOM     55  N   UNL     1      -5.629  -2.322 129.917  0.00  0.00    +0.000 N 
ATOM     56  H   UNL     1      -4.934  -2.521 129.236  0.00  0.00    +0.000 HD
BRANCH  55  57
ATOM     57  C   UNL     1      -6.793  -1.618 129.272  0.00  0.00    +0.000 C 
BRANCH  57  58
ATOM     58  C   UNL     1      -6.765  -1.257 127.674  0.00  0.00    +0.000 C 
ATOM     59  O   UNL     1      -6.461  -0.160 127.208  0.00  0.00    +0.000 OA
ATOM     60  N   UNL     1      -7.310  -2.182 126.816  0.00  0.00    +0.000 N 
ATOM     61  C   UNL     1      -8.751  -2.200 126.666  0.00  0.00    +0.000 C 
ATOM     62  C   UNL     1      -8.931  -3.544 126.059  0.00  0.00    +0.000 C 
ATOM     63  C   UNL     1      -7.893  -3.397 124.984  0.00  0.00    +0.000 C 
ATOM     64  C   UNL     1      -6.726  -2.540 125.487  0.00  0.00    +0.000 C 
BRANCH  64  65
ATOM     65  C   UNL     1      -6.487  -1.430 124.364  0.00  0.00    +0.000 C 
ATOM     66  O   UNL     1      -5.696  -1.645 123.444  0.00  0.00    +0.000 OA
ATOM     67  N   UNL     1      -7.128  -0.173 124.493  0.00  0.00    +0.000 N 
ATOM     68  H   UNL     1      -7.449   0.123 125.405  0.00  0.00    +0.000 HD
BRANCH  67  69
ATOM     69  C   UNL     1      -7.015   0.974 123.501  0.00  0.00    +0.000 C 
BRANCH  69  70
ATOM     70  C   UNL     1      -6.438   2.299 124.051  0.00  0.00    +0.000 C 
ATOM     71  O   UNL     1      -6.049   3.177 123.285  0.00  0.00    +0.000 OA
ATOM     72  N   UNL     1      -6.363   2.404 125.439  0.00  0.00    +0.000 N 
ATOM     73  H   UNL     1      -6.427   1.566 125.996  0.00  0.00    +0.000 HD
BRANCH  72  74
ATOM     74  C   UNL     1      -6.127   3.698 126.125  0.00  0.00    +0.000 C 
BRANCH  74  75
ATOM     75  C   UNL     1      -6.900   4.884 125.485  0.00  0.00    +0.000 C 
ATOM     76  N   UNL     1      -8.251   4.769 125.295  0.00  0.00    +0.000 N 
ATOM     77  O   UNL     1      -6.340   5.912 125.105  0.00  0.00    +0.000 OA
ATOM     78  H   UNL     1      -8.835   4.004 125.579  0.00  0.00    +0.000 HD
ATOM     79  H   UNL     1      -8.725   5.564 124.881  0.00  0.00    +0.000 HD
ENDBRANCH  74  75
BRANCH  74  80
ATOM     80  C   UNL     1      -4.616   4.105 126.174  0.00  0.00    +0.000 C 
BRANCH  80  81
ATOM     81  C   UNL     1      -4.090   4.395 127.558  0.00  0.00    +0.000 A 
ATOM     82  C   UNL     1      -3.677   3.451 128.485  0.00  0.00    +0.000 A 
ATOM     83  C   UNL     1      -2.985   3.845 129.654  0.00  0.00    +0.000 A 
ATOM     84  C   UNL     1      -2.691   5.181 129.954  0.00  0.00    +0.000 A 
ATOM     85  C   UNL     1      -3.344   6.092 129.132  0.00  0.00    +0.000 A 
ATOM     86  I   UNL     1      -3.974   7.939 129.675  0.00  0.00    +0.000 I 
ATOM     87  C   UNL     1      -4.004   5.711 127.958  0.00  0.00    +0.000 A 
BRANCH  84  88
ATOM     88  N   UNL     1      -1.975   5.382 131.153  0.00  0.00    +0.000 NA
ATOM     89  N   UNL     1      -1.951   4.522 132.052  0.00  0.00    +0.000 NA
ATOM     90  N   UNL     1      -1.836   3.822 132.938  0.00  0.00    +0.000 NA
ENDBRANCH  84  88
ENDBRANCH  80  81
ENDBRANCH  74  80
ENDBRANCH  72  74
ENDBRANCH  69  70
BRANCH  69  91
ATOM     91  C   UNL     1      -8.366   1.501 123.124  0.00  0.00    +0.000 C 
BRANCH  91  92
ATOM     92  C   UNL     1      -9.354   0.504 123.551  0.00  0.00    +0.000 C 
BRANCH  92  93
ATOM     93  C   UNL     1      -9.933   1.010 124.788  0.00  0.00    +0.000 C 
BRANCH  93  94
ATOM     94  N   UNL     1     -10.014   2.391 124.453  0.00  0.00    +0.000 NA
ATOM     95  H   UNL     1      -9.394   3.009 124.971  0.00  0.00    +0.000 HD
ATOM     96  H   UNL     1     -10.958   2.602 124.672  0.00  0.00    +0.000 HD
ENDBRANCH  93  94
ENDBRANCH  92  93
ENDBRANCH  91  92
ENDBRANCH  69  91
ENDBRANCH  67  69
ENDBRANCH  64  65
ENDBRANCH  57  58
BRANCH  57  97
ATOM     97  C   UNL     1      -6.973  -0.258 129.935  0.00  0.00    +0.000 C 
BRANCH  97  98
ATOM     98  S   UNL     1      -8.150  -0.003 131.278  0.00  0.00    +0.000 S 
ATOM     99  H   UNL     1      -7.213   0.043 132.245  0.00  0.00    +0.000 HD
ENDBRANCH  97  98
ENDBRANCH  57  97
ENDBRANCH  55  57
ENDBRANCH   1  53
BRANCH   1 100
ATOM    100  C   UNL     1      -4.790  -5.281 132.252  0.00  0.00    +0.000 C 
BRANCH 100 101
ATOM    101  C   UNL     1      -4.790  -5.269 133.764  0.00  0.00    +0.000 C 
ATOM    102  N   UNL     1      -5.942  -4.962 134.332  0.00  0.00    +0.000 N 
ATOM    103  O   UNL     1      -3.770  -5.407 134.496  0.00  0.00    +0.000 OA
ATOM    104  H   UNL     1      -6.597  -4.976 133.590  0.00  0.00    +0.000 HD
ATOM    105  H   UNL     1      -6.243  -5.517 135.133  0.00  0.00    +0.000 HD
ENDBRANCH 100 101
ENDBRANCH   1 100
TORSDOF 39
ENDMDL
MODEL 7
REMARK VINA RESULT:      -7.9      3.299     11.058
REMARK  Name = CHEMBL3142789
REMARK  42 active torsions:
REMARK  status: ('A' for Active; 'I' for Inactive)
REMARK    1  A    between atoms: C_1  and  C_2
REMARK    2  A    between atoms: C_2  and  C_3
REMARK    3  A    between atoms: C_3  and  C_4
REMARK    4  A    between atoms: C_3  and  C_5
REMARK    5  A    between atoms: C_5  and  N_6
REMARK    6  A    between atoms: C_5  and  C_34
REMARK    7  A    between atoms: C_7  and  C_9
REMARK    8  A    between atoms: C_9  and  C_10
REMARK    9  A    between atoms: C_9  and  N_18
REMARK   10  A    between atoms: C_10  and  C_11
REMARK   11  A    between atoms: C_14  and  O_15
REMARK   12  A    between atoms: C_19  and  C_21
REMARK   13  A    between atoms: C_21  and  C_22
REMARK   14  A    between atoms: C_22  and  S_23
REMARK   15  A    between atoms: S_23  and  C_24
REMARK   16  A    between atoms: C_24  and  C_25
REMARK   17  A    between atoms: C_25  and  C_26
REMARK   18  A    between atoms: N_36  and  C_37
REMARK   19  A    between atoms: C_37  and  C_38
REMARK   20  A    between atoms: C_37  and  C_85
REMARK   21  A    between atoms: N_40  and  C_41
REMARK   22  A    between atoms: C_41  and  C_42
REMARK   23  A    between atoms: C_41  and  C_46
REMARK   24  A    between atoms: C_42  and  C_43
REMARK   25  A    between atoms: N_48  and  C_49
REMARK   26  A    between atoms: C_49  and  C_50
REMARK   27  A    between atoms: C_49  and  C_52
REMARK   28  A    between atoms: C_50  and  S_51
REMARK   29  A    between atoms: C_58  and  C_59
REMARK   30  A    between atoms: N_61  and  C_62
REMARK   31  A    between atoms: C_62  and  C_63
REMARK   32  A    between atoms: C_62  and  C_67
REMARK   33  A    between atoms: C_63  and  C_64
REMARK   34  A    between atoms: C_64  and  C_65
REMARK   35  A    between atoms: C_65  and  N_66
REMARK   36  A    between atoms: N_69  and  C_70
REMARK   37  A    between atoms: C_70  and  C_71
REMARK   38  A    between atoms: C_70  and  C_82
REMARK   39  A    between atoms: C_71  and  C_72
REMARK   40  A    between atoms: C_75  and  N_76
REMARK   41  A    between atoms: C_85  and  C_86
REMARK   42  A    between atoms: C_85  and  O_87
REMARK                            x       y       z     vdW  Elec       q    Type
REMARK                         _______ _______ _______ _____ _____    ______ ____
ROOT
ATOM      1  C   UNL     1      -7.203   3.887 127.948  0.00  0.00    +0.000 C 
ENDROOT
BRANCH   1   4
ATOM      2  C   UNL     1      -8.310   1.710 126.513  0.00  0.00    +0.000 C 
ATOM      3  O   UNL     1      -9.385   1.525 127.107  0.00  0.00    +0.000 OA
ATOM      4  N   UNL     1      -7.257   2.450 127.153  0.00  0.00    +0.000 N 
ATOM      5  H   UNL     1      -6.325   2.270 126.815  0.00  0.00    +0.000 HD
BRANCH   2   6
ATOM      6  C   UNL     1      -8.233   1.204 124.785  0.00  0.00    +0.000 C 
BRANCH   6   9
ATOM      7  C   UNL     1      -7.932  -1.260 124.560  0.00  0.00    +0.000 C 
ATOM      8  O   UNL     1      -8.611  -2.187 124.104  0.00  0.00    +0.000 OA
ATOM      9  N   UNL     1      -8.719  -0.174 124.867  0.00  0.00    +0.000 N 
ATOM     10  H   UNL     1      -9.724  -0.328 124.785  0.00  0.00    +0.000 HD
BRANCH   7  11
ATOM     11  C   UNL     1      -6.205  -1.349 124.769  0.00  0.00    +0.000 C 
BRANCH  11  12
ATOM     12  N   UNL     1      -5.932  -1.832 126.194  0.00  0.00    +0.000 N 
ATOM     13  C   UNL     1      -5.532  -1.146 127.363  0.00  0.00    +0.000 C 
ATOM     14  O   UNL     1      -5.529   0.088 127.439  0.00  0.00    +0.000 OA
ATOM     15  H   UNL     1      -6.484  -2.659 126.323  0.00  0.00    +0.000 HD
BRANCH  13  16
ATOM     16  C   UNL     1      -5.145  -1.932 128.686  0.00  0.00    +0.000 C 
BRANCH  16  17
ATOM     17  N   UNL     1      -5.066  -0.995 129.853  0.00  0.00    +0.000 N 
ATOM     18  C   UNL     1      -3.889  -0.951 130.568  0.00  0.00    +0.000 C 
ATOM     19  O   UNL     1      -3.062  -1.850 130.425  0.00  0.00    +0.000 OA
ATOM     20  H   UNL     1      -5.683  -0.195 129.887  0.00  0.00    +0.000 HD
BRANCH  18  21
ATOM     21  C   UNL     1      -3.685   0.241 131.532  0.00  0.00    +0.000 C 
BRANCH  21  22
ATOM     22  C   UNL     1      -3.654  -0.177 133.034  0.00  0.00    +0.000 C 
ATOM     23  C   UNL     1      -4.732  -1.271 133.288  0.00  0.00    +0.000 C 
ATOM     24  C   UNL     1      -4.697  -1.801 134.698  0.00  0.00    +0.000 C 
ATOM     25  C   UNL     1      -3.290  -2.276 135.114  0.00  0.00    +0.000 C 
ATOM     26  C   UNL     1      -2.128  -1.359 134.781  0.00  0.00    +0.000 C 
ATOM     27  C   UNL     1      -2.257  -0.771 133.389  0.00  0.00    +0.000 C 
BRANCH  22  28
ATOM     28  S   UNL     1      -4.200   1.420 133.874  0.00  0.00    +0.000 S 
BRANCH  28  29
ATOM     29  C   UNL     1      -5.520   2.000 132.867  0.00  0.00    +0.000 C 
BRANCH  29  30
ATOM     30  C   UNL     1      -6.865   1.712 133.364  0.00  0.00    +0.000 C 
BRANCH  30  31
ATOM     31  C   UNL     1      -7.733   1.142 132.244  0.00  0.00    +0.000 C 
ATOM     32  N   UNL     1      -9.021   1.487 132.115  0.00  0.00    +0.000 N 
ATOM     33  O   UNL     1      -7.283   0.318 131.451  0.00  0.00    +0.000 OA
ATOM     34  H   UNL     1      -9.409   1.940 132.935  0.00  0.00    +0.000 HD
ATOM     35  H   UNL     1      -9.589   0.673 131.911  0.00  0.00    +0.000 HD
ENDBRANCH  30  31
ENDBRANCH  29  30
ENDBRANCH  28  29
ENDBRANCH  22  28
ENDBRANCH  21  22
ENDBRANCH  18  21
ENDBRANCH  16  17
BRANCH  16  36
ATOM     36  C   UNL     1      -6.300  -2.911 128.859  0.00  0.00    +0.000 C 
BRANCH  36  37
ATOM     37  C   UNL     1      -6.336  -3.575 130.220  0.00  0.00    +0.000 A 
ATOM     38  C   UNL     1      -7.248  -3.197 131.226  0.00  0.00    +0.000 A 
ATOM     39  C   UNL     1      -7.098  -3.652 132.532  0.00  0.00    +0.000 A 
ATOM     40  C   UNL     1      -6.121  -4.588 132.820  0.00  0.00    +0.000 A 
ATOM     41  C   UNL     1      -5.308  -5.081 131.810  0.00  0.00    +0.000 A 
ATOM     42  C   UNL     1      -5.390  -4.556 130.518  0.00  0.00    +0.000 A 
BRANCH  40  43
ATOM     43  O   UNL     1      -5.932  -5.044 134.091  0.00  0.00    +0.000 OA
ATOM     44  H   UNL     1      -5.156  -5.634 134.079  0.00  0.00    +0.000 HD
ENDBRANCH  40  43
ENDBRANCH  36  37
ENDBRANCH  16  36
ENDBRANCH  13  16
ENDBRANCH  11  12
BRANCH  11  45
ATOM     45  C   UNL     1      -5.357  -2.309 123.817  0.00  0.00    +0.000 C 
ATOM     46  C   UNL     1      -5.613  -2.180 122.314  0.00  0.00    +0.000 C 
BRANCH  45  48
ATOM     47  C   UNL     1      -4.382  -5.013 123.689  0.00  0.00    +0.000 C 
ATOM     48  C   UNL     1      -5.250  -3.805 124.085  0.00  0.00    +0.000 C 
ENDBRANCH  45  48
ENDBRANCH  11  45
ENDBRANCH   7  11
ENDBRANCH   6   9
BRANCH   6  49
ATOM     49  C   UNL     1      -8.917   1.638 123.355  0.00  0.00    +0.000 C 
ATOM     50  C   UNL     1     -10.255   1.055 122.911  0.00  0.00    +0.000 C 
BRANCH  49  51
ATOM     51  O   UNL     1      -9.190   3.045 123.397  0.00  0.00    +0.000 OA
ATOM     52  H   UNL     1      -9.748   3.208 122.621  0.00  0.00    +0.000 HD
ENDBRANCH  49  51
ENDBRANCH   6  49
ENDBRANCH   2   6
ENDBRANCH   1   4
BRANCH   1  53
ATOM     53  C   UNL     1      -5.657   4.268 128.238  0.00  0.00    +0.000 C 
ATOM     54  O   UNL     1      -5.214   5.289 127.709  0.00  0.00    +0.000 OA
ATOM     55  N   UNL     1      -4.918   3.575 129.194  0.00  0.00    +0.000 N 
ATOM     56  H   UNL     1      -5.172   2.623 129.315  0.00  0.00    +0.000 HD
BRANCH  55  57
ATOM     57  C   UNL     1      -3.447   3.750 129.457  0.00  0.00    +0.000 C 
BRANCH  57  58
ATOM     58  C   UNL     1      -2.924   4.819 130.584  0.00  0.00    +0.000 C 
ATOM     59  O   UNL     1      -2.262   4.522 131.578  0.00  0.00    +0.000 OA
ATOM     60  N   UNL     1      -3.428   6.095 130.516  0.00  0.00    +0.000 N 
ATOM     61  C   UNL     1      -4.745   6.333 131.072  0.00  0.00    +0.000 C 
ATOM     62  C   UNL     1      -5.070   7.629 130.422  0.00  0.00    +0.000 C 
ATOM     63  C   UNL     1      -3.784   8.328 130.759  0.00  0.00    +0.000 C 
ATOM     64  C   UNL     1      -2.620   7.331 130.754  0.00  0.00    +0.000 C 
BRANCH  64  65
ATOM     65  C   UNL     1      -1.848   7.558 132.133  0.00  0.00    +0.000 C 
ATOM     66  O   UNL     1      -0.791   6.963 132.353  0.00  0.00    +0.000 OA
ATOM     67  N   UNL     1      -2.439   8.379 133.126  0.00  0.00    +0.000 N 
ATOM     68  H   UNL     1      -3.437   8.541 133.097  0.00  0.00    +0.000 HD
BRANCH  67  69
ATOM     69  C   UNL     1      -1.821   8.705 134.475  0.00  0.00    +0.000 C 
BRANCH  69  70
ATOM     70  C   UNL     1      -2.584   8.191 135.718  0.00  0.00    +0.000 C 
ATOM     71  O   UNL     1      -3.595   8.765 136.113  0.00  0.00    +0.000 OA
ATOM     72  N   UNL     1      -2.035   7.079 136.357  0.00  0.00    +0.000 N 
ATOM     73  H   UNL     1      -1.077   6.831 136.166  0.00  0.00    +0.000 HD
BRANCH  72  74
ATOM     74  C   UNL     1      -2.791   6.286 137.357  0.00  0.00    +0.000 C 
BRANCH  74  75
ATOM     75  C   UNL     1      -1.912   5.782 138.536  0.00  0.00    +0.000 C 
ATOM     76  N   UNL     1      -1.539   4.466 138.568  0.00  0.00    +0.000 N 
ATOM     77  O   UNL     1      -1.570   6.512 139.466  0.00  0.00    +0.000 OA
ATOM     78  H   UNL     1      -1.725   3.771 137.869  0.00  0.00    +0.000 HD
ATOM     79  H   UNL     1      -0.962   4.172 139.348  0.00  0.00    +0.000 HD
ENDBRANCH  74  75
BRANCH  74  80
ATOM     80  C   UNL     1      -3.501   5.033 136.742  0.00  0.00    +0.000 C 
BRANCH  80  81
ATOM     81  C   UNL     1      -4.810   5.331 136.054  0.00  0.00    +0.000 A 
ATOM     82  C   UNL     1      -5.057   5.218 134.694  0.00  0.00    +0.000 A 
ATOM     83  C   UNL     1      -6.377   5.295 134.194  0.00  0.00    +0.000 A 
ATOM     84  C   UNL     1      -7.494   5.500 135.014  0.00  0.00    +0.000 A 
ATOM     85  C   UNL     1      -7.169   5.859 136.317  0.00  0.00    +0.000 A 
ATOM     86  I   UNL     1      -8.254   7.079 137.516  0.00  0.00    +0.000 I 
ATOM     87  C   UNL     1      -5.869   5.756 136.826  0.00  0.00    +0.000 A 
BRANCH  84  88
ATOM     88  N   UNL     1      -8.734   5.526 134.341  0.00  0.00    +0.000 NA
ATOM     89  N   UNL     1      -8.876   6.114 133.255  0.00  0.00    +0.000 NA
ATOM     90  N   UNL     1      -9.136   6.598 132.261  0.00  0.00    +0.000 NA
ENDBRANCH  84  88
ENDBRANCH  80  81
ENDBRANCH  74  80
ENDBRANCH  72  74
ENDBRANCH  69  70
BRANCH  69  91
ATOM     91  C   UNL     1      -1.926  10.168 134.783  0.00  0.00    +0.000 C 
BRANCH  91  92
ATOM     92  C   UNL     1      -1.816  10.886 133.509  0.00  0.00    +0.000 C 
BRANCH  92  93
ATOM     93  C   UNL     1      -2.738  12.010 133.596  0.00  0.00    +0.000 C 
BRANCH  93  94
ATOM     94  N   UNL     1      -2.108  12.892 132.674  0.00  0.00    +0.000 NA
ATOM     95  H   UNL     1      -1.856  13.808 133.038  0.00  0.00    +0.000 HD
ATOM     96  H   UNL     1      -2.804  12.991 131.974  0.00  0.00    +0.000 HD
ENDBRANCH  93  94
ENDBRANCH  92  93
ENDBRANCH  91  92
ENDBRANCH  69  91
ENDBRANCH  67  69
ENDBRANCH  64  65
ENDBRANCH  57  58
BRANCH  57  97
ATOM     97  C   UNL     1      -2.773   4.233 128.179  0.00  0.00    +0.000 C 
BRANCH  97  98
ATOM     98  S   UNL     1      -2.165   3.082 126.930  0.00  0.00    +0.000 S 
ATOM     99  H   UNL     1      -0.870   3.415 127.088  0.00  0.00    +0.000 HD
ENDBRANCH  97  98
ENDBRANCH  57  97
ENDBRANCH  55  57
ENDBRANCH   1  53
BRANCH   1 100
ATOM    100  C   UNL     1      -8.025   3.913 129.217  0.00  0.00    +0.000 C 
BRANCH 100 101
ATOM    101  C   UNL     1      -9.120   4.938 129.406  0.00  0.00    +0.000 C 
ATOM    102  N   UNL     1     -10.154   4.542 130.124  0.00  0.00    +0.000 N 
ATOM    103  O   UNL     1      -9.170   6.067 128.841  0.00  0.00    +0.000 OA
ATOM    104  H   UNL     1      -9.869   3.681 130.519  0.00  0.00    +0.000 HD
ATOM    105  H   UNL     1     -10.530   5.188 130.818  0.00  0.00    +0.000 HD
ENDBRANCH 100 101
ENDBRANCH   1 100
TORSDOF 39
ENDMDL
MODEL 8
REMARK VINA RESULT:      -7.8      2.734      7.062
REMARK  Name = CHEMBL3142789
REMARK  42 active torsions:
REMARK  status: ('A' for Active; 'I' for Inactive)
REMARK    1  A    between atoms: C_1  and  C_2
REMARK    2  A    between atoms: C_2  and  C_3
REMARK    3  A    between atoms: C_3  and  C_4
REMARK    4  A    between atoms: C_3  and  C_5
REMARK    5  A    between atoms: C_5  and  N_6
REMARK    6  A    between atoms: C_5  and  C_34
REMARK    7  A    between atoms: C_7  and  C_9
REMARK    8  A    between atoms: C_9  and  C_10
REMARK    9  A    between atoms: C_9  and  N_18
REMARK   10  A    between atoms: C_10  and  C_11
REMARK   11  A    between atoms: C_14  and  O_15
REMARK   12  A    between atoms: C_19  and  C_21
REMARK   13  A    between atoms: C_21  and  C_22
REMARK   14  A    between atoms: C_22  and  S_23
REMARK   15  A    between atoms: S_23  and  C_24
REMARK   16  A    between atoms: C_24  and  C_25
REMARK   17  A    between atoms: C_25  and  C_26
REMARK   18  A    between atoms: N_36  and  C_37
REMARK   19  A    between atoms: C_37  and  C_38
REMARK   20  A    between atoms: C_37  and  C_85
REMARK   21  A    between atoms: N_40  and  C_41
REMARK   22  A    between atoms: C_41  and  C_42
REMARK   23  A    between atoms: C_41  and  C_46
REMARK   24  A    between atoms: C_42  and  C_43
REMARK   25  A    between atoms: N_48  and  C_49
REMARK   26  A    between atoms: C_49  and  C_50
REMARK   27  A    between atoms: C_49  and  C_52
REMARK   28  A    between atoms: C_50  and  S_51
REMARK   29  A    between atoms: C_58  and  C_59
REMARK   30  A    between atoms: N_61  and  C_62
REMARK   31  A    between atoms: C_62  and  C_63
REMARK   32  A    between atoms: C_62  and  C_67
REMARK   33  A    between atoms: C_63  and  C_64
REMARK   34  A    between atoms: C_64  and  C_65
REMARK   35  A    between atoms: C_65  and  N_66
REMARK   36  A    between atoms: N_69  and  C_70
REMARK   37  A    between atoms: C_70  and  C_71
REMARK   38  A    between atoms: C_70  and  C_82
REMARK   39  A    between atoms: C_71  and  C_72
REMARK   40  A    between atoms: C_75  and  N_76
REMARK   41  A    between atoms: C_85  and  C_86
REMARK   42  A    between atoms: C_85  and  O_87
REMARK                            x       y       z     vdW  Elec       q    Type
REMARK                         _______ _______ _______ _____ _____    ______ ____
ROOT
ATOM      1  C   UNL     1      -5.922   2.957 135.516  0.00  0.00    +0.000 C 
ENDROOT
BRANCH   1   4
ATOM      2  C   UNL     1      -4.176   4.855 136.688  0.00  0.00    +0.000 C 
ATOM      3  O   UNL     1      -3.554   5.284 135.701  0.00  0.00    +0.000 OA
ATOM      4  N   UNL     1      -4.874   3.601 136.605  0.00  0.00    +0.000 N 
ATOM      5  H   UNL     1      -5.042   3.134 137.481  0.00  0.00    +0.000 HD
BRANCH   2   6
ATOM      6  C   UNL     1      -4.326   5.961 138.103  0.00  0.00    +0.000 C 
BRANCH   6   9
ATOM      7  C   UNL     1      -4.540   8.353 137.435  0.00  0.00    +0.000 C 
ATOM      8  O   UNL     1      -5.432   9.205 137.504  0.00  0.00    +0.000 OA
ATOM      9  N   UNL     1      -5.061   7.082 137.515  0.00  0.00    +0.000 N 
ATOM     10  H   UNL     1      -6.079   7.028 137.505  0.00  0.00    +0.000 HD
BRANCH   7  11
ATOM     11  C   UNL     1      -2.850   8.745 137.262  0.00  0.00    +0.000 C 
BRANCH  11  12
ATOM     12  N   UNL     1      -2.326   8.014 136.026  0.00  0.00    +0.000 N 
ATOM     13  C   UNL     1      -1.049   7.501 135.704  0.00  0.00    +0.000 C 
ATOM     14  O   UNL     1      -0.144   7.402 136.540  0.00  0.00    +0.000 OA
ATOM     15  H   UNL     1      -3.115   7.551 135.616  0.00  0.00    +0.000 HD
BRANCH  13  16
ATOM     16  C   UNL     1      -0.732   6.935 134.255  0.00  0.00    +0.000 C 
BRANCH  16  17
ATOM     17  N   UNL     1      -1.985   6.845 133.438  0.00  0.00    +0.000 N 
ATOM     18  C   UNL     1      -2.210   5.687 132.725  0.00  0.00    +0.000 C 
ATOM     19  O   UNL     1      -1.284   4.898 132.548  0.00  0.00    +0.000 OA
ATOM     20  H   UNL     1      -2.775   7.426 133.680  0.00  0.00    +0.000 HD
BRANCH  18  21
ATOM     21  C   UNL     1      -3.637   5.456 132.175  0.00  0.00    +0.000 C 
BRANCH  21  22
ATOM     22  C   UNL     1      -3.789   5.838 130.671  0.00  0.00    +0.000 C 
ATOM     23  C   UNL     1      -3.635   7.379 130.512  0.00  0.00    +0.000 C 
ATOM     24  C   UNL     1      -3.670   7.818 129.070  0.00  0.00    +0.000 C 
ATOM     25  C   UNL     1      -2.658   7.048 128.196  0.00  0.00    +0.000 C 
ATOM     26  C   UNL     1      -2.604   5.542 128.371  0.00  0.00    +0.000 C 
ATOM     27  C   UNL     1      -2.673   5.143 129.834  0.00  0.00    +0.000 C 
BRANCH  22  28
ATOM     28  S   UNL     1      -5.587   5.371 130.349  0.00  0.00    +0.000 S 
BRANCH  28  29
ATOM     29  C   UNL     1      -6.501   6.718 131.015  0.00  0.00    +0.000 C 
BRANCH  29  30
ATOM     30  C   UNL     1      -7.734   6.358 131.714  0.00  0.00    +0.000 C 
BRANCH  30  31
ATOM     31  C   UNL     1      -8.753   5.785 130.730  0.00  0.00    +0.000 C 
ATOM     32  N   UNL     1      -9.504   4.721 131.043  0.00  0.00    +0.000 N 
ATOM     33  O   UNL     1      -8.883   6.263 129.605  0.00  0.00    +0.000 OA
ATOM     34  H   UNL     1      -9.171   4.207 131.852  0.00  0.00    +0.000 HD
ATOM     35  H   UNL     1      -9.552   4.078 130.262  0.00  0.00    +0.000 HD
ENDBRANCH  30  31
ENDBRANCH  29  30
ENDBRANCH  28  29
ENDBRANCH  22  28
ENDBRANCH  21  22
ENDBRANCH  18  21
ENDBRANCH  16  17
BRANCH  16  36
ATOM     36  C   UNL     1       0.217   7.976 133.674  0.00  0.00    +0.000 C 
BRANCH  36  37
ATOM     37  C   UNL     1      -0.436   9.318 133.416  0.00  0.00    +0.000 A 
ATOM     38  C   UNL     1      -1.707   9.443 132.819  0.00  0.00    +0.000 A 
ATOM     39  C   UNL     1      -2.170  10.678 132.379  0.00  0.00    +0.000 A 
ATOM     40  C   UNL     1      -1.432  11.818 132.647  0.00  0.00    +0.000 A 
ATOM     41  C   UNL     1      -0.248  11.729 133.364  0.00  0.00    +0.000 A 
ATOM     42  C   UNL     1       0.269  10.482 133.723  0.00  0.00    +0.000 A 
BRANCH  40  43
ATOM     43  O   UNL     1      -1.843  13.043 132.215  0.00  0.00    +0.000 OA
ATOM     44  H   UNL     1      -2.557  13.339 132.809  0.00  0.00    +0.000 HD
ENDBRANCH  40  43
ENDBRANCH  36  37
ENDBRANCH  16  36
ENDBRANCH  13  16
ENDBRANCH  11  12
BRANCH  11  45
ATOM     45  C   UNL     1      -2.424  10.271 137.077  0.00  0.00    +0.000 C 
ATOM     46  C   UNL     1      -2.989  10.995 135.854  0.00  0.00    +0.000 C 
BRANCH  45  48
ATOM     47  C   UNL     1       0.238  10.591 138.122  0.00  0.00    +0.000 C 
ATOM     48  C   UNL     1      -0.967  10.709 137.172  0.00  0.00    +0.000 C 
ENDBRANCH  45  48
ENDBRANCH  11  45
ENDBRANCH   7  11
ENDBRANCH   6   9
BRANCH   6  49
ATOM     49  C   UNL     1      -5.018   5.948 139.594  0.00  0.00    +0.000 C 
ATOM     50  C   UNL     1      -6.499   5.632 139.773  0.00  0.00    +0.000 C 
BRANCH  49  51
ATOM     51  O   UNL     1      -4.386   4.924 140.373  0.00  0.00    +0.000 OA
ATOM     52  H   UNL     1      -4.563   4.104 139.888  0.00  0.00    +0.000 HD
ENDBRANCH  49  51
ENDBRANCH   6  49
ENDBRANCH   2   6
ENDBRANCH   1   4
BRANCH   1  53
ATOM     53  C   UNL     1      -5.104   1.986 134.513  0.00  0.00    +0.000 C 
ATOM     54  O   UNL     1      -4.101   2.449 133.967  0.00  0.00    +0.000 OA
ATOM     55  N   UNL     1      -5.413   0.631 134.420  0.00  0.00    +0.000 N 
ATOM     56  H   UNL     1      -6.366   0.404 134.580  0.00  0.00    +0.000 HD
BRANCH  55  57
ATOM     57  C   UNL     1      -4.813  -0.336 133.435  0.00  0.00    +0.000 C 
BRANCH  57  58
ATOM     58  C   UNL     1      -5.719  -0.952 132.216  0.00  0.00    +0.000 C 
ATOM     59  O   UNL     1      -6.578  -0.327 131.596  0.00  0.00    +0.000 OA
ATOM     60  N   UNL     1      -5.649  -2.309 132.010  0.00  0.00    +0.000 N 
ATOM     61  C   UNL     1      -6.440  -3.165 132.871  0.00  0.00    +0.000 C 
ATOM     62  C   UNL     1      -5.764  -4.466 132.632  0.00  0.00    +0.000 C 
ATOM     63  C   UNL     1      -5.774  -4.402 131.131  0.00  0.00    +0.000 C 
ATOM     64  C   UNL     1      -5.615  -2.952 130.661  0.00  0.00    +0.000 C 
BRANCH  64  65
ATOM     65  C   UNL     1      -6.785  -2.709 129.601  0.00  0.00    +0.000 C 
ATOM     66  O   UNL     1      -7.631  -3.584 129.406  0.00  0.00    +0.000 OA
ATOM     67  N   UNL     1      -6.780  -1.519 128.832  0.00  0.00    +0.000 N 
ATOM     68  H   UNL     1      -5.913  -1.011 128.721  0.00  0.00    +0.000 HD
BRANCH  67  69
ATOM     69  C   UNL     1      -7.830  -1.137 127.801  0.00  0.00    +0.000 C 
BRANCH  69  70
ATOM     70  C   UNL     1      -7.756  -1.876 126.444  0.00  0.00    +0.000 C 
ATOM     71  O   UNL     1      -7.848  -3.099 126.393  0.00  0.00    +0.000 OA
ATOM     72  N   UNL     1      -7.550  -1.075 125.322  0.00  0.00    +0.000 N 
ATOM     73  H   UNL     1      -7.207  -0.136 125.449  0.00  0.00    +0.000 HD
BRANCH  72  74
ATOM     74  C   UNL     1      -7.759  -1.576 123.941  0.00  0.00    +0.000 C 
BRANCH  74  75
ATOM     75  C   UNL     1      -6.449  -2.052 123.253  0.00  0.00    +0.000 C 
ATOM     76  N   UNL     1      -5.521  -2.730 123.995  0.00  0.00    +0.000 N 
ATOM     77  O   UNL     1      -6.195  -1.808 122.075  0.00  0.00    +0.000 OA
ATOM     78  H   UNL     1      -5.608  -3.017 124.953  0.00  0.00    +0.000 HD
ATOM     79  H   UNL     1      -4.681  -3.031 123.514  0.00  0.00    +0.000 HD
ENDBRANCH  74  75
BRANCH  74  80
ATOM     80  C   UNL     1      -8.420  -0.518 122.994  0.00  0.00    +0.000 C 
BRANCH  80  81
ATOM     81  C   UNL     1      -8.333   0.904 123.487  0.00  0.00    +0.000 A 
ATOM     82  C   UNL     1      -9.272   1.550 124.277  0.00  0.00    +0.000 A 
ATOM     83  C   UNL     1      -8.976   2.798 124.872  0.00  0.00    +0.000 A 
ATOM     84  C   UNL     1      -7.752   3.457 124.698  0.00  0.00    +0.000 A 
ATOM     85  C   UNL     1      -6.956   2.898 123.705  0.00  0.00    +0.000 A 
ATOM     86  I   UNL     1      -5.672   3.907 122.507  0.00  0.00    +0.000 I 
ATOM     87  C   UNL     1      -7.228   1.649 123.134  0.00  0.00    +0.000 A 
BRANCH  84  88
ATOM     88  N   UNL     1      -7.627   4.682 125.387  0.00  0.00    +0.000 NA
ATOM     89  N   UNL     1      -8.620   5.285 125.831  0.00  0.00    +0.000 NA
ATOM     90  N   UNL     1      -9.434   5.927 126.294  0.00  0.00    +0.000 NA
ENDBRANCH  84  88
ENDBRANCH  80  81
ENDBRANCH  74  80
ENDBRANCH  72  74
ENDBRANCH  69  70
BRANCH  69  91
ATOM     91  C   UNL     1      -7.596   0.246 127.274  0.00  0.00    +0.000 C 
BRANCH  91  92
ATOM     92  C   UNL     1      -8.281   1.175 128.179  0.00  0.00    +0.000 C 
BRANCH  92  93
ATOM     93  C   UNL     1      -7.437   2.359 128.260  0.00  0.00    +0.000 C 
BRANCH  93  94
ATOM     94  N   UNL     1      -8.449   3.359 128.252  0.00  0.00    +0.000 NA
ATOM     95  H   UNL     1      -8.630   3.813 129.145  0.00  0.00    +0.000 HD
ATOM     96  H   UNL     1      -9.247   2.843 127.971  0.00  0.00    +0.000 HD
ENDBRANCH  93  94
ENDBRANCH  92  93
ENDBRANCH  91  92
ENDBRANCH  69  91
ENDBRANCH  67  69
ENDBRANCH  64  65
ENDBRANCH  57  58
BRANCH  57  97
ATOM     97  C   UNL     1      -4.349  -1.577 134.186  0.00  0.00    +0.000 C 
BRANCH  97  98
ATOM     98  S   UNL     1      -4.364  -1.661 135.989  0.00  0.00    +0.000 S 
ATOM     99  H   UNL     1      -3.982  -0.381 136.166  0.00  0.00    +0.000 HD
ENDBRANCH  97  98
ENDBRANCH  57  97
ENDBRANCH  55  57
ENDBRANCH   1  53
BRANCH   1 100
ATOM    100  C   UNL     1      -6.721   3.990 134.754  0.00  0.00    +0.000 C 
BRANCH 100 101
ATOM    101  C   UNL     1      -8.016   3.615 134.071  0.00  0.00    +0.000 C 
ATOM    102  N   UNL     1      -9.091   4.253 134.495  0.00  0.00    +0.000 N 
ATOM    103  O   UNL     1      -8.157   2.677 133.237  0.00  0.00    +0.000 OA
ATOM    104  H   UNL     1      -8.740   4.976 135.073  0.00  0.00    +0.000 HD
ATOM    105  H   UNL     1      -9.752   4.594 133.796  0.00  0.00    +0.000 HD
ENDBRANCH 100 101
ENDBRANCH   1 100
TORSDOF 39
ENDMDL
MODEL 9
REMARK VINA RESULT:      -7.8      3.214      7.670
REMARK  Name = CHEMBL3142789
REMARK  42 active torsions:
REMARK  status: ('A' for Active; 'I' for Inactive)
REMARK    1  A    between atoms: C_1  and  C_2
REMARK    2  A    between atoms: C_2  and  C_3
REMARK    3  A    between atoms: C_3  and  C_4
REMARK    4  A    between atoms: C_3  and  C_5
REMARK    5  A    between atoms: C_5  and  N_6
REMARK    6  A    between atoms: C_5  and  C_34
REMARK    7  A    between atoms: C_7  and  C_9
REMARK    8  A    between atoms: C_9  and  C_10
REMARK    9  A    between atoms: C_9  and  N_18
REMARK   10  A    between atoms: C_10  and  C_11
REMARK   11  A    between atoms: C_14  and  O_15
REMARK   12  A    between atoms: C_19  and  C_21
REMARK   13  A    between atoms: C_21  and  C_22
REMARK   14  A    between atoms: C_22  and  S_23
REMARK   15  A    between atoms: S_23  and  C_24
REMARK   16  A    between atoms: C_24  and  C_25
REMARK   17  A    between atoms: C_25  and  C_26
REMARK   18  A    between atoms: N_36  and  C_37
REMARK   19  A    between atoms: C_37  and  C_38
REMARK   20  A    between atoms: C_37  and  C_85
REMARK   21  A    between atoms: N_40  and  C_41
REMARK   22  A    between atoms: C_41  and  C_42
REMARK   23  A    between atoms: C_41  and  C_46
REMARK   24  A    between atoms: C_42  and  C_43
REMARK   25  A    between atoms: N_48  and  C_49
REMARK   26  A    between atoms: C_49  and  C_50
REMARK   27  A    between atoms: C_49  and  C_52
REMARK   28  A    between atoms: C_50  and  S_51
REMARK   29  A    between atoms: C_58  and  C_59
REMARK   30  A    between atoms: N_61  and  C_62
REMARK   31  A    between atoms: C_62  and  C_63
REMARK   32  A    between atoms: C_62  and  C_67
REMARK   33  A    between atoms: C_63  and  C_64
REMARK   34  A    between atoms: C_64  and  C_65
REMARK   35  A    between atoms: C_65  and  N_66
REMARK   36  A    between atoms: N_69  and  C_70
REMARK   37  A    between atoms: C_70  and  C_71
REMARK   38  A    between atoms: C_70  and  C_82
REMARK   39  A    between atoms: C_71  and  C_72
REMARK   40  A    between atoms: C_75  and  N_76
REMARK   41  A    between atoms: C_85  and  C_86
REMARK   42  A    between atoms: C_85  and  O_87
REMARK                            x       y       z     vdW  Elec       q    Type
REMARK                         _______ _______ _______ _____ _____    ______ ____
ROOT
ATOM      1  C   UNL     1      -5.312   3.880 135.949  0.00  0.00    +0.000 C 
ENDROOT
BRANCH   1   4
ATOM      2  C   UNL     1      -3.590   6.007 136.680  0.00  0.00    +0.000 C 
ATOM      3  O   UNL     1      -3.184   6.407 135.576  0.00  0.00    +0.000 OA
ATOM      4  N   UNL     1      -4.167   4.696 136.800  0.00  0.00    +0.000 N 
ATOM      5  H   UNL     1      -4.142   4.287 137.720  0.00  0.00    +0.000 HD
BRANCH   2   6
ATOM      6  C   UNL     1      -3.612   7.206 138.026  0.00  0.00    +0.000 C 
BRANCH   6   9
ATOM      7  C   UNL     1      -4.395   9.500 137.449  0.00  0.00    +0.000 C 
ATOM      8  O   UNL     1      -5.431  10.147 137.642  0.00  0.00    +0.000 OA
ATOM      9  N   UNL     1      -4.627   8.149 137.555  0.00  0.00    +0.000 N 
ATOM     10  H   UNL     1      -5.606   7.882 137.660  0.00  0.00    +0.000 HD
BRANCH   7  11
ATOM     11  C   UNL     1      -2.856  10.238 137.095  0.00  0.00    +0.000 C 
BRANCH  11  12
ATOM     12  N   UNL     1      -2.498   9.897 135.648  0.00  0.00    +0.000 N 
ATOM     13  C   UNL     1      -1.393   9.220 135.084  0.00  0.00    +0.000 C 
ATOM     14  O   UNL     1      -0.582   8.587 135.770  0.00  0.00    +0.000 OA
ATOM     15  H   UNL     1      -3.365   9.841 135.148  0.00  0.00    +0.000 HD
BRANCH  13  16
ATOM     16  C   UNL     1      -1.182   9.158 133.512  0.00  0.00    +0.000 C 
BRANCH  16  17
ATOM     17  N   UNL     1      -2.168   8.221 132.883  0.00  0.00    +0.000 N 
ATOM     18  C   UNL     1      -1.712   6.993 132.457  0.00  0.00    +0.000 C 
ATOM     19  O   UNL     1      -0.502   6.806 132.340  0.00  0.00    +0.000 OA
ATOM     20  H   UNL     1      -3.151   8.328 133.090  0.00  0.00    +0.000 HD
BRANCH  18  21
ATOM     21  C   UNL     1      -2.770   5.912 132.138  0.00  0.00    +0.000 C 
BRANCH  21  22
ATOM     22  C   UNL     1      -3.166   5.860 130.631  0.00  0.00    +0.000 C 
ATOM     23  C   UNL     1      -1.998   6.429 129.771  0.00  0.00    +0.000 C 
ATOM     24  C   UNL     1      -2.263   6.321 128.291  0.00  0.00    +0.000 C 
ATOM     25  C   UNL     1      -2.643   4.888 127.865  0.00  0.00    +0.000 C 
ATOM     26  C   UNL     1      -3.667   4.164 128.719  0.00  0.00    +0.000 C 
ATOM     27  C   UNL     1      -3.419   4.384 130.200  0.00  0.00    +0.000 C 
BRANCH  22  28
ATOM     28  S   UNL     1      -4.604   7.079 130.582  0.00  0.00    +0.000 S 
BRANCH  28  29
ATOM     29  C   UNL     1      -6.029   6.060 130.738  0.00  0.00    +0.000 C 
BRANCH  29  30
ATOM     30  C   UNL     1      -6.948   6.425 131.816  0.00  0.00    +0.000 C 
BRANCH  30  31
ATOM     31  C   UNL     1      -8.340   6.703 131.253  0.00  0.00    +0.000 C 
ATOM     32  N   UNL     1      -9.439   6.188 131.821  0.00  0.00    +0.000 N 
ATOM     33  O   UNL     1      -8.488   7.378 130.236  0.00  0.00    +0.000 OA
ATOM     34  H   UNL     1      -9.250   5.433 132.471  0.00  0.00    +0.000 HD
ATOM     35  H   UNL     1     -10.074   5.839 131.113  0.00  0.00    +0.000 HD
ENDBRANCH  30  31
ENDBRANCH  29  30
ENDBRANCH  28  29
ENDBRANCH  22  28
ENDBRANCH  21  22
ENDBRANCH  18  21
ENDBRANCH  16  17
BRANCH  16  36
ATOM     36  C   UNL     1      -1.444  10.593 133.069  0.00  0.00    +0.000 C 
BRANCH  36  37
ATOM     37  C   UNL     1      -0.314  11.546 133.395  0.00  0.00    +0.000 A 
ATOM     38  C   UNL     1      -0.535  12.841 133.907  0.00  0.00    +0.000 A 
ATOM     39  C   UNL     1       0.498  13.770 133.967  0.00  0.00    +0.000 A 
ATOM     40  C   UNL     1       1.785  13.380 133.643  0.00  0.00    +0.000 A 
ATOM     41  C   UNL     1       2.046  12.068 133.278  0.00  0.00    +0.000 A 
ATOM     42  C   UNL     1       0.998  11.158 133.122  0.00  0.00    +0.000 A 
BRANCH  40  43
ATOM     43  O   UNL     1       2.820  14.267 133.673  0.00  0.00    +0.000 OA
ATOM     44  H   UNL     1       2.450  15.155 133.518  0.00  0.00    +0.000 HD
ENDBRANCH  40  43
ENDBRANCH  36  37
ENDBRANCH  16  36
ENDBRANCH  13  16
ENDBRANCH  11  12
BRANCH  11  45
ATOM     45  C   UNL     1      -2.710  11.822 137.216  0.00  0.00    +0.000 C 
ATOM     46  C   UNL     1      -1.289  12.384 137.158  0.00  0.00    +0.000 C 
BRANCH  45  48
ATOM     47  C   UNL     1      -3.479  14.032 138.891  0.00  0.00    +0.000 C 
ATOM     48  C   UNL     1      -3.413  12.605 138.319  0.00  0.00    +0.000 C 
ENDBRANCH  45  48
ENDBRANCH  11  45
ENDBRANCH   7  11
ENDBRANCH   6   9
BRANCH   6  49
ATOM     49  C   UNL     1      -3.958   7.230 139.633  0.00  0.00    +0.000 C 
ATOM     50  C   UNL     1      -3.574   8.421 140.505  0.00  0.00    +0.000 C 
BRANCH  49  51
ATOM     51  O   UNL     1      -5.383   7.181 139.786  0.00  0.00    +0.000 OA
ATOM     52  H   UNL     1      -5.608   6.244 139.675  0.00  0.00    +0.000 HD
ENDBRANCH  49  51
ENDBRANCH   6  49
ENDBRANCH   2   6
ENDBRANCH   1   4
BRANCH   1  53
ATOM     53  C   UNL     1      -4.579   2.892 134.897  0.00  0.00    +0.000 C 
ATOM     54  O   UNL     1      -3.501   3.261 134.430  0.00  0.00    +0.000 OA
ATOM     55  N   UNL     1      -5.056   1.602 134.678  0.00  0.00    +0.000 N 
ATOM     56  H   UNL     1      -6.037   1.491 134.783  0.00  0.00    +0.000 HD
BRANCH  55  57
ATOM     57  C   UNL     1      -4.540   0.646 133.637  0.00  0.00    +0.000 C 
BRANCH  57  58
ATOM     58  C   UNL     1      -5.220   0.591 132.146  0.00  0.00    +0.000 C 
ATOM     59  O   UNL     1      -4.636   0.243 131.121  0.00  0.00    +0.000 OA
ATOM     60  N   UNL     1      -6.462   1.162 132.006  0.00  0.00    +0.000 N 
ATOM     61  C   UNL     1      -6.532   2.602 131.856  0.00  0.00    +0.000 C 
ATOM     62  C   UNL     1      -7.965   2.826 132.179  0.00  0.00    +0.000 C 
ATOM     63  C   UNL     1      -8.523   1.773 131.265  0.00  0.00    +0.000 C 
ATOM     64  C   UNL     1      -7.565   0.580 131.181  0.00  0.00    +0.000 C 
BRANCH  64  65
ATOM     65  C   UNL     1      -7.366   0.291 129.623  0.00  0.00    +0.000 C 
ATOM     66  O   UNL     1      -7.943   0.991 128.788  0.00  0.00    +0.000 OA
ATOM     67  N   UNL     1      -6.595  -0.828 129.224  0.00  0.00    +0.000 N 
ATOM     68  H   UNL     1      -6.456  -1.586 129.879  0.00  0.00    +0.000 HD
BRANCH  67  69
ATOM     69  C   UNL     1      -6.301  -1.221 127.786  0.00  0.00    +0.000 C 
BRANCH  69  70
ATOM     70  C   UNL     1      -7.494  -1.771 126.970  0.00  0.00    +0.000 C 
ATOM     71  O   UNL     1      -8.364  -2.446 127.513  0.00  0.00    +0.000 OA
ATOM     72  N   UNL     1      -7.489  -1.480 125.606  0.00  0.00    +0.000 N 
ATOM     73  H   UNL     1      -6.630  -1.177 125.176  0.00  0.00    +0.000 HD
BRANCH  72  74
ATOM     74  C   UNL     1      -8.688  -1.662 124.753  0.00  0.00    +0.000 C 
BRANCH  74  75
ATOM     75  C   UNL     1      -8.897  -3.130 124.288  0.00  0.00    +0.000 C 
ATOM     76  N   UNL     1      -8.009  -4.087 124.698  0.00  0.00    +0.000 N 
ATOM     77  O   UNL     1      -9.809  -3.462 123.532  0.00  0.00    +0.000 OA
ATOM     78  H   UNL     1      -7.240  -3.963 125.330  0.00  0.00    +0.000 HD
ATOM     79  H   UNL     1      -8.178  -5.036 124.381  0.00  0.00    +0.000 HD
ENDBRANCH  74  75
BRANCH  74  80
ATOM     80  C   UNL     1      -8.672  -0.769 123.466  0.00  0.00    +0.000 C 
BRANCH  80  81
ATOM     81  C   UNL     1      -8.576   0.713 123.735  0.00  0.00    +0.000 A 
ATOM     82  C   UNL     1      -9.440   1.453 124.526  0.00  0.00    +0.000 A 
ATOM     83  C   UNL     1      -9.120   2.779 124.897  0.00  0.00    +0.000 A 
ATOM     84  C   UNL     1      -7.946   3.424 124.489  0.00  0.00    +0.000 A 
ATOM     85  C   UNL     1      -7.249   2.737 123.502  0.00  0.00    +0.000 A 
ATOM     86  I   UNL     1      -6.139   3.579 122.030  0.00  0.00    +0.000 I 
ATOM     87  C   UNL     1      -7.543   1.414 123.153  0.00  0.00    +0.000 A 
BRANCH  84  88
ATOM     88  N   UNL     1      -7.784   4.739 124.974  0.00  0.00    +0.000 NA
ATOM     89  N   UNL     1      -8.618   5.262 125.734  0.00  0.00    +0.000 NA
ATOM     90  N   UNL     1      -9.291   5.848 126.437  0.00  0.00    +0.000 NA
ENDBRANCH  84  88
ENDBRANCH  80  81
ENDBRANCH  74  80
ENDBRANCH  72  74
ENDBRANCH  69  70
BRANCH  69  91
ATOM     91  C   UNL     1      -5.447  -2.451 127.722  0.00  0.00    +0.000 C 
BRANCH  91  92
ATOM     92  C   UNL     1      -4.461  -2.350 128.803  0.00  0.00    +0.000 C 
BRANCH  92  93
ATOM     93  C   UNL     1      -4.226  -3.710 129.268  0.00  0.00    +0.000 C 
BRANCH  93  94
ATOM     94  N   UNL     1      -2.804  -3.709 129.265  0.00  0.00    +0.000 NA
ATOM     95  H   UNL     1      -2.358  -3.941 130.150  0.00  0.00    +0.000 HD
ATOM     96  H   UNL     1      -2.599  -2.769 129.024  0.00  0.00    +0.000 HD
ENDBRANCH  93  94
ENDBRANCH  92  93
ENDBRANCH  91  92
ENDBRANCH  69  91
ENDBRANCH  67  69
ENDBRANCH  64  65
ENDBRANCH  57  58
BRANCH  57  97
ATOM     97  C   UNL     1      -4.709  -0.778 134.150  0.00  0.00    +0.000 C 
BRANCH  97  98
ATOM     98  S   UNL     1      -3.856  -2.173 133.387  0.00  0.00    +0.000 S 
ATOM     99  H   UNL     1      -2.712  -1.999 134.077  0.00  0.00    +0.000 HD
ENDBRANCH  97  98
ENDBRANCH  57  97
ENDBRANCH  55  57
ENDBRANCH   1  53
BRANCH   1 100
ATOM    100  C   UNL     1      -6.313   4.778 135.258  0.00  0.00    +0.000 C 
BRANCH 100 101
ATOM    101  C   UNL     1      -7.223   5.680 136.061  0.00  0.00    +0.000 C 
ATOM    102  N   UNL     1      -8.330   6.062 135.451  0.00  0.00    +0.000 N 
ATOM    103  O   UNL     1      -6.949   6.177 137.189  0.00  0.00    +0.000 OA
ATOM    104  H   UNL     1      -8.372   5.502 134.636  0.00  0.00    +0.000 HD
ATOM    105  H   UNL     1      -9.200   6.046 135.984  0.00  0.00    +0.000 HD
ENDBRANCH 100 101
ENDBRANCH   1 100
TORSDOF 39
ENDMDL
