MODEL 1
REMARK VINA RESULT:      -9.4      0.000      0.000
REMARK  Name = CHEMBL4205970
REMARK  2 active torsions:
REMARK  status: ('A' for Active; 'I' for Inactive)
REMARK    1  A    between atoms: C_2  and  C_3
REMARK    2  A    between atoms: C_6  and  C_7
REMARK                            x       y       z     vdW  Elec       q    Type
REMARK                         _______ _______ _______ _____ _____    ______ ____
ROOT
ATOM      1  O   UNL     1      -6.438  -0.329 123.732  0.00  0.00    +0.000 OA
ATOM      2  C   UNL     1      -7.321  -0.240 124.724  0.00  0.00    +0.000 C 
ATOM      3  N   UNL     1      -7.514  -1.283 126.294  0.00  0.00    +0.000 N 
ATOM      4  C   UNL     1      -6.447  -0.353 126.133  0.00  0.00    +0.000 C 
ATOM      5  C   UNL     1      -5.555  -1.496 126.202  0.00  0.00    +0.000 C 
ATOM      6  C   UNL     1      -5.751  -1.359 127.662  0.00  0.00    +0.000 C 
ATOM      7  C   UNL     1      -5.525  -2.818 127.975  0.00  0.00    +0.000 C 
ATOM      8  C   UNL     1      -6.407  -2.654 129.066  0.00  0.00    +0.000 A 
ATOM      9  C   UNL     1      -5.483  -3.234 130.494  0.00  0.00    +0.000 A 
ATOM     10  C   UNL     1      -5.952  -3.512 131.741  0.00  0.00    +0.000 A 
ATOM     11  C   UNL     1      -7.205  -2.980 131.563  0.00  0.00    +0.000 A 
ATOM     12  C   UNL     1      -7.915  -2.312 129.974  0.00  0.00    +0.000 A 
ATOM     13  C   UNL     1      -7.772  -2.114 128.192  0.00  0.00    +0.000 A 
ENDROOT
BRANCH   2  14
ATOM     14  C   UNL     1      -7.407   1.599 124.402  0.00  0.00    +0.000 A 
ATOM     15  C   UNL     1      -8.358   2.055 123.524  0.00  0.00    +0.000 A 
ATOM     16  C   UNL     1      -7.845   2.600 122.361  0.00  0.00    +0.000 A 
ATOM     17  C   UNL     1      -6.683   3.371 122.336  0.00  0.00    +0.000 A 
ATOM     18  C   UNL     1      -5.995   3.471 123.535  0.00  0.00    +0.000 A 
ATOM     19  C   UNL     1      -6.415   2.653 124.635  0.00  0.00    +0.000 A 
BRANCH  17  20
ATOM     20  C   UNL     1      -6.352   4.093 121.108  0.00  0.00    +0.000 A 
ATOM     21  C   UNL     1      -7.124   4.051 119.950  0.00  0.00    +0.000 A 
ATOM     22  C   UNL     1      -6.790   4.862 118.868  0.00  0.00    +0.000 A 
ATOM     23  C   UNL     1      -5.683   5.688 118.970  0.00  0.00    +0.000 A 
ATOM     24  N   UNL     1      -4.885   5.739 120.052  0.00  0.00    +0.000 NA
ATOM     25  C   UNL     1      -5.237   4.940 121.084  0.00  0.00    +0.000 A 
ENDBRANCH  17  20
ENDBRANCH   2  14
TORSDOF 2
ENDMDL
MODEL 2
REMARK VINA RESULT:      -9.1      7.277      9.243
REMARK  Name = CHEMBL4205970
REMARK  2 active torsions:
REMARK  status: ('A' for Active; 'I' for Inactive)
REMARK    1  A    between atoms: C_2  and  C_3
REMARK    2  A    between atoms: C_6  and  C_7
REMARK                            x       y       z     vdW  Elec       q    Type
REMARK                         _______ _______ _______ _____ _____    ______ ____
ROOT
ATOM      1  O   UNL     1     -10.120   3.217 131.518  0.00  0.00    +0.000 OA
ATOM      2  C   UNL     1     -10.560   3.673 130.347  0.00  0.00    +0.000 C 
ATOM      3  N   UNL     1     -11.762   5.084 129.952  0.00  0.00    +0.000 N 
ATOM      4  C   UNL     1     -10.440   5.329 130.422  0.00  0.00    +0.000 C 
ATOM      5  C   UNL     1     -11.059   5.928 131.590  0.00  0.00    +0.000 C 
ATOM      6  C   UNL     1     -11.205   7.109 130.710  0.00  0.00    +0.000 C 
ATOM      7  C   UNL     1     -12.433   7.652 131.398  0.00  0.00    +0.000 C 
ATOM      8  C   UNL     1     -12.817   8.188 130.149  0.00  0.00    +0.000 A 
ATOM      9  C   UNL     1     -13.091   9.935 130.465  0.00  0.00    +0.000 A 
ATOM     10  C   UNL     1     -13.700  10.848 129.660  0.00  0.00    +0.000 A 
ATOM     11  C   UNL     1     -13.769  10.055 128.542  0.00  0.00    +0.000 A 
ATOM     12  C   UNL     1     -13.303   8.254 128.425  0.00  0.00    +0.000 A 
ATOM     13  C   UNL     1     -12.846   6.728 129.261  0.00  0.00    +0.000 A 
ENDROOT
BRANCH   2  14
ATOM     14  C   UNL     1      -8.931   3.144 129.598  0.00  0.00    +0.000 A 
ATOM     15  C   UNL     1      -8.009   4.119 129.310  0.00  0.00    +0.000 A 
ATOM     16  C   UNL     1      -7.759   4.284 127.959  0.00  0.00    +0.000 A 
ATOM     17  C   UNL     1      -7.702   3.214 127.065  0.00  0.00    +0.000 A 
ATOM     18  C   UNL     1      -8.026   1.971 127.584  0.00  0.00    +0.000 A 
ATOM     19  C   UNL     1      -8.556   1.902 128.914  0.00  0.00    +0.000 A 
BRANCH  17  20
ATOM     20  C   UNL     1      -7.203   3.463 125.714  0.00  0.00    +0.000 A 
ATOM     21  C   UNL     1      -6.057   4.202 125.432  0.00  0.00    +0.000 A 
ATOM     22  C   UNL     1      -5.596   4.290 124.120  0.00  0.00    +0.000 A 
ATOM     23  C   UNL     1      -6.302   3.641 123.121  0.00  0.00    +0.000 A 
ATOM     24  N   UNL     1      -7.433   2.944 123.335  0.00  0.00    +0.000 NA
ATOM     25  C   UNL     1      -7.853   2.880 124.619  0.00  0.00    +0.000 A 
ENDBRANCH  17  20
ENDBRANCH   2  14
TORSDOF 2
ENDMDL
MODEL 3
REMARK VINA RESULT:      -9.1      6.599      8.651
REMARK  Name = CHEMBL4205970
REMARK  2 active torsions:
REMARK  status: ('A' for Active; 'I' for Inactive)
REMARK    1  A    between atoms: C_2  and  C_3
REMARK    2  A    between atoms: C_6  and  C_7
REMARK                            x       y       z     vdW  Elec       q    Type
REMARK                         _______ _______ _______ _____ _____    ______ ____
ROOT
ATOM      1  O   UNL     1      -6.668   1.372 134.279  0.00  0.00    +0.000 OA
ATOM      2  C   UNL     1      -6.811   1.699 132.996  0.00  0.00    +0.000 C 
ATOM      3  N   UNL     1      -6.772   0.617 131.441  0.00  0.00    +0.000 N 
ATOM      4  C   UNL     1      -7.866   0.587 132.352  0.00  0.00    +0.000 C 
ATOM      5  C   UNL     1      -7.512  -0.797 132.600  0.00  0.00    +0.000 C 
ATOM      6  C   UNL     1      -8.258  -1.047 131.347  0.00  0.00    +0.000 C 
ATOM      7  C   UNL     1      -7.482  -2.282 130.960  0.00  0.00    +0.000 C 
ATOM      8  C   UNL     1      -7.731  -1.938 129.613  0.00  0.00    +0.000 A 
ATOM      9  C   UNL     1      -8.485  -3.403 128.896  0.00  0.00    +0.000 A 
ATOM     10  C   UNL     1      -8.695  -3.681 127.581  0.00  0.00    +0.000 A 
ATOM     11  C   UNL     1      -8.385  -2.433 127.102  0.00  0.00    +0.000 A 
ATOM     12  C   UNL     1      -7.714  -0.998 128.086  0.00  0.00    +0.000 A 
ATOM     13  C   UNL     1      -7.017  -0.385 129.626  0.00  0.00    +0.000 A 
ENDROOT
BRANCH   2  14
ATOM     14  C   UNL     1      -7.922   3.100 133.541  0.00  0.00    +0.000 A 
ATOM     15  C   UNL     1      -9.266   2.994 133.281  0.00  0.00    +0.000 A 
ATOM     16  C   UNL     1      -9.744   3.920 132.370  0.00  0.00    +0.000 A 
ATOM     17  C   UNL     1      -9.295   5.240 132.327  0.00  0.00    +0.000 A 
ATOM     18  C   UNL     1      -8.248   5.553 133.180  0.00  0.00    +0.000 A 
ATOM     19  C   UNL     1      -7.602   4.488 133.890  0.00  0.00    +0.000 A 
BRANCH  17  20
ATOM     20  C   UNL     1     -10.022   6.196 131.494  0.00  0.00    +0.000 A 
ATOM     21  C   UNL     1      -9.457   6.876 130.418  0.00  0.00    +0.000 A 
ATOM     22  C   UNL     1     -10.260   7.681 129.613  0.00  0.00    +0.000 A 
ATOM     23  C   UNL     1     -11.607   7.793 129.912  0.00  0.00    +0.000 A 
ATOM     24  N   UNL     1     -12.194   7.185 130.960  0.00  0.00    +0.000 NA
ATOM     25  C   UNL     1     -11.387   6.412 131.721  0.00  0.00    +0.000 A 
ENDBRANCH  17  20
ENDBRANCH   2  14
TORSDOF 2
ENDMDL
MODEL 4
REMARK VINA RESULT:      -9.1      5.194      6.068
REMARK  Name = CHEMBL4205970
REMARK  2 active torsions:
REMARK  status: ('A' for Active; 'I' for Inactive)
REMARK    1  A    between atoms: C_2  and  C_3
REMARK    2  A    between atoms: C_6  and  C_7
REMARK                            x       y       z     vdW  Elec       q    Type
REMARK                         _______ _______ _______ _____ _____    ______ ____
ROOT
ATOM      1  O   UNL     1      -7.036   3.078 127.445  0.00  0.00    +0.000 OA
ATOM      2  C   UNL     1      -6.097   4.001 127.252  0.00  0.00    +0.000 C 
ATOM      3  N   UNL     1      -5.038   4.956 128.501  0.00  0.00    +0.000 N 
ATOM      4  C   UNL     1      -4.822   3.574 128.231  0.00  0.00    +0.000 C 
ATOM      5  C   UNL     1      -5.178   3.336 129.617  0.00  0.00    +0.000 C 
ATOM      6  C   UNL     1      -3.777   3.733 129.879  0.00  0.00    +0.000 C 
ATOM      7  C   UNL     1      -4.035   4.265 131.267  0.00  0.00    +0.000 C 
ATOM      8  C   UNL     1      -2.974   5.172 131.047  0.00  0.00    +0.000 A 
ATOM      9  C   UNL     1      -1.859   4.920 132.433  0.00  0.00    +0.000 A 
ATOM     10  C   UNL     1      -0.816   5.701 132.824  0.00  0.00    +0.000 A 
ATOM     11  C   UNL     1      -0.797   6.509 131.714  0.00  0.00    +0.000 A 
ATOM     12  C   UNL     1      -2.025   6.504 130.312  0.00  0.00    +0.000 A 
ATOM     13  C   UNL     1      -3.599   5.936 129.652  0.00  0.00    +0.000 A 
ENDROOT
BRANCH   2  14
ATOM     14  C   UNL     1      -5.701   3.172 125.624  0.00  0.00    +0.000 A 
ATOM     15  C   UNL     1      -5.022   3.899 124.680  0.00  0.00    +0.000 A 
ATOM     16  C   UNL     1      -5.756   4.179 123.541  0.00  0.00    +0.000 A 
ATOM     17  C   UNL     1      -6.647   3.268 122.973  0.00  0.00    +0.000 A 
ATOM     18  C   UNL     1      -6.849   2.094 123.682  0.00  0.00    +0.000 A 
ATOM     19  C   UNL     1      -6.286   1.983 124.995  0.00  0.00    +0.000 A 
BRANCH  17  20
ATOM     20  C   UNL     1      -7.194   3.562 121.649  0.00  0.00    +0.000 A 
ATOM     21  C   UNL     1      -8.550   3.497 121.337  0.00  0.00    +0.000 A 
ATOM     22  C   UNL     1      -8.988   3.905 120.079  0.00  0.00    +0.000 A 
ATOM     23  C   UNL     1      -8.056   4.359 119.162  0.00  0.00    +0.000 A 
ATOM     24  N   UNL     1      -6.732   4.408 119.403  0.00  0.00    +0.000 NA
ATOM     25  C   UNL     1      -6.340   4.005 120.632  0.00  0.00    +0.000 A 
ENDBRANCH  17  20
ENDBRANCH   2  14
TORSDOF 2
ENDMDL
MODEL 5
REMARK VINA RESULT:      -8.9      7.186     10.700
REMARK  Name = CHEMBL4205970
REMARK  2 active torsions:
REMARK  status: ('A' for Active; 'I' for Inactive)
REMARK    1  A    between atoms: C_2  and  C_3
REMARK    2  A    between atoms: C_6  and  C_7
REMARK                            x       y       z     vdW  Elec       q    Type
REMARK                         _______ _______ _______ _____ _____    ______ ____
ROOT
ATOM      1  O   UNL     1      -9.970   3.220 131.760  0.00  0.00    +0.000 OA
ATOM      2  C   UNL     1     -10.394   3.591 130.554  0.00  0.00    +0.000 C 
ATOM      3  N   UNL     1     -11.625   4.939 130.046  0.00  0.00    +0.000 N 
ATOM      4  C   UNL     1     -10.323   5.252 130.530  0.00  0.00    +0.000 C 
ATOM      5  C   UNL     1     -10.986   5.902 131.645  0.00  0.00    +0.000 C 
ATOM      6  C   UNL     1     -11.144   7.022 130.692  0.00  0.00    +0.000 C 
ATOM      7  C   UNL     1     -12.403   7.569 131.318  0.00  0.00    +0.000 C 
ATOM      8  C   UNL     1     -12.772   8.017 130.030  0.00  0.00    +0.000 A 
ATOM      9  C   UNL     1     -13.103   9.771 130.232  0.00  0.00    +0.000 A 
ATOM     10  C   UNL     1     -13.718  10.616 129.360  0.00  0.00    +0.000 A 
ATOM     11  C   UNL     1     -13.738   9.754 128.292  0.00  0.00    +0.000 A 
ATOM     12  C   UNL     1     -13.218   7.964 128.295  0.00  0.00    +0.000 A 
ATOM     13  C   UNL     1     -12.739   6.506 129.232  0.00  0.00    +0.000 A 
ENDROOT
BRANCH   2  14
ATOM     14  C   UNL     1      -8.734   3.066 129.875  0.00  0.00    +0.000 A 
ATOM     15  C   UNL     1      -8.716   2.328 128.719  0.00  0.00    +0.000 A 
ATOM     16  C   UNL     1      -8.257   1.032 128.878  0.00  0.00    +0.000 A 
ATOM     17  C   UNL     1      -7.211   0.701 129.739  0.00  0.00    +0.000 A 
ATOM     18  C   UNL     1      -6.721   1.733 130.524  0.00  0.00    +0.000 A 
ATOM     19  C   UNL     1      -7.423   2.983 130.527  0.00  0.00    +0.000 A 
BRANCH  17  20
ATOM     20  C   UNL     1      -6.647  -0.646 129.664  0.00  0.00    +0.000 A 
ATOM     21  C   UNL     1      -7.401  -1.791 129.424  0.00  0.00    +0.000 A 
ATOM     22  C   UNL     1      -6.759  -3.017 129.257  0.00  0.00    +0.000 A 
ATOM     23  C   UNL     1      -5.378  -3.065 129.344  0.00  0.00    +0.000 A 
ATOM     24  N   UNL     1      -4.607  -1.994 129.608  0.00  0.00    +0.000 NA
ATOM     25  C   UNL     1      -5.261  -0.821 129.765  0.00  0.00    +0.000 A 
ENDBRANCH  17  20
ENDBRANCH   2  14
TORSDOF 2
ENDMDL
MODEL 6
REMARK VINA RESULT:      -8.8      6.452      9.514
REMARK  Name = CHEMBL4205970
REMARK  2 active torsions:
REMARK  status: ('A' for Active; 'I' for Inactive)
REMARK    1  A    between atoms: C_2  and  C_3
REMARK    2  A    between atoms: C_6  and  C_7
REMARK                            x       y       z     vdW  Elec       q    Type
REMARK                         _______ _______ _______ _____ _____    ______ ____
ROOT
ATOM      1  O   UNL     1      -8.816   2.926 131.851  0.00  0.00    +0.000 OA
ATOM      2  C   UNL     1      -9.644   2.972 130.810  0.00  0.00    +0.000 C 
ATOM      3  N   UNL     1     -11.001   4.220 130.374  0.00  0.00    +0.000 N 
ATOM      4  C   UNL     1      -9.618   4.543 130.268  0.00  0.00    +0.000 C 
ATOM      5  C   UNL     1      -9.860   5.541 131.293  0.00  0.00    +0.000 C 
ATOM      6  C   UNL     1     -10.365   6.350 130.162  0.00  0.00    +0.000 C 
ATOM      7  C   UNL     1     -11.333   7.162 130.986  0.00  0.00    +0.000 C 
ATOM      8  C   UNL     1     -12.141   7.253 129.831  0.00  0.00    +0.000 A 
ATOM      9  C   UNL     1     -12.413   9.014 129.599  0.00  0.00    +0.000 A 
ATOM     10  C   UNL     1     -13.312   9.623 128.778  0.00  0.00    +0.000 A 
ATOM     11  C   UNL     1     -13.689   8.497 128.091  0.00  0.00    +0.000 A 
ATOM     12  C   UNL     1     -13.167   6.744 128.451  0.00  0.00    +0.000 A 
ATOM     13  C   UNL     1     -12.360   5.580 129.560  0.00  0.00    +0.000 A 
ENDROOT
BRANCH   2  14
ATOM     14  C   UNL     1      -8.318   2.131 129.796  0.00  0.00    +0.000 A 
ATOM     15  C   UNL     1      -8.237   2.439 128.461  0.00  0.00    +0.000 A 
ATOM     16  C   UNL     1      -8.546   1.389 127.615  0.00  0.00    +0.000 A 
ATOM     17  C   UNL     1      -8.177   0.070 127.881  0.00  0.00    +0.000 A 
ATOM     18  C   UNL     1      -7.576  -0.156 129.110  0.00  0.00    +0.000 A 
ATOM     19  C   UNL     1      -7.544   0.915 130.062  0.00  0.00    +0.000 A 
BRANCH  17  20
ATOM     20  C   UNL     1      -8.340  -0.926 126.823  0.00  0.00    +0.000 A 
ATOM     21  C   UNL     1      -7.910  -2.246 126.926  0.00  0.00    +0.000 A 
ATOM     22  C   UNL     1      -8.211  -3.151 125.910  0.00  0.00    +0.000 A 
ATOM     23  C   UNL     1      -8.928  -2.707 124.812  0.00  0.00    +0.000 A 
ATOM     24  N   UNL     1      -9.335  -1.434 124.649  0.00  0.00    +0.000 NA
ATOM     25  C   UNL     1      -9.026  -0.583 125.652  0.00  0.00    +0.000 A 
ENDBRANCH  17  20
ENDBRANCH   2  14
TORSDOF 2
ENDMDL
MODEL 7
REMARK VINA RESULT:      -8.8      6.817     11.019
REMARK  Name = CHEMBL4205970
REMARK  2 active torsions:
REMARK  status: ('A' for Active; 'I' for Inactive)
REMARK    1  A    between atoms: C_2  and  C_3
REMARK    2  A    between atoms: C_6  and  C_7
REMARK                            x       y       z     vdW  Elec       q    Type
REMARK                         _______ _______ _______ _____ _____    ______ ____
ROOT
ATOM      1  O   UNL     1      -7.002   2.653 131.037  0.00  0.00    +0.000 OA
ATOM      2  C   UNL     1      -8.262   2.804 131.439  0.00  0.00    +0.000 C 
ATOM      3  N   UNL     1      -9.345   4.356 131.531  0.00  0.00    +0.000 N 
ATOM      4  C   UNL     1      -9.005   3.748 130.289  0.00  0.00    +0.000 C 
ATOM      5  C   UNL     1      -8.306   4.980 129.975  0.00  0.00    +0.000 C 
ATOM      6  C   UNL     1      -9.657   5.469 129.620  0.00  0.00    +0.000 C 
ATOM      7  C   UNL     1      -9.371   6.918 129.927  0.00  0.00    +0.000 C 
ATOM      8  C   UNL     1     -10.736   7.049 130.265  0.00  0.00    +0.000 A 
ATOM      9  C   UNL     1     -11.329   8.415 129.259  0.00  0.00    +0.000 A 
ATOM     10  C   UNL     1     -12.501   9.097 129.376  0.00  0.00    +0.000 A 
ATOM     11  C   UNL     1     -13.088   8.251 130.284  0.00  0.00    +0.000 A 
ATOM     12  C   UNL     1     -12.289   6.790 131.123  0.00  0.00    +0.000 A 
ATOM     13  C   UNL     1     -10.795   5.857 131.488  0.00  0.00    +0.000 A 
ENDROOT
BRANCH   2  14
ATOM     14  C   UNL     1      -8.592   1.058 130.859  0.00  0.00    +0.000 A 
ATOM     15  C   UNL     1      -9.056   0.151 131.779  0.00  0.00    +0.000 A 
ATOM     16  C   UNL     1      -8.171  -0.874 132.064  0.00  0.00    +0.000 A 
ATOM     17  C   UNL     1      -7.361  -1.465 131.093  0.00  0.00    +0.000 A 
ATOM     18  C   UNL     1      -7.405  -0.889 129.833  0.00  0.00    +0.000 A 
ATOM     19  C   UNL     1      -8.117   0.344 129.669  0.00  0.00    +0.000 A 
BRANCH  17  20
ATOM     20  C   UNL     1      -6.638  -2.687 131.441  0.00  0.00    +0.000 A 
ATOM     21  C   UNL     1      -6.381  -3.719 130.542  0.00  0.00    +0.000 A 
ATOM     22  C   UNL     1      -5.586  -4.794 130.935  0.00  0.00    +0.000 A 
ATOM     23  C   UNL     1      -5.076  -4.811 132.222  0.00  0.00    +0.000 A 
ATOM     24  N   UNL     1      -5.324  -3.857 133.138  0.00  0.00    +0.000 NA
ATOM     25  C   UNL     1      -6.099  -2.829 132.725  0.00  0.00    +0.000 A 
ENDBRANCH  17  20
ENDBRANCH   2  14
TORSDOF 2
ENDMDL
MODEL 8
REMARK VINA RESULT:      -8.7      5.419      7.944
REMARK  Name = CHEMBL4205970
REMARK  2 active torsions:
REMARK  status: ('A' for Active; 'I' for Inactive)
REMARK    1  A    between atoms: C_2  and  C_3
REMARK    2  A    between atoms: C_6  and  C_7
REMARK                            x       y       z     vdW  Elec       q    Type
REMARK                         _______ _______ _______ _____ _____    ______ ____
ROOT
ATOM      1  O   UNL     1      -5.716   4.206 125.688  0.00  0.00    +0.000 OA
ATOM      2  C   UNL     1      -6.055   3.167 126.447  0.00  0.00    +0.000 C 
ATOM      3  N   UNL     1      -7.276   1.754 126.123  0.00  0.00    +0.000 N 
ATOM      4  C   UNL     1      -6.023   1.837 125.450  0.00  0.00    +0.000 C 
ATOM      5  C   UNL     1      -6.787   1.981 124.226  0.00  0.00    +0.000 C 
ATOM      6  C   UNL     1      -6.899   0.508 124.310  0.00  0.00    +0.000 C 
ATOM      7  C   UNL     1      -8.216   0.420 123.579  0.00  0.00    +0.000 C 
ATOM      8  C   UNL     1      -8.495  -0.729 124.352  0.00  0.00    +0.000 A 
ATOM      9  C   UNL     1      -8.884  -2.007 123.151  0.00  0.00    +0.000 A 
ATOM     10  C   UNL     1      -9.450  -3.224 123.374  0.00  0.00    +0.000 A 
ATOM     11  C   UNL     1      -9.365  -3.191 124.743  0.00  0.00    +0.000 A 
ATOM     12  C   UNL     1      -8.802  -1.755 125.790  0.00  0.00    +0.000 A 
ATOM     13  C   UNL     1      -8.361  -0.015 125.899  0.00  0.00    +0.000 A 
ENDROOT
BRANCH   2  14
ATOM     14  C   UNL     1      -4.333   3.216 127.175  0.00  0.00    +0.000 A 
ATOM     15  C   UNL     1      -4.096   2.492 128.316  0.00  0.00    +0.000 A 
ATOM     16  C   UNL     1      -3.815   3.261 129.431  0.00  0.00    +0.000 A 
ATOM     17  C   UNL     1      -3.052   4.428 129.371  0.00  0.00    +0.000 A 
ATOM     18  C   UNL     1      -2.679   4.845 128.103  0.00  0.00    +0.000 A 
ATOM     19  C   UNL     1      -3.240   4.171 126.969  0.00  0.00    +0.000 A 
BRANCH  17  20
ATOM     20  C   UNL     1      -2.615   5.039 130.625  0.00  0.00    +0.000 A 
ATOM     21  C   UNL     1      -2.591   4.372 131.847  0.00  0.00    +0.000 A 
ATOM     22  C   UNL     1      -2.052   5.002 132.967  0.00  0.00    +0.000 A 
ATOM     23  C   UNL     1      -1.559   6.289 132.835  0.00  0.00    +0.000 A 
ATOM     24  N   UNL     1      -1.591   6.989 131.686  0.00  0.00    +0.000 NA
ATOM     25  C   UNL     1      -2.121   6.349 130.620  0.00  0.00    +0.000 A 
ENDBRANCH  17  20
ENDBRANCH   2  14
TORSDOF 2
ENDMDL
MODEL 9
REMARK VINA RESULT:      -8.6      6.467      7.812
REMARK  Name = CHEMBL4205970
REMARK  2 active torsions:
REMARK  status: ('A' for Active; 'I' for Inactive)
REMARK    1  A    between atoms: C_2  and  C_3
REMARK    2  A    between atoms: C_6  and  C_7
REMARK                            x       y       z     vdW  Elec       q    Type
REMARK                         _______ _______ _______ _____ _____    ______ ____
ROOT
ATOM      1  O   UNL     1      -6.613   3.452 131.981  0.00  0.00    +0.000 OA
ATOM      2  C   UNL     1      -7.148   3.408 130.764  0.00  0.00    +0.000 C 
ATOM      3  N   UNL     1      -7.152   2.021 129.473  0.00  0.00    +0.000 N 
ATOM      4  C   UNL     1      -7.937   1.949 130.658  0.00  0.00    +0.000 C 
ATOM      5  C   UNL     1      -7.131   0.798 131.020  0.00  0.00    +0.000 C 
ATOM      6  C   UNL     1      -8.041   0.073 130.105  0.00  0.00    +0.000 C 
ATOM      7  C   UNL     1      -7.042  -0.989 129.719  0.00  0.00    +0.000 C 
ATOM      8  C   UNL     1      -7.696  -1.059 128.469  0.00  0.00    +0.000 A 
ATOM      9  C   UNL     1      -8.116  -2.794 128.266  0.00  0.00    +0.000 A 
ATOM     10  C   UNL     1      -8.538  -3.429 127.139  0.00  0.00    +0.000 A 
ATOM     11  C   UNL     1      -8.744  -2.300 126.387  0.00  0.00    +0.000 A 
ATOM     12  C   UNL     1      -8.327  -0.548 126.870  0.00  0.00    +0.000 A 
ATOM     13  C   UNL     1      -7.505   0.576 128.008  0.00  0.00    +0.000 A 
ENDROOT
BRANCH   2  14
ATOM     14  C   UNL     1      -8.470   4.584 131.369  0.00  0.00    +0.000 A 
ATOM     15  C   UNL     1      -9.774   4.159 131.333  0.00  0.00    +0.000 A 
ATOM     16  C   UNL     1     -10.574   4.852 130.442  0.00  0.00    +0.000 A 
ATOM     17  C   UNL     1     -10.454   6.226 130.230  0.00  0.00    +0.000 A 
ATOM     18  C   UNL     1      -9.402   6.851 130.881  0.00  0.00    +0.000 A 
ATOM     19  C   UNL     1      -8.436   6.037 131.558  0.00  0.00    +0.000 A 
BRANCH  17  20
ATOM     20  C   UNL     1     -11.490   6.903 129.451  0.00  0.00    +0.000 A 
ATOM     21  C   UNL     1     -12.651   6.282 128.997  0.00  0.00    +0.000 A 
ATOM     22  C   UNL     1     -13.634   7.037 128.361  0.00  0.00    +0.000 A 
ATOM     23  C   UNL     1     -13.424   8.395 128.187  0.00  0.00    +0.000 A 
ATOM     24  N   UNL     1     -12.306   9.036 128.577  0.00  0.00    +0.000 NA
ATOM     25  C   UNL     1     -11.373   8.274 129.190  0.00  0.00    +0.000 A 
ENDBRANCH  17  20
ENDBRANCH   2  14
TORSDOF 2
ENDMDL
