MODEL 1
REMARK VINA RESULT:     -10.4      0.000      0.000
REMARK  Name = CHEMBL2037517
REMARK  11 active torsions:
REMARK  status: ('A' for Active; 'I' for Inactive)
REMARK    1  A    between atoms: C_1  and  C_2
REMARK    2  A    between atoms: C_2  and  C_3
REMARK    3  A    between atoms: C_3  and  C_4
REMARK    4  A    between atoms: C_3  and  C_6
REMARK    5  A    between atoms: C_4  and  C_5
REMARK    6  A    between atoms: C_10  and  C_11
REMARK    7  A    between atoms: N_22  and  C_23
REMARK    8  A    between atoms: C_23  and  C_24
REMARK    9  A    between atoms: C_23  and  C_32
REMARK   10  A    between atoms: C_35  and  C_36
REMARK   11  A    between atoms: C_38  and  C_39
REMARK                            x       y       z     vdW  Elec       q    Type
REMARK                         _______ _______ _______ _____ _____    ______ ____
ROOT
ATOM      1  C   UNK A   2      -7.218   6.159 131.635  0.00  0.00    +0.000 C 
ATOM      2  C   UNK A   2      -8.496   6.087 132.409  0.00  0.00    +0.000 C 
ATOM      3  O   UNK A   2      -8.761   6.268 133.627  0.00  0.00    +0.000 OA
ATOM      4  N   UNK A   1      -9.575   5.963 131.689  0.00  0.00    +0.000 N 
ATOM      5  C   UNK A   1      -9.573   6.188 130.277  0.00  0.00    +0.000 C 
ATOM      6  C   UNK A   1      -8.569   5.248 129.658  0.00  0.00    +0.000 C 
ATOM      7  O   UNK A   1      -8.855   4.716 128.579  0.00  0.00    +0.000 OA
ATOM      8  N   UNK A   2      -7.406   5.051 130.396  0.00  0.00    +0.000 N 
ATOM      9  H   UNK A   1     -10.386   6.043 132.288  0.00  0.00    +0.000 HD
ENDROOT
BRANCH   5  10
ATOM     10  C   UNK A   1     -10.933   5.779 129.731  0.00  0.00    +0.000 C 
ATOM     11  C   UNK A   1     -11.287   6.658 128.530  0.00  0.00    +0.000 C 
ATOM     12  C   UNK A   1     -12.068   7.766 129.180  0.00  0.00    +0.000 A 
ATOM     13  C   UNK A   1     -12.238   9.055 128.709  0.00  0.00    +0.000 A 
ATOM     14  C   UNK A   1     -12.871   9.984 129.537  0.00  0.00    +0.000 A 
ATOM     15  C   UNK A   1     -13.297   9.629 130.827  0.00  0.00    +0.000 A 
ATOM     16  C   UNK A   1     -13.090   8.338 131.314  0.00  0.00    +0.000 A 
ATOM     17  C   UNK A   1     -12.489   7.412 130.474  0.00  0.00    +0.000 A 
ATOM     18  C   UNK A   1     -12.049   6.017 130.806  0.00  0.00    +0.000 C 
ENDBRANCH   5  10
BRANCH   1  19
ATOM     19  C   UNK A   2      -5.986   6.012 132.588  0.00  0.00    +0.000 C 
BRANCH  19  21
ATOM     20  C   UNK A   2      -7.059   3.214 134.029  0.00  0.00    +0.000 C 
ATOM     21  C   UNK A   2      -5.831   4.342 133.450  0.00  0.00    +0.000 C 
ENDBRANCH  19  21
BRANCH  19  22
ATOM     22  C   UNK A   2      -5.017   6.729 131.605  0.00  0.00    +0.000 C 
ATOM     23  C   UNK A   2      -4.887   7.537 130.278  0.00  0.00    +0.000 C 
ENDBRANCH  19  22
ENDBRANCH   1  19
BRANCH   8  24
ATOM     24  C   UNK A   0      -6.613   3.550 130.214  0.00  0.00    +0.000 C 
BRANCH  24  25
ATOM     25  C   UNK A   0      -7.486   1.816 130.562  0.00  0.00    +0.000 C 
ATOM     26  O   UNK A   0      -8.590   1.498 130.073  0.00  0.00    +0.000 OA
ATOM     27  N   UNK A   0      -6.817   0.359 130.931  0.00  0.00    +0.000 N 
ATOM     28  C   UNK A   0      -5.511   0.134 131.581  0.00  0.00    +0.000 C 
ATOM     29  C   UNK A   0      -4.151  -0.323 130.307  0.00  0.00    +0.000 C 
ATOM     30  O   UNK A   0      -4.381  -1.603 129.786  0.00  0.00    +0.000 OA
ATOM     31  C   UNK A   0      -5.611  -1.589 129.068  0.00  0.00    +0.000 C 
ATOM     32  C   UNK A   0      -7.019  -0.984 129.957  0.00  0.00    +0.000 C 
ENDBRANCH  24  25
BRANCH  24  33
ATOM     33  C   UNK A   0      -5.413   3.730 129.208  0.00  0.00    +0.000 A 
ATOM     34  C   UNK A   0      -5.577   4.126 127.833  0.00  0.00    +0.000 A 
ATOM     35  C   UNK A   0      -4.513   3.978 126.941  0.00  0.00    +0.000 A 
ATOM     36  C   UNK A   0      -3.302   3.600 127.478  0.00  0.00    +0.000 A 
ATOM     37  C   UNK A   0      -2.058   3.374 126.726  0.00  0.00    +0.000 C 
ATOM     38  N   UNK A   0      -3.088   3.431 128.779  0.00  0.00    +0.000 NA
ATOM     39  C   UNK A   0      -4.121   3.506 129.600  0.00  0.00    +0.000 A 
ATOM     40  C   UNK A   0      -3.724   3.364 130.991  0.00  0.00    +0.000 C 
ENDBRANCH  24  33
ENDBRANCH   8  24
TORSDOF 7
ENDMDL
MODEL 2
REMARK VINA RESULT:     -10.3      2.374      5.453
REMARK  Name = CHEMBL2037517
REMARK  11 active torsions:
REMARK  status: ('A' for Active; 'I' for Inactive)
REMARK    1  A    between atoms: C_1  and  C_2
REMARK    2  A    between atoms: C_2  and  C_3
REMARK    3  A    between atoms: C_3  and  C_4
REMARK    4  A    between atoms: C_3  and  C_6
REMARK    5  A    between atoms: C_4  and  C_5
REMARK    6  A    between atoms: C_10  and  C_11
REMARK    7  A    between atoms: N_22  and  C_23
REMARK    8  A    between atoms: C_23  and  C_24
REMARK    9  A    between atoms: C_23  and  C_32
REMARK   10  A    between atoms: C_35  and  C_36
REMARK   11  A    between atoms: C_38  and  C_39
REMARK                            x       y       z     vdW  Elec       q    Type
REMARK                         _______ _______ _______ _____ _____    ______ ____
ROOT
ATOM      1  C   UNK A   2      -8.118   3.365 129.569  0.00  0.00    +0.000 C 
ATOM      2  C   UNK A   2      -8.402   4.498 128.635  0.00  0.00    +0.000 C 
ATOM      3  O   UNK A   2      -8.250   4.631 127.392  0.00  0.00    +0.000 OA
ATOM      4  N   UNK A   1      -9.069   5.491 129.153  0.00  0.00    +0.000 N 
ATOM      5  C   UNK A   1      -9.742   5.378 130.410  0.00  0.00    +0.000 C 
ATOM      6  C   UNK A   1      -8.719   4.996 131.451  0.00  0.00    +0.000 C 
ATOM      7  O   UNK A   1      -8.803   5.516 132.570  0.00  0.00    +0.000 OA
ATOM      8  N   UNK A   2      -7.747   4.095 131.027  0.00  0.00    +0.000 N 
ATOM      9  H   UNK A   1      -9.313   6.146 128.422  0.00  0.00    +0.000 HD
ENDROOT
BRANCH   5  10
ATOM     10  C   UNK A   1     -10.253   6.756 130.799  0.00  0.00    +0.000 C 
ATOM     11  C   UNK A   1     -11.770   6.707 130.982  0.00  0.00    +0.000 C 
ATOM     12  C   UNK A   1     -12.258   7.097 129.614  0.00  0.00    +0.000 A 
ATOM     13  C   UNK A   1     -13.474   6.780 129.040  0.00  0.00    +0.000 A 
ATOM     14  C   UNK A   1     -13.677   7.105 127.697  0.00  0.00    +0.000 A 
ATOM     15  C   UNK A   1     -12.661   7.711 126.940  0.00  0.00    +0.000 A 
ATOM     16  C   UNK A   1     -11.421   7.994 127.511  0.00  0.00    +0.000 A 
ATOM     17  C   UNK A   1     -11.238   7.697 128.854  0.00  0.00    +0.000 A 
ATOM     18  C   UNK A   1      -9.971   7.789 129.653  0.00  0.00    +0.000 C 
ENDBRANCH   5  10
BRANCH   1  19
ATOM     19  C   UNK A   2      -7.079   2.379 128.941  0.00  0.00    +0.000 C 
BRANCH  19  21
ATOM     20  C   UNK A   2      -3.779   2.232 128.571  0.00  0.00    +0.000 C 
ATOM     21  C   UNK A   2      -5.326   3.055 128.777  0.00  0.00    +0.000 C 
ENDBRANCH  19  21
BRANCH  19  22
ATOM     22  C   UNK A   2      -7.612   1.154 129.738  0.00  0.00    +0.000 C 
ATOM     23  C   UNK A   2      -8.535   0.670 130.898  0.00  0.00    +0.000 C 
ENDBRANCH  19  22
ENDBRANCH   1  19
BRANCH   8  24
ATOM     24  C   UNK A   0      -6.221   4.181 131.789  0.00  0.00    +0.000 C 
BRANCH  24  25
ATOM     25  C   UNK A   0      -5.366   5.880 132.309  0.00  0.00    +0.000 C 
ATOM     26  O   UNK A   0      -5.090   6.171 133.491  0.00  0.00    +0.000 OA
ATOM     27  N   UNK A   0      -4.357   6.854 131.448  0.00  0.00    +0.000 N 
ATOM     28  C   UNK A   0      -4.283   6.959 129.978  0.00  0.00    +0.000 C 
ATOM     29  C   UNK A   0      -2.817   5.946 129.266  0.00  0.00    +0.000 C 
ATOM     30  O   UNK A   0      -1.598   6.546 129.609  0.00  0.00    +0.000 OA
ATOM     31  C   UNK A   0      -1.455   6.510 131.025  0.00  0.00    +0.000 C 
ATOM     32  C   UNK A   0      -2.801   7.191 131.955  0.00  0.00    +0.000 C 
ENDBRANCH  24  25
BRANCH  24  33
ATOM     33  C   UNK A   0      -5.940   2.811 132.515  0.00  0.00    +0.000 A 
ATOM     34  C   UNK A   0      -5.045   1.805 132.003  0.00  0.00    +0.000 A 
ATOM     35  C   UNK A   0      -5.074   0.517 132.541  0.00  0.00    +0.000 A 
ATOM     36  C   UNK A   0      -5.864   0.328 133.654  0.00  0.00    +0.000 A 
ATOM     37  C   UNK A   0      -6.053  -0.942 134.372  0.00  0.00    +0.000 C 
ATOM     38  N   UNK A   0      -6.536   1.302 134.260  0.00  0.00    +0.000 NA
ATOM     39  C   UNK A   0      -6.553   2.497 133.698  0.00  0.00    +0.000 A 
ATOM     40  C   UNK A   0      -7.270   3.470 134.505  0.00  0.00    +0.000 C 
ENDBRANCH  24  33
ENDBRANCH   8  24
TORSDOF 7
ENDMDL
MODEL 3
REMARK VINA RESULT:     -10.2      2.674      5.460
REMARK  Name = CHEMBL2037517
REMARK  11 active torsions:
REMARK  status: ('A' for Active; 'I' for Inactive)
REMARK    1  A    between atoms: C_1  and  C_2
REMARK    2  A    between atoms: C_2  and  C_3
REMARK    3  A    between atoms: C_3  and  C_4
REMARK    4  A    between atoms: C_3  and  C_6
REMARK    5  A    between atoms: C_4  and  C_5
REMARK    6  A    between atoms: C_10  and  C_11
REMARK    7  A    between atoms: N_22  and  C_23
REMARK    8  A    between atoms: C_23  and  C_24
REMARK    9  A    between atoms: C_23  and  C_32
REMARK   10  A    between atoms: C_35  and  C_36
REMARK   11  A    between atoms: C_38  and  C_39
REMARK                            x       y       z     vdW  Elec       q    Type
REMARK                         _______ _______ _______ _____ _____    ______ ____
ROOT
ATOM      1  C   UNK A   2      -6.897   2.699 126.852  0.00  0.00    +0.000 C 
ATOM      2  C   UNK A   2      -6.656   3.949 127.637  0.00  0.00    +0.000 C 
ATOM      3  O   UNK A   2      -6.026   5.008 127.373  0.00  0.00    +0.000 OA
ATOM      4  N   UNK A   1      -7.334   4.049 128.744  0.00  0.00    +0.000 N 
ATOM      5  C   UNK A   1      -8.443   3.194 129.033  0.00  0.00    +0.000 C 
ATOM      6  C   UNK A   1      -7.953   1.768 128.993  0.00  0.00    +0.000 C 
ATOM      7  O   UNK A   1      -8.388   0.976 129.838  0.00  0.00    +0.000 OA
ATOM      8  N   UNK A   2      -7.017   1.489 128.000  0.00  0.00    +0.000 N 
ATOM      9  H   UNK A   1      -7.195   4.971 129.138  0.00  0.00    +0.000 HD
ENDROOT
BRANCH   5  10
ATOM     10  C   UNK A   1      -8.881   3.454 130.466  0.00  0.00    +0.000 C 
ATOM     11  C   UNK A   1     -10.409   3.489 130.536  0.00  0.00    +0.000 C 
ATOM     12  C   UNK A   1     -10.691   4.955 130.362  0.00  0.00    +0.000 A 
ATOM     13  C   UNK A   1     -11.850   5.530 129.876  0.00  0.00    +0.000 A 
ATOM     14  C   UNK A   1     -11.860   6.907 129.645  0.00  0.00    +0.000 A 
ATOM     15  C   UNK A   1     -10.712   7.684 129.868  0.00  0.00    +0.000 A 
ATOM     16  C   UNK A   1      -9.531   7.095 130.322  0.00  0.00    +0.000 A 
ATOM     17  C   UNK A   1      -9.539   5.732 130.580  0.00  0.00    +0.000 A 
ATOM     18  C   UNK A   1      -8.377   4.858 130.948  0.00  0.00    +0.000 C 
ENDBRANCH   5  10
BRANCH   1  19
ATOM     19  C   UNK A   2      -5.834   2.547 125.715  0.00  0.00    +0.000 C 
BRANCH  19  21
ATOM     20  C   UNK A   2      -2.886   3.154 127.126  0.00  0.00    +0.000 C 
ATOM     21  C   UNK A   2      -4.083   2.157 126.297  0.00  0.00    +0.000 C 
ENDBRANCH  19  21
BRANCH  19  22
ATOM     22  C   UNK A   2      -6.790   1.734 124.795  0.00  0.00    +0.000 C 
ATOM     23  C   UNK A   2      -7.064   1.221 123.349  0.00  0.00    +0.000 C 
ENDBRANCH  19  22
ENDBRANCH   1  19
BRANCH   8  24
ATOM     24  C   UNK A   0      -5.898   0.238 128.314  0.00  0.00    +0.000 C 
BRANCH  24  25
ATOM     25  C   UNK A   0      -4.988   0.011 130.049  0.00  0.00    +0.000 C 
ATOM     26  O   UNK A   0      -5.276   0.680 131.063  0.00  0.00    +0.000 OA
ATOM     27  N   UNK A   0      -4.256  -1.319 130.685  0.00  0.00    +0.000 N 
ATOM     28  C   UNK A   0      -3.670  -2.441 129.928  0.00  0.00    +0.000 C 
ATOM     29  C   UNK A   0      -4.851  -3.952 129.866  0.00  0.00    +0.000 C 
ATOM     30  O   UNK A   0      -4.951  -4.545 131.133  0.00  0.00    +0.000 OA
ATOM     31  C   UNK A   0      -5.545  -3.610 132.028  0.00  0.00    +0.000 C 
ATOM     32  C   UNK A   0      -4.771  -2.019 132.112  0.00  0.00    +0.000 C 
ENDBRANCH  24  25
BRANCH  24  33
ATOM     33  C   UNK A   0      -6.177  -0.952 127.320  0.00  0.00    +0.000 A 
ATOM     34  C   UNK A   0      -5.456  -1.150 126.090  0.00  0.00    +0.000 A 
ATOM     35  C   UNK A   0      -5.952  -2.039 125.134  0.00  0.00    +0.000 A 
ATOM     36  C   UNK A   0      -7.038  -2.802 125.503  0.00  0.00    +0.000 A 
ATOM     37  C   UNK A   0      -7.726  -3.789 124.656  0.00  0.00    +0.000 C 
ATOM     38  N   UNK A   0      -7.586  -2.776 126.714  0.00  0.00    +0.000 NA
ATOM     39  C   UNK A   0      -7.151  -1.880 127.581  0.00  0.00    +0.000 A 
ATOM     40  C   UNK A   0      -7.796  -2.014 128.876  0.00  0.00    +0.000 C 
ENDBRANCH  24  33
ENDBRANCH   8  24
TORSDOF 7
ENDMDL
MODEL 4
REMARK VINA RESULT:     -10.2      2.242      5.507
REMARK  Name = CHEMBL2037517
REMARK  11 active torsions:
REMARK  status: ('A' for Active; 'I' for Inactive)
REMARK    1  A    between atoms: C_1  and  C_2
REMARK    2  A    between atoms: C_2  and  C_3
REMARK    3  A    between atoms: C_3  and  C_4
REMARK    4  A    between atoms: C_3  and  C_6
REMARK    5  A    between atoms: C_4  and  C_5
REMARK    6  A    between atoms: C_10  and  C_11
REMARK    7  A    between atoms: N_22  and  C_23
REMARK    8  A    between atoms: C_23  and  C_24
REMARK    9  A    between atoms: C_23  and  C_32
REMARK   10  A    between atoms: C_35  and  C_36
REMARK   11  A    between atoms: C_38  and  C_39
REMARK                            x       y       z     vdW  Elec       q    Type
REMARK                         _______ _______ _______ _____ _____    ______ ____
ROOT
ATOM      1  C   UNK A   2      -7.848   2.745 129.078  0.00  0.00    +0.000 C 
ATOM      2  C   UNK A   2      -7.702   4.176 128.674  0.00  0.00    +0.000 C 
ATOM      3  O   UNK A   2      -7.176   4.725 127.669  0.00  0.00    +0.000 OA
ATOM      4  N   UNK A   1      -8.363   5.030 129.404  0.00  0.00    +0.000 N 
ATOM      5  C   UNK A   1      -9.384   4.615 130.315  0.00  0.00    +0.000 C 
ATOM      6  C   UNK A   1      -8.768   3.645 131.292  0.00  0.00    +0.000 C 
ATOM      7  O   UNK A   1      -9.112   3.714 132.479  0.00  0.00    +0.000 OA
ATOM      8  N   UNK A   2      -7.833   2.768 130.750  0.00  0.00    +0.000 N 
ATOM      9  H   UNK A   1      -8.298   5.948 128.984  0.00  0.00    +0.000 HD
ENDROOT
BRANCH   5  10
ATOM     10  C   UNK A   1      -9.812   5.827 131.129  0.00  0.00    +0.000 C 
ATOM     11  C   UNK A   1     -11.339   5.898 131.175  0.00  0.00    +0.000 C 
ATOM     12  C   UNK A   1     -11.641   6.790 130.003  0.00  0.00    +0.000 A 
ATOM     13  C   UNK A   1     -12.811   6.837 129.270  0.00  0.00    +0.000 A 
ATOM     14  C   UNK A   1     -12.840   7.625 128.118  0.00  0.00    +0.000 A 
ATOM     15  C   UNK A   1     -11.700   8.328 127.696  0.00  0.00    +0.000 A 
ATOM     16  C   UNK A   1     -10.508   8.248 128.417  0.00  0.00    +0.000 A 
ATOM     17  C   UNK A   1     -10.496   7.489 129.578  0.00  0.00    +0.000 A 
ATOM     18  C   UNK A   1      -9.320   7.149 130.445  0.00  0.00    +0.000 C 
ENDBRANCH   5  10
BRANCH   1  19
ATOM     19  C   UNK A   2      -6.800   1.851 128.335  0.00  0.00    +0.000 C 
BRANCH  19  21
ATOM     20  C   UNK A   2      -4.213   3.641 129.410  0.00  0.00    +0.000 C 
ATOM     21  C   UNK A   2      -4.997   2.197 128.767  0.00  0.00    +0.000 C 
ENDBRANCH  19  21
BRANCH  19  22
ATOM     22  C   UNK A   2      -7.641   0.554 128.502  0.00  0.00    +0.000 C 
ATOM     23  C   UNK A   2      -7.609  -1.001 128.621  0.00  0.00    +0.000 C 
ENDBRANCH  19  22
ENDBRANCH   1  19
BRANCH   8  24
ATOM     24  C   UNK A   0      -6.601   2.205 131.788  0.00  0.00    +0.000 C 
BRANCH  24  25
ATOM     25  C   UNK A   0      -5.692   3.352 133.110  0.00  0.00    +0.000 C 
ATOM     26  O   UNK A   0      -4.744   2.957 133.820  0.00  0.00    +0.000 OA
ATOM     27  N   UNK A   0      -5.505   4.987 133.129  0.00  0.00    +0.000 N 
ATOM     28  C   UNK A   0      -6.385   5.977 132.477  0.00  0.00    +0.000 C 
ATOM     29  C   UNK A   0      -5.656   6.589 130.811  0.00  0.00    +0.000 C 
ATOM     30  O   UNK A   0      -4.526   7.386 131.036  0.00  0.00    +0.000 OA
ATOM     31  C   UNK A   0      -3.516   6.585 131.642  0.00  0.00    +0.000 C 
ATOM     32  C   UNK A   0      -3.998   5.709 133.105  0.00  0.00    +0.000 C 
ENDBRANCH  24  25
BRANCH  24  33
ATOM     33  C   UNK A   0      -6.749   0.645 131.952  0.00  0.00    +0.000 A 
ATOM     34  C   UNK A   0      -8.009  -0.019 132.167  0.00  0.00    +0.000 A 
ATOM     35  C   UNK A   0      -8.025  -1.349 132.592  0.00  0.00    +0.000 A 
ATOM     36  C   UNK A   0      -6.813  -2.002 132.628  0.00  0.00    +0.000 A 
ATOM     37  C   UNK A   0      -6.595  -3.394 133.053  0.00  0.00    +0.000 C 
ATOM     38  N   UNK A   0      -5.666  -1.459 132.232  0.00  0.00    +0.000 NA
ATOM     39  C   UNK A   0      -5.657  -0.180 131.901  0.00  0.00    +0.000 A 
ATOM     40  C   UNK A   0      -4.353   0.254 131.430  0.00  0.00    +0.000 C 
ENDBRANCH  24  33
ENDBRANCH   8  24
TORSDOF 7
ENDMDL
MODEL 5
REMARK VINA RESULT:      -9.8      2.090      8.171
REMARK  Name = CHEMBL2037517
REMARK  11 active torsions:
REMARK  status: ('A' for Active; 'I' for Inactive)
REMARK    1  A    between atoms: C_1  and  C_2
REMARK    2  A    between atoms: C_2  and  C_3
REMARK    3  A    between atoms: C_3  and  C_4
REMARK    4  A    between atoms: C_3  and  C_6
REMARK    5  A    between atoms: C_4  and  C_5
REMARK    6  A    between atoms: C_10  and  C_11
REMARK    7  A    between atoms: N_22  and  C_23
REMARK    8  A    between atoms: C_23  and  C_24
REMARK    9  A    between atoms: C_23  and  C_32
REMARK   10  A    between atoms: C_35  and  C_36
REMARK   11  A    between atoms: C_38  and  C_39
REMARK                            x       y       z     vdW  Elec       q    Type
REMARK                         _______ _______ _______ _____ _____    ______ ____
ROOT
ATOM      1  C   UNK A   2      -7.020   1.727 132.053  0.00  0.00    +0.000 C 
ATOM      2  C   UNK A   2      -5.819   0.888 131.756  0.00  0.00    +0.000 C 
ATOM      3  O   UNK A   2      -4.750   0.682 132.390  0.00  0.00    +0.000 OA
ATOM      4  N   UNK A   1      -5.935   0.098 130.727  0.00  0.00    +0.000 N 
ATOM      5  C   UNK A   1      -7.201  -0.177 130.122  0.00  0.00    +0.000 C 
ATOM      6  C   UNK A   1      -7.803   1.136 129.687  0.00  0.00    +0.000 C 
ATOM      7  O   UNK A   1      -8.404   1.174 128.606  0.00  0.00    +0.000 OA
ATOM      8  N   UNK A   2      -7.592   2.203 130.556  0.00  0.00    +0.000 N 
ATOM      9  H   UNK A   1      -5.126  -0.508 130.679  0.00  0.00    +0.000 HD
ENDROOT
BRANCH   5  10
ATOM     10  C   UNK A   1      -6.955  -0.976 128.851  0.00  0.00    +0.000 C 
ATOM     11  C   UNK A   1      -7.531  -2.384 129.011  0.00  0.00    +0.000 C 
ATOM     12  C   UNK A   1      -6.340  -3.147 129.520  0.00  0.00    +0.000 A 
ATOM     13  C   UNK A   1      -6.351  -4.304 130.276  0.00  0.00    +0.000 A 
ATOM     14  C   UNK A   1      -5.139  -4.775 130.783  0.00  0.00    +0.000 A 
ATOM     15  C   UNK A   1      -3.942  -4.075 130.559  0.00  0.00    +0.000 A 
ATOM     16  C   UNK A   1      -3.939  -2.886 129.829  0.00  0.00    +0.000 A 
ATOM     17  C   UNK A   1      -5.143  -2.442 129.301  0.00  0.00    +0.000 A 
ATOM     18  C   UNK A   1      -5.417  -1.145 128.599  0.00  0.00    +0.000 C 
ENDBRANCH   5  10
BRANCH   1  19
ATOM     19  C   UNK A   2      -6.676   2.832 133.106  0.00  0.00    +0.000 C 
BRANCH  19  21
ATOM     20  C   UNK A   2      -4.788   5.558 133.344  0.00  0.00    +0.000 C 
ATOM     21  C   UNK A   2      -5.423   4.122 132.538  0.00  0.00    +0.000 C 
ENDBRANCH  19  21
BRANCH  19  22
ATOM     22  C   UNK A   2      -8.154   3.000 133.559  0.00  0.00    +0.000 C 
ATOM     23  C   UNK A   2      -9.269   4.005 133.983  0.00  0.00    +0.000 C 
ENDBRANCH  19  22
ENDBRANCH   1  19
BRANCH   8  24
ATOM     24  C   UNK A   0      -7.542   3.766 129.871  0.00  0.00    +0.000 C 
BRANCH  24  25
ATOM     25  C   UNK A   0      -6.524   4.199 128.238  0.00  0.00    +0.000 C 
ATOM     26  O   UNK A   0      -6.987   4.891 127.309  0.00  0.00    +0.000 OA
ATOM     27  N   UNK A   0      -4.898   4.337 128.020  0.00  0.00    +0.000 N 
ATOM     28  C   UNK A   0      -3.849   3.679 128.822  0.00  0.00    +0.000 C 
ATOM     29  C   UNK A   0      -3.094   4.871 130.123  0.00  0.00    +0.000 C 
ATOM     30  O   UNK A   0      -2.328   5.860 129.491  0.00  0.00    +0.000 OA
ATOM     31  C   UNK A   0      -3.186   6.651 128.676  0.00  0.00    +0.000 C 
ATOM     32  C   UNK A   0      -4.187   5.761 127.515  0.00  0.00    +0.000 C 
ENDBRANCH  24  25
BRANCH  24  33
ATOM     33  C   UNK A   0      -8.822   4.562 130.331  0.00  0.00    +0.000 A 
ATOM     34  C   UNK A   0     -10.145   3.996 130.362  0.00  0.00    +0.000 A 
ATOM     35  C   UNK A   0     -11.252   4.836 130.495  0.00  0.00    +0.000 A 
ATOM     36  C   UNK A   0     -10.994   6.166 130.749  0.00  0.00    +0.000 A 
ATOM     37  C   UNK A   0     -12.003   7.224 130.912  0.00  0.00    +0.000 C 
ATOM     38  N   UNK A   0      -9.775   6.663 130.928  0.00  0.00    +0.000 NA
ATOM     39  C   UNK A   0      -8.737   5.870 130.729  0.00  0.00    +0.000 A 
ATOM     40  C   UNK A   0      -7.478   6.532 131.024  0.00  0.00    +0.000 C 
ENDBRANCH  24  33
ENDBRANCH   8  24
TORSDOF 7
ENDMDL
MODEL 6
REMARK VINA RESULT:      -9.7      2.244      8.044
REMARK  Name = CHEMBL2037517
REMARK  11 active torsions:
REMARK  status: ('A' for Active; 'I' for Inactive)
REMARK    1  A    between atoms: C_1  and  C_2
REMARK    2  A    between atoms: C_2  and  C_3
REMARK    3  A    between atoms: C_3  and  C_4
REMARK    4  A    between atoms: C_3  and  C_6
REMARK    5  A    between atoms: C_4  and  C_5
REMARK    6  A    between atoms: C_10  and  C_11
REMARK    7  A    between atoms: N_22  and  C_23
REMARK    8  A    between atoms: C_23  and  C_24
REMARK    9  A    between atoms: C_23  and  C_32
REMARK   10  A    between atoms: C_35  and  C_36
REMARK   11  A    between atoms: C_38  and  C_39
REMARK                            x       y       z     vdW  Elec       q    Type
REMARK                         _______ _______ _______ _____ _____    ______ ____
ROOT
ATOM      1  C   UNK A   2      -6.816   1.835 132.114  0.00  0.00    +0.000 C 
ATOM      2  C   UNK A   2      -5.684   0.957 131.687  0.00  0.00    +0.000 C 
ATOM      3  O   UNK A   2      -4.570   0.692 132.214  0.00  0.00    +0.000 OA
ATOM      4  N   UNK A   1      -5.927   0.199 130.656  0.00  0.00    +0.000 N 
ATOM      5  C   UNK A   1      -7.254  -0.010 130.166  0.00  0.00    +0.000 C 
ATOM      6  C   UNK A   1      -7.837   1.337 129.818  0.00  0.00    +0.000 C 
ATOM      7  O   UNK A   1      -8.533   1.428 128.799  0.00  0.00    +0.000 OA
ATOM      8  N   UNK A   2      -7.503   2.372 130.687  0.00  0.00    +0.000 N 
ATOM      9  H   UNK A   1      -5.152  -0.437 130.519  0.00  0.00    +0.000 HD
ENDROOT
BRANCH   5  10
ATOM     10  C   UNK A   1      -7.160  -0.783 128.859  0.00  0.00    +0.000 C 
ATOM     11  C   UNK A   1      -7.747  -2.183 129.051  0.00  0.00    +0.000 C 
ATOM     12  C   UNK A   1      -6.526  -2.981 129.416  0.00  0.00    +0.000 A 
ATOM     13  C   UNK A   1      -6.483  -4.154 130.144  0.00  0.00    +0.000 A 
ATOM     14  C   UNK A   1      -5.235  -4.661 130.511  0.00  0.00    +0.000 A 
ATOM     15  C   UNK A   1      -4.053  -3.980 130.177  0.00  0.00    +0.000 A 
ATOM     16  C   UNK A   1      -4.101  -2.774 129.475  0.00  0.00    +0.000 A 
ATOM     17  C   UNK A   1      -5.343  -2.294 129.086  0.00  0.00    +0.000 A 
ATOM     18  C   UNK A   1      -5.661  -0.977 128.443  0.00  0.00    +0.000 C 
ENDBRANCH   5  10
BRANCH   1  19
ATOM     19  C   UNK A   2      -6.329   2.897 133.154  0.00  0.00    +0.000 C 
BRANCH  19  21
ATOM     20  C   UNK A   2      -3.571   4.077 131.722  0.00  0.00    +0.000 C 
ATOM     21  C   UNK A   2      -5.161   4.213 132.475  0.00  0.00    +0.000 C 
ENDBRANCH  19  21
BRANCH  19  22
ATOM     22  C   UNK A   2      -7.733   3.042 133.810  0.00  0.00    +0.000 C 
ATOM     23  C   UNK A   2      -8.998   3.940 133.968  0.00  0.00    +0.000 C 
ENDBRANCH  19  22
ENDBRANCH   1  19
BRANCH   8  24
ATOM     24  C   UNK A   0      -7.450   3.950 130.036  0.00  0.00    +0.000 C 
BRANCH  24  25
ATOM     25  C   UNK A   0      -6.310   4.451 128.507  0.00  0.00    +0.000 C 
ATOM     26  O   UNK A   0      -5.067   4.540 128.582  0.00  0.00    +0.000 OA
ATOM     27  N   UNK A   0      -6.562   4.237 126.894  0.00  0.00    +0.000 N 
ATOM     28  C   UNK A   0      -7.870   4.113 126.221  0.00  0.00    +0.000 C 
ATOM     29  C   UNK A   0      -8.305   2.283 125.846  0.00  0.00    +0.000 C 
ATOM     30  O   UNK A   0      -7.470   1.780 124.839  0.00  0.00    +0.000 OA
ATOM     31  C   UNK A   0      -6.129   1.780 125.317  0.00  0.00    +0.000 C 
ATOM     32  C   UNK A   0      -5.533   3.325 125.947  0.00  0.00    +0.000 C 
ENDBRANCH  24  25
BRANCH  24  33
ATOM     33  C   UNK A   0      -8.793   4.691 130.395  0.00  0.00    +0.000 A 
ATOM     34  C   UNK A   0     -10.093   4.076 130.307  0.00  0.00    +0.000 A 
ATOM     35  C   UNK A   0     -11.238   4.873 130.355  0.00  0.00    +0.000 A 
ATOM     36  C   UNK A   0     -11.053   6.207 130.645  0.00  0.00    +0.000 A 
ATOM     37  C   UNK A   0     -12.111   7.225 130.734  0.00  0.00    +0.000 C 
ATOM     38  N   UNK A   0      -9.873   6.746 130.933  0.00  0.00    +0.000 NA
ATOM     39  C   UNK A   0      -8.793   5.995 130.813  0.00  0.00    +0.000 A 
ATOM     40  C   UNK A   0      -7.589   6.699 131.222  0.00  0.00    +0.000 C 
ENDBRANCH  24  33
ENDBRANCH   8  24
TORSDOF 7
ENDMDL
MODEL 7
REMARK VINA RESULT:      -9.6      2.474      5.294
REMARK  Name = CHEMBL2037517
REMARK  11 active torsions:
REMARK  status: ('A' for Active; 'I' for Inactive)
REMARK    1  A    between atoms: C_1  and  C_2
REMARK    2  A    between atoms: C_2  and  C_3
REMARK    3  A    between atoms: C_3  and  C_4
REMARK    4  A    between atoms: C_3  and  C_6
REMARK    5  A    between atoms: C_4  and  C_5
REMARK    6  A    between atoms: C_10  and  C_11
REMARK    7  A    between atoms: N_22  and  C_23
REMARK    8  A    between atoms: C_23  and  C_24
REMARK    9  A    between atoms: C_23  and  C_32
REMARK   10  A    between atoms: C_35  and  C_36
REMARK   11  A    between atoms: C_38  and  C_39
REMARK                            x       y       z     vdW  Elec       q    Type
REMARK                         _______ _______ _______ _____ _____    ______ ____
ROOT
ATOM      1  C   UNK A   2      -8.056   2.740 128.670  0.00  0.00    +0.000 C 
ATOM      2  C   UNK A   2      -7.983   4.180 128.274  0.00  0.00    +0.000 C 
ATOM      3  O   UNK A   2      -7.640   4.749 127.204  0.00  0.00    +0.000 OA
ATOM      4  N   UNK A   1      -8.507   5.017 129.124  0.00  0.00    +0.000 N 
ATOM      5  C   UNK A   1      -9.354   4.582 130.191  0.00  0.00    +0.000 C 
ATOM      6  C   UNK A   1      -8.578   3.596 131.028  0.00  0.00    +0.000 C 
ATOM      7  O   UNK A   1      -8.710   3.641 132.257  0.00  0.00    +0.000 OA
ATOM      8  N   UNK A   2      -7.751   2.732 130.314  0.00  0.00    +0.000 N 
ATOM      9  H   UNK A   1      -8.516   5.943 128.717  0.00  0.00    +0.000 HD
ENDROOT
BRANCH   5  10
ATOM     10  C   UNK A   1      -9.634   5.777 131.090  0.00  0.00    +0.000 C 
ATOM     11  C   UNK A   1     -11.141   5.896 131.328  0.00  0.00    +0.000 C 
ATOM     12  C   UNK A   1     -11.552   6.838 130.231  0.00  0.00    +0.000 A 
ATOM     13  C   UNK A   1     -12.801   6.949 129.651  0.00  0.00    +0.000 A 
ATOM     14  C   UNK A   1     -12.943   7.779 128.537  0.00  0.00    +0.000 A 
ATOM     15  C   UNK A   1     -11.839   8.459 127.999  0.00  0.00    +0.000 A 
ATOM     16  C   UNK A   1     -10.571   8.315 128.563  0.00  0.00    +0.000 A 
ATOM     17  C   UNK A   1     -10.444   7.515 129.689  0.00  0.00    +0.000 A 
ATOM     18  C   UNK A   1      -9.183   7.106 130.392  0.00  0.00    +0.000 C 
ENDBRANCH   5  10
BRANCH   1  19
ATOM     19  C   UNK A   2      -7.154   1.865 127.739  0.00  0.00    +0.000 C 
BRANCH  19  21
ATOM     20  C   UNK A   2      -4.106   2.248 126.468  0.00  0.00    +0.000 C 
ATOM     21  C   UNK A   2      -5.321   2.309 127.747  0.00  0.00    +0.000 C 
ENDBRANCH  19  21
BRANCH  19  22
ATOM     22  C   UNK A   2      -7.867   0.539 128.130  0.00  0.00    +0.000 C 
ATOM     23  C   UNK A   2      -7.738  -1.010 128.252  0.00  0.00    +0.000 C 
ENDBRANCH  19  22
ENDBRANCH   1  19
BRANCH   8  24
ATOM     24  C   UNK A   0      -6.357   2.154 131.112  0.00  0.00    +0.000 C 
BRANCH  24  25
ATOM     25  C   UNK A   0      -5.117   3.322 132.107  0.00  0.00    +0.000 C 
ATOM     26  O   UNK A   0      -5.360   4.520 132.355  0.00  0.00    +0.000 OA
ATOM     27  N   UNK A   0      -3.996   2.933 133.247  0.00  0.00    +0.000 N 
ATOM     28  C   UNK A   0      -3.317   1.632 133.400  0.00  0.00    +0.000 C 
ATOM     29  C   UNK A   0      -4.110   0.572 134.788  0.00  0.00    +0.000 C 
ATOM     30  O   UNK A   0      -3.839   1.132 136.044  0.00  0.00    +0.000 OA
ATOM     31  C   UNK A   0      -4.458   2.412 136.117  0.00  0.00    +0.000 C 
ATOM     32  C   UNK A   0      -4.067   3.536 134.804  0.00  0.00    +0.000 C 
ENDBRANCH  24  25
BRANCH  24  33
ATOM     33  C   UNK A   0      -6.557   0.625 131.437  0.00  0.00    +0.000 A 
ATOM     34  C   UNK A   0      -7.740   0.089 132.058  0.00  0.00    +0.000 A 
ATOM     35  C   UNK A   0      -7.721  -1.207 132.575  0.00  0.00    +0.000 A 
ATOM     36  C   UNK A   0      -6.598  -1.962 132.315  0.00  0.00    +0.000 A 
ATOM     37  C   UNK A   0      -6.361  -3.341 132.770  0.00  0.00    +0.000 C 
ATOM     38  N   UNK A   0      -5.584  -1.546 131.564  0.00  0.00    +0.000 NA
ATOM     39  C   UNK A   0      -5.586  -0.294 131.142  0.00  0.00    +0.000 A 
ATOM     40  C   UNK A   0      -4.450  -0.006 130.282  0.00  0.00    +0.000 C 
ENDBRANCH  24  33
ENDBRANCH   8  24
TORSDOF 7
ENDMDL
MODEL 8
REMARK VINA RESULT:      -9.6      2.550      8.236
REMARK  Name = CHEMBL2037517
REMARK  11 active torsions:
REMARK  status: ('A' for Active; 'I' for Inactive)
REMARK    1  A    between atoms: C_1  and  C_2
REMARK    2  A    between atoms: C_2  and  C_3
REMARK    3  A    between atoms: C_3  and  C_4
REMARK    4  A    between atoms: C_3  and  C_6
REMARK    5  A    between atoms: C_4  and  C_5
REMARK    6  A    between atoms: C_10  and  C_11
REMARK    7  A    between atoms: N_22  and  C_23
REMARK    8  A    between atoms: C_23  and  C_24
REMARK    9  A    between atoms: C_23  and  C_32
REMARK   10  A    between atoms: C_35  and  C_36
REMARK   11  A    between atoms: C_38  and  C_39
REMARK                            x       y       z     vdW  Elec       q    Type
REMARK                         _______ _______ _______ _____ _____    ______ ____
ROOT
ATOM      1  C   UNK A   2      -7.336   1.717 132.601  0.00  0.00    +0.000 C 
ATOM      2  C   UNK A   2      -6.279   0.938 133.315  0.00  0.00    +0.000 C 
ATOM      3  O   UNK A   2      -6.107   0.659 134.531  0.00  0.00    +0.000 OA
ATOM      4  N   UNK A   1      -5.450   0.291 132.545  0.00  0.00    +0.000 N 
ATOM      5  C   UNK A   1      -5.711   0.087 131.154  0.00  0.00    +0.000 C 
ATOM      6  C   UNK A   1      -5.881   1.440 130.510  0.00  0.00    +0.000 C 
ATOM      7  O   UNK A   1      -5.399   1.617 129.385  0.00  0.00    +0.000 OA
ATOM      8  N   UNK A   2      -6.558   2.383 131.279  0.00  0.00    +0.000 N 
ATOM      9  H   UNK A   1      -4.853  -0.294 133.116  0.00  0.00    +0.000 HD
ENDROOT
BRANCH   5  10
ATOM     10  C   UNK A   1      -4.471  -0.531 130.526  0.00  0.00    +0.000 C 
ATOM     11  C   UNK A   1      -4.889  -1.591 129.505  0.00  0.00    +0.000 C 
ATOM     12  C   UNK A   1      -4.883  -2.841 130.340  0.00  0.00    +0.000 A 
ATOM     13  C   UNK A   1      -5.605  -3.998 130.115  0.00  0.00    +0.000 A 
ATOM     14  C   UNK A   1      -5.582  -4.994 131.094  0.00  0.00    +0.000 A 
ATOM     15  C   UNK A   1      -4.869  -4.813 132.290  0.00  0.00    +0.000 A 
ATOM     16  C   UNK A   1      -4.173  -3.628 132.531  0.00  0.00    +0.000 A 
ATOM     17  C   UNK A   1      -4.174  -2.657 131.541  0.00  0.00    +0.000 A 
ATOM     18  C   UNK A   1      -3.614  -1.267 131.613  0.00  0.00    +0.000 C 
ENDBRANCH   5  10
BRANCH   1  19
ATOM     19  C   UNK A   2      -8.081   2.673 133.589  0.00  0.00    +0.000 C 
BRANCH  19  21
ATOM     20  C   UNK A   2      -7.486   5.493 135.247  0.00  0.00    +0.000 C 
ATOM     21  C   UNK A   2      -7.040   4.088 134.277  0.00  0.00    +0.000 C 
ENDBRANCH  19  21
BRANCH  19  22
ATOM     22  C   UNK A   2      -9.380   2.706 132.734  0.00  0.00    +0.000 C 
ATOM     23  C   UNK A   2     -10.182   2.037 131.577  0.00  0.00    +0.000 C 
ENDBRANCH  19  22
ENDBRANCH   1  19
BRANCH   8  24
ATOM     24  C   UNK A   0      -6.165   4.025 131.021  0.00  0.00    +0.000 C 
BRANCH  24  25
ATOM     25  C   UNK A   0      -4.380   4.631 130.443  0.00  0.00    +0.000 C 
ATOM     26  O   UNK A   0      -3.332   4.355 131.062  0.00  0.00    +0.000 OA
ATOM     27  N   UNK A   0      -3.829   4.984 128.932  0.00  0.00    +0.000 N 
ATOM     28  C   UNK A   0      -4.645   5.423 127.784  0.00  0.00    +0.000 C 
ATOM     29  C   UNK A   0      -5.014   3.976 126.579  0.00  0.00    +0.000 C 
ATOM     30  O   UNK A   0      -3.845   3.590 125.908  0.00  0.00    +0.000 OA
ATOM     31  C   UNK A   0      -2.917   3.086 126.863  0.00  0.00    +0.000 C 
ATOM     32  C   UNK A   0      -2.560   4.153 128.233  0.00  0.00    +0.000 C 
ENDBRANCH  24  25
BRANCH  24  33
ATOM     33  C   UNK A   0      -7.490   4.822 130.721  0.00  0.00    +0.000 A 
ATOM     34  C   UNK A   0      -7.972   5.906 131.537  0.00  0.00    +0.000 A 
ATOM     35  C   UNK A   0      -9.283   6.359 131.380  0.00  0.00    +0.000 A 
ATOM     36  C   UNK A   0      -9.997   5.834 130.325  0.00  0.00    +0.000 A 
ATOM     37  C   UNK A   0     -11.390   6.158 129.980  0.00  0.00    +0.000 C 
ATOM     38  N   UNK A   0      -9.492   4.983 129.438  0.00  0.00    +0.000 NA
ATOM     39  C   UNK A   0      -8.275   4.511 129.643  0.00  0.00    +0.000 A 
ATOM     40  C   UNK A   0      -7.835   3.646 128.561  0.00  0.00    +0.000 C 
ENDBRANCH  24  33
ENDBRANCH   8  24
TORSDOF 7
ENDMDL
MODEL 9
REMARK VINA RESULT:      -9.5      2.239      3.968
REMARK  Name = CHEMBL2037517
REMARK  11 active torsions:
REMARK  status: ('A' for Active; 'I' for Inactive)
REMARK    1  A    between atoms: C_1  and  C_2
REMARK    2  A    between atoms: C_2  and  C_3
REMARK    3  A    between atoms: C_3  and  C_4
REMARK    4  A    between atoms: C_3  and  C_6
REMARK    5  A    between atoms: C_4  and  C_5
REMARK    6  A    between atoms: C_10  and  C_11
REMARK    7  A    between atoms: N_22  and  C_23
REMARK    8  A    between atoms: C_23  and  C_24
REMARK    9  A    between atoms: C_23  and  C_32
REMARK   10  A    between atoms: C_35  and  C_36
REMARK   11  A    between atoms: C_38  and  C_39
REMARK                            x       y       z     vdW  Elec       q    Type
REMARK                         _______ _______ _______ _____ _____    ______ ____
ROOT
ATOM      1  C   UNK A   2      -8.649   2.955 129.544  0.00  0.00    +0.000 C 
ATOM      2  C   UNK A   2      -8.622   4.229 128.761  0.00  0.00    +0.000 C 
ATOM      3  O   UNK A   2      -8.259   4.494 127.585  0.00  0.00    +0.000 OA
ATOM      4  N   UNK A   1      -9.219   5.240 129.326  0.00  0.00    +0.000 N 
ATOM      5  C   UNK A   1     -10.091   5.075 130.447  0.00  0.00    +0.000 C 
ATOM      6  C   UNK A   1      -9.308   4.406 131.550  0.00  0.00    +0.000 C 
ATOM      7  O   UNK A   1      -9.495   4.785 132.712  0.00  0.00    +0.000 OA
ATOM      8  N   UNK A   2      -8.415   3.423 131.132  0.00  0.00    +0.000 N 
ATOM      9  H   UNK A   1      -9.251   6.014 128.675  0.00  0.00    +0.000 HD
ENDROOT
BRANCH   5  10
ATOM     10  C   UNK A   1     -10.461   6.457 130.966  0.00  0.00    +0.000 C 
ATOM     11  C   UNK A   1     -11.984   6.581 131.047  0.00  0.00    +0.000 C 
ATOM     12  C   UNK A   1     -12.314   7.180 129.708  0.00  0.00    +0.000 A 
ATOM     13  C   UNK A   1     -13.512   7.086 129.025  0.00  0.00    +0.000 A 
ATOM     14  C   UNK A   1     -13.572   7.581 127.721  0.00  0.00    +0.000 A 
ATOM     15  C   UNK A   1     -12.436   8.132 127.106  0.00  0.00    +0.000 A 
ATOM     16  C   UNK A   1     -11.218   8.189 127.783  0.00  0.00    +0.000 A 
ATOM     17  C   UNK A   1     -11.175   7.725 129.090  0.00  0.00    +0.000 A 
ATOM     18  C   UNK A   1      -9.972   7.565 129.971  0.00  0.00    +0.000 C 
ENDBRANCH   5  10
BRANCH   1  19
ATOM     19  C   UNK A   2      -7.669   1.905 128.923  0.00  0.00    +0.000 C 
BRANCH  19  21
ATOM     20  C   UNK A   2      -5.783  -0.432 130.348  0.00  0.00    +0.000 C 
ATOM     21  C   UNK A   2      -7.296   0.411 130.012  0.00  0.00    +0.000 C 
ENDBRANCH  19  21
BRANCH  19  22
ATOM     22  C   UNK A   2      -8.323   1.982 127.514  0.00  0.00    +0.000 C 
ATOM     23  C   UNK A   2      -8.690   1.200 126.215  0.00  0.00    +0.000 C 
ENDBRANCH  19  22
ENDBRANCH   1  19
BRANCH   8  24
ATOM     24  C   UNK A   0      -7.031   3.167 132.100  0.00  0.00    +0.000 C 
BRANCH  24  25
ATOM     25  C   UNK A   0      -6.866   1.672 133.375  0.00  0.00    +0.000 C 
ATOM     26  O   UNK A   0      -7.604   0.666 133.347  0.00  0.00    +0.000 OA
ATOM     27  N   UNK A   0      -5.544   1.131 134.192  0.00  0.00    +0.000 N 
ATOM     28  C   UNK A   0      -4.354   1.924 134.556  0.00  0.00    +0.000 C 
ATOM     29  C   UNK A   0      -2.896   1.615 133.347  0.00  0.00    +0.000 C 
ATOM     30  O   UNK A   0      -2.383   0.323 133.521  0.00  0.00    +0.000 OA
ATOM     31  C   UNK A   0      -3.394  -0.619 133.175  0.00  0.00    +0.000 C 
ATOM     32  C   UNK A   0      -4.951  -0.419 133.997  0.00  0.00    +0.000 C 
ENDBRANCH  24  25
BRANCH  24  33
ATOM     33  C   UNK A   0      -5.795   3.859 131.409  0.00  0.00    +0.000 A 
ATOM     34  C   UNK A   0      -4.911   3.184 130.494  0.00  0.00    +0.000 A 
ATOM     35  C   UNK A   0      -3.688   3.767 130.160  0.00  0.00    +0.000 A 
ATOM     36  C   UNK A   0      -3.467   5.049 130.615  0.00  0.00    +0.000 A 
ATOM     37  C   UNK A   0      -2.250   5.845 130.393  0.00  0.00    +0.000 C 
ATOM     38  N   UNK A   0      -4.365   5.761 131.289  0.00  0.00    +0.000 NA
ATOM     39  C   UNK A   0      -5.488   5.170 131.657  0.00  0.00    +0.000 A 
ATOM     40  C   UNK A   0      -6.394   6.087 132.326  0.00  0.00    +0.000 C 
ENDBRANCH  24  33
ENDBRANCH   8  24
TORSDOF 7
ENDMDL
