MODEL 1
REMARK VINA RESULT:      -9.1      0.000      0.000
REMARK  Name = CHEMBL211556
REMARK  9 active torsions:
REMARK  status: ('A' for Active; 'I' for Inactive)
REMARK    1  A    between atoms: CD1_1  and  CG_2
REMARK    2  A    between atoms: CG_2  and  CD2_3
REMARK    3  A    between atoms: CG_2  and  CB_4
REMARK    4  A    between atoms: CB_4  and  CA_5
REMARK    5  A    between atoms: CA_9  and  C_10
REMARK    6  A    between atoms: N_21  and  CA_22
REMARK    7  A    between atoms: CA_22  and  C_23
REMARK    8  A    between atoms: CA_22  and  C_26
REMARK    9  A    between atoms: C_23  and  OXT_25
REMARK                            x       y       z     vdW  Elec       q    Type
REMARK                         _______ _______ _______ _____ _____    ______ ____
ROOT
ATOM      1  CA  UNL     1      -8.604   3.275 130.948  0.00  0.00    +0.000 C 
ATOM      2  C   UNL     1      -8.823   3.969 129.571  0.00  0.00    +0.000 C 
ATOM      3  O   UNL     1      -8.446   3.522 128.464  0.00  0.00    +0.000 OA
ATOM      4  N   UNL     1      -9.581   5.093 129.598  0.00  0.00    +0.000 N 
ATOM      5  CA  UNL     1     -10.319   5.542 130.771  0.00  0.00    +0.000 C 
ATOM      6  C   UNL     1      -9.424   5.448 131.955  0.00  0.00    +0.000 C 
ATOM      7  O   UNL     1      -9.518   6.310 132.859  0.00  0.00    +0.000 OA
ATOM      8  N   UNL     1      -8.523   4.426 131.985  0.00  0.00    +0.000 N 
ATOM      9  H   UNL     1      -9.747   5.518 128.691  0.00  0.00    +0.000 HD
ENDROOT
BRANCH   5  10
ATOM     10  C   UNL     1     -10.704   7.045 130.733  0.00  0.00    +0.000 C 
ATOM     11  C   UNL     1     -12.205   7.207 130.562  0.00  0.00    +0.000 C 
ATOM     12  C   UNL     1     -12.301   7.276 129.072  0.00  0.00    +0.000 A 
ATOM     13  C   UNL     1     -13.391   6.946 128.297  0.00  0.00    +0.000 A 
ATOM     14  C   UNL     1     -13.236   6.958 126.911  0.00  0.00    +0.000 A 
ATOM     15  C   UNL     1     -12.003   7.289 126.324  0.00  0.00    +0.000 A 
ATOM     16  C   UNL     1     -10.899   7.607 127.114  0.00  0.00    +0.000 A 
ATOM     17  C   UNL     1     -11.067   7.602 128.487  0.00  0.00    +0.000 A 
ATOM     18  C   UNL     1     -10.024   7.791 129.540  0.00  0.00    +0.000 C 
ENDBRANCH   5  10
BRANCH   1  19
ATOM     19  CB  UNL     1      -7.481   2.114 130.790  0.00  0.00    +0.000 C 
BRANCH  19  21
ATOM     20  CD1 UNL     1      -9.121   0.258 131.755  0.00  0.00    +0.000 C 
ATOM     21  CG  UNL     1      -7.733   0.597 131.278  0.00  0.00    +0.000 C 
ATOM     22  CD2 UNL     1      -7.812  -0.421 130.179  0.00  0.00    +0.000 C 
ENDBRANCH  19  21
ENDBRANCH   1  19
BRANCH   8  23
ATOM     23  CA  UNL     1      -7.310   4.770 132.731  0.00  0.00    +0.000 C 
BRANCH  23  24
ATOM     24  C   UNL     1      -5.996   5.205 132.097  0.00  0.00    +0.000 A 
ATOM     25  C   UNL     1      -4.875   4.350 132.025  0.00  0.00    +0.000 A 
ATOM     26  C   UNL     1      -3.625   4.900 131.741  0.00  0.00    +0.000 A 
ATOM     27  C   UNL     1      -3.528   6.234 131.362  0.00  0.00    +0.000 A 
ATOM     28  F   UNL     1      -2.336   6.797 131.152  0.00  0.00    +0.000 F 
ATOM     29  C   UNL     1      -4.647   7.009 131.211  0.00  0.00    +0.000 A 
ATOM     30  C   UNL     1      -5.857   6.480 131.555  0.00  0.00    +0.000 A 
ATOM     31  F   UNL     1      -6.861   7.318 131.356  0.00  0.00    +0.000 F 
ENDBRANCH  23  24
BRANCH  23  32
ATOM     32  C   UNL     1      -7.130   3.740 134.111  0.00  0.00    +0.000 C 
ATOM     33  O   UNL     1      -6.767   2.557 134.172  0.00  0.00    +0.000 OA
BRANCH  32  34
ATOM     34  OXT UNL     1      -6.825   4.452 135.236  0.00  0.00    +0.000 OA
ATOM     35  HXT UNL     1      -5.832   4.466 135.253  0.00  0.00    +0.000 HD
ENDBRANCH  32  34
ENDBRANCH  23  32
ENDBRANCH   8  23
TORSDOF 7
ENDMDL
MODEL 2
REMARK VINA RESULT:      -8.8      6.343      9.455
REMARK  Name = CHEMBL211556
REMARK  9 active torsions:
REMARK  status: ('A' for Active; 'I' for Inactive)
REMARK    1  A    between atoms: CD1_1  and  CG_2
REMARK    2  A    between atoms: CG_2  and  CD2_3
REMARK    3  A    between atoms: CG_2  and  CB_4
REMARK    4  A    between atoms: CB_4  and  CA_5
REMARK    5  A    between atoms: CA_9  and  C_10
REMARK    6  A    between atoms: N_21  and  CA_22
REMARK    7  A    between atoms: CA_22  and  C_23
REMARK    8  A    between atoms: CA_22  and  C_26
REMARK    9  A    between atoms: C_23  and  OXT_25
REMARK                            x       y       z     vdW  Elec       q    Type
REMARK                         _______ _______ _______ _____ _____    ______ ____
ROOT
ATOM      1  CA  UNL     1      -6.469   2.378 126.586  0.00  0.00    +0.000 C 
ATOM      2  C   UNL     1      -5.816   1.037 126.137  0.00  0.00    +0.000 C 
ATOM      3  O   UNL     1      -4.591   0.782 126.161  0.00  0.00    +0.000 OA
ATOM      4  N   UNL     1      -6.683   0.050 125.800  0.00  0.00    +0.000 N 
ATOM      5  CA  UNL     1      -8.121   0.129 126.018  0.00  0.00    +0.000 C 
ATOM      6  C   UNL     1      -8.594   1.463 125.560  0.00  0.00    +0.000 C 
ATOM      7  O   UNL     1      -9.725   1.558 125.028  0.00  0.00    +0.000 OA
ATOM      8  N   UNL     1      -7.754   2.523 125.729  0.00  0.00    +0.000 N 
ATOM      9  H   UNL     1      -6.249  -0.830 125.544  0.00  0.00    +0.000 HD
ENDROOT
BRANCH   5  10
ATOM     10  C   UNL     1      -8.943  -0.859 125.147  0.00  0.00    +0.000 C 
ATOM     11  C   UNL     1      -8.659  -2.294 125.557  0.00  0.00    +0.000 C 
ATOM     12  C   UNL     1      -7.529  -2.620 124.634  0.00  0.00    +0.000 A 
ATOM     13  C   UNL     1      -6.545  -3.564 124.831  0.00  0.00    +0.000 A 
ATOM     14  C   UNL     1      -5.505  -3.627 123.905  0.00  0.00    +0.000 A 
ATOM     15  C   UNL     1      -5.456  -2.746 122.811  0.00  0.00    +0.000 A 
ATOM     16  C   UNL     1      -6.446  -1.783 122.625  0.00  0.00    +0.000 A 
ATOM     17  C   UNL     1      -7.480  -1.737 123.543  0.00  0.00    +0.000 A 
ATOM     18  C   UNL     1      -8.586  -0.736 123.631  0.00  0.00    +0.000 C 
ENDBRANCH   5  10
BRANCH   1  19
ATOM     19  CB  UNL     1      -5.321   3.520 126.701  0.00  0.00    +0.000 C 
BRANCH  19  21
ATOM     20  CD1 UNL     1      -3.160   3.273 128.229  0.00  0.00    +0.000 C 
ATOM     21  CG  UNL     1      -4.551   3.833 128.083  0.00  0.00    +0.000 C 
ATOM     22  CD2 UNL     1      -4.050   5.240 128.230  0.00  0.00    +0.000 C 
ENDBRANCH  19  21
ENDBRANCH   1  19
BRANCH   8  23
ATOM     23  CA  UNL     1      -7.945   3.557 124.710  0.00  0.00    +0.000 C 
BRANCH  23  24
ATOM     24  C   UNL     1      -7.240   3.585 123.360  0.00  0.00    +0.000 A 
ATOM     25  C   UNL     1      -5.859   3.849 123.237  0.00  0.00    +0.000 A 
ATOM     26  C   UNL     1      -5.345   4.184 121.985  0.00  0.00    +0.000 A 
ATOM     27  C   UNL     1      -6.153   4.081 120.858  0.00  0.00    +0.000 A 
ATOM     28  F   UNL     1      -5.702   4.460 119.660  0.00  0.00    +0.000 F 
ATOM     29  C   UNL     1      -7.433   3.605 120.947  0.00  0.00    +0.000 A 
ATOM     30  C   UNL     1      -7.946   3.344 122.185  0.00  0.00    +0.000 A 
ATOM     31  F   UNL     1      -9.184   2.881 122.142  0.00  0.00    +0.000 F 
ENDBRANCH  23  24
BRANCH  23  32
ATOM     32  C   UNL     1      -8.138   5.112 125.446  0.00  0.00    +0.000 C 
ATOM     33  O   UNL     1      -8.732   5.424 126.488  0.00  0.00    +0.000 OA
BRANCH  32  34
ATOM     34  OXT UNL     1      -7.093   5.941 125.157  0.00  0.00    +0.000 OA
ATOM     35  HXT UNL     1      -7.499   6.847 125.140  0.00  0.00    +0.000 HD
ENDBRANCH  32  34
ENDBRANCH  23  32
ENDBRANCH   8  23
TORSDOF 7
ENDMDL
MODEL 3
REMARK VINA RESULT:      -8.4      5.155      9.210
REMARK  Name = CHEMBL211556
REMARK  9 active torsions:
REMARK  status: ('A' for Active; 'I' for Inactive)
REMARK    1  A    between atoms: CD1_1  and  CG_2
REMARK    2  A    between atoms: CG_2  and  CD2_3
REMARK    3  A    between atoms: CG_2  and  CB_4
REMARK    4  A    between atoms: CB_4  and  CA_5
REMARK    5  A    between atoms: CA_9  and  C_10
REMARK    6  A    between atoms: N_21  and  CA_22
REMARK    7  A    between atoms: CA_22  and  C_23
REMARK    8  A    between atoms: CA_22  and  C_26
REMARK    9  A    between atoms: C_23  and  OXT_25
REMARK                            x       y       z     vdW  Elec       q    Type
REMARK                         _______ _______ _______ _____ _____    ______ ____
ROOT
ATOM      1  CA  UNL     1      -5.516   3.213 127.432  0.00  0.00    +0.000 C 
ATOM      2  C   UNL     1      -4.492   2.123 126.997  0.00  0.00    +0.000 C 
ATOM      3  O   UNL     1      -3.291   2.328 126.712  0.00  0.00    +0.000 OA
ATOM      4  N   UNL     1      -4.943   0.845 127.048  0.00  0.00    +0.000 N 
ATOM      5  CA  UNL     1      -6.214   0.460 127.645  0.00  0.00    +0.000 C 
ATOM      6  C   UNL     1      -7.264   1.400 127.168  0.00  0.00    +0.000 C 
ATOM      7  O   UNL     1      -8.422   0.968 126.965  0.00  0.00    +0.000 OA
ATOM      8  N   UNL     1      -6.900   2.697 126.956  0.00  0.00    +0.000 N 
ATOM      9  H   UNL     1      -4.258   0.140 126.797  0.00  0.00    +0.000 HD
ENDROOT
BRANCH   5  10
ATOM     10  C   UNL     1      -6.735  -0.925 127.175  0.00  0.00    +0.000 C 
ATOM     11  C   UNL     1      -7.564  -1.581 128.267  0.00  0.00    +0.000 C 
ATOM     12  C   UNL     1      -6.505  -2.362 128.976  0.00  0.00    +0.000 A 
ATOM     13  C   UNL     1      -6.519  -2.770 130.292  0.00  0.00    +0.000 A 
ATOM     14  C   UNL     1      -5.374  -3.381 130.800  0.00  0.00    +0.000 A 
ATOM     15  C   UNL     1      -4.236  -3.568 129.995  0.00  0.00    +0.000 A 
ATOM     16  C   UNL     1      -4.222  -3.140 128.668  0.00  0.00    +0.000 A 
ATOM     17  C   UNL     1      -5.368  -2.544 128.173  0.00  0.00    +0.000 A 
ATOM     18  C   UNL     1      -5.565  -1.903 126.837  0.00  0.00    +0.000 C 
ENDBRANCH   5  10
BRANCH   1  19
ATOM     19  CB  UNL     1      -4.922   4.681 127.072  0.00  0.00    +0.000 C 
BRANCH  19  21
ATOM     20  CD1 UNL     1      -3.943   4.986 129.525  0.00  0.00    +0.000 C 
ATOM     21  CG  UNL     1      -4.117   5.572 128.148  0.00  0.00    +0.000 C 
ATOM     22  CD2 UNL     1      -2.633   5.638 127.939  0.00  0.00    +0.000 C 
ENDBRANCH  19  21
ENDBRANCH   1  19
BRANCH   8  23
ATOM     23  CA  UNL     1      -7.694   3.337 125.905  0.00  0.00    +0.000 C 
BRANCH  23  24
ATOM     24  C   UNL     1      -7.385   3.258 124.416  0.00  0.00    +0.000 A 
ATOM     25  C   UNL     1      -6.099   3.521 123.898  0.00  0.00    +0.000 A 
ATOM     26  C   UNL     1      -5.956   3.755 122.531  0.00  0.00    +0.000 A 
ATOM     27  C   UNL     1      -7.038   3.553 121.681  0.00  0.00    +0.000 A 
ATOM     28  F   UNL     1      -6.943   3.835 120.379  0.00  0.00    +0.000 F 
ATOM     29  C   UNL     1      -8.231   3.076 122.155  0.00  0.00    +0.000 A 
ATOM     30  C   UNL     1      -8.378   2.915 123.502  0.00  0.00    +0.000 A 
ATOM     31  F   UNL     1      -9.567   2.441 123.837  0.00  0.00    +0.000 F 
ENDBRANCH  23  24
BRANCH  23  32
ATOM     32  C   UNL     1      -8.275   4.880 126.433  0.00  0.00    +0.000 C 
ATOM     33  O   UNL     1      -8.926   5.733 125.812  0.00  0.00    +0.000 OA
BRANCH  32  34
ATOM     34  OXT UNL     1      -8.515   4.897 127.776  0.00  0.00    +0.000 OA
ATOM     35  HXT UNL     1      -9.244   4.234 127.903  0.00  0.00    +0.000 HD
ENDBRANCH  32  34
ENDBRANCH  23  32
ENDBRANCH   8  23
TORSDOF 7
ENDMDL
MODEL 4
REMARK VINA RESULT:      -8.3      2.848      6.698
REMARK  Name = CHEMBL211556
REMARK  9 active torsions:
REMARK  status: ('A' for Active; 'I' for Inactive)
REMARK    1  A    between atoms: CD1_1  and  CG_2
REMARK    2  A    between atoms: CG_2  and  CD2_3
REMARK    3  A    between atoms: CG_2  and  CB_4
REMARK    4  A    between atoms: CB_4  and  CA_5
REMARK    5  A    between atoms: CA_9  and  C_10
REMARK    6  A    between atoms: N_21  and  CA_22
REMARK    7  A    between atoms: CA_22  and  C_23
REMARK    8  A    between atoms: CA_22  and  C_26
REMARK    9  A    between atoms: C_23  and  OXT_25
REMARK                            x       y       z     vdW  Elec       q    Type
REMARK                         _______ _______ _______ _____ _____    ______ ____
ROOT
ATOM      1  CA  UNL     1      -6.718   4.629 130.603  0.00  0.00    +0.000 C 
ATOM      2  C   UNL     1      -6.566   4.327 129.082  0.00  0.00    +0.000 C 
ATOM      3  O   UNL     1      -6.002   5.070 128.247  0.00  0.00    +0.000 OA
ATOM      4  N   UNL     1      -6.995   3.103 128.684  0.00  0.00    +0.000 N 
ATOM      5  CA  UNL     1      -7.391   2.047 129.605  0.00  0.00    +0.000 C 
ATOM      6  C   UNL     1      -8.278   2.635 130.644  0.00  0.00    +0.000 C 
ATOM      7  O   UNL     1      -9.222   1.948 131.098  0.00  0.00    +0.000 OA
ATOM      8  N   UNL     1      -8.025   3.915 131.040  0.00  0.00    +0.000 N 
ATOM      9  H   UNL     1      -6.859   2.903 127.699  0.00  0.00    +0.000 HD
ENDROOT
BRANCH   5  10
ATOM     10  C   UNL     1      -8.277   0.949 128.958  0.00  0.00    +0.000 C 
ATOM     11  C   UNL     1      -7.534  -0.375 128.908  0.00  0.00    +0.000 C 
ATOM     12  C   UNL     1      -6.896  -0.276 127.561  0.00  0.00    +0.000 A 
ATOM     13  C   UNL     1      -5.749  -0.912 127.139  0.00  0.00    +0.000 A 
ATOM     14  C   UNL     1      -5.246  -0.587 125.881  0.00  0.00    +0.000 A 
ATOM     15  C   UNL     1      -5.885   0.367 125.070  0.00  0.00    +0.000 A 
ATOM     16  C   UNL     1      -7.037   1.019 125.508  0.00  0.00    +0.000 A 
ATOM     17  C   UNL     1      -7.533   0.681 126.754  0.00  0.00    +0.000 A 
ATOM     18  C   UNL     1      -8.672   1.309 127.490  0.00  0.00    +0.000 C 
ENDBRANCH   5  10
BRANCH   1  19
ATOM     19  CB  UNL     1      -6.408   6.200 130.871  0.00  0.00    +0.000 C 
BRANCH  19  21
ATOM     20  CD1 UNL     1      -3.786   5.792 131.017  0.00  0.00    +0.000 C 
ATOM     21  CG  UNL     1      -4.936   6.736 131.253  0.00  0.00    +0.000 C 
ATOM     22  CD2 UNL     1      -4.360   7.747 130.306  0.00  0.00    +0.000 C 
ENDBRANCH  19  21
ENDBRANCH   1  19
BRANCH   8  23
ATOM     23  CA  UNL     1      -9.235   4.617 131.473  0.00  0.00    +0.000 C 
BRANCH  23  24
ATOM     24  C   UNL     1     -10.062   5.543 130.590  0.00  0.00    +0.000 A 
ATOM     25  C   UNL     1      -9.606   6.821 130.203  0.00  0.00    +0.000 A 
ATOM     26  C   UNL     1     -10.522   7.736 129.685  0.00  0.00    +0.000 A 
ATOM     27  C   UNL     1     -11.818   7.325 129.394  0.00  0.00    +0.000 A 
ATOM     28  F   UNL     1     -12.729   8.199 128.961  0.00  0.00    +0.000 F 
ATOM     29  C   UNL     1     -12.199   6.020 129.558  0.00  0.00    +0.000 A 
ATOM     30  C   UNL     1     -11.315   5.150 130.128  0.00  0.00    +0.000 A 
ATOM     31  F   UNL     1     -11.792   3.920 130.224  0.00  0.00    +0.000 F 
ENDBRANCH  23  24
BRANCH  23  32
ATOM     32  C   UNL     1      -9.080   5.146 133.114  0.00  0.00    +0.000 C 
ATOM     33  O   UNL     1      -8.874   6.283 133.561  0.00  0.00    +0.000 OA
BRANCH  32  34
ATOM     34  OXT UNL     1      -9.793   4.355 133.968  0.00  0.00    +0.000 OA
ATOM     35  HXT UNL     1     -10.237   4.998 134.582  0.00  0.00    +0.000 HD
ENDBRANCH  32  34
ENDBRANCH  23  32
ENDBRANCH   8  23
TORSDOF 7
ENDMDL
MODEL 5
REMARK VINA RESULT:      -8.3      5.067      7.955
REMARK  Name = CHEMBL211556
REMARK  9 active torsions:
REMARK  status: ('A' for Active; 'I' for Inactive)
REMARK    1  A    between atoms: CD1_1  and  CG_2
REMARK    2  A    between atoms: CG_2  and  CD2_3
REMARK    3  A    between atoms: CG_2  and  CB_4
REMARK    4  A    between atoms: CB_4  and  CA_5
REMARK    5  A    between atoms: CA_9  and  C_10
REMARK    6  A    between atoms: N_21  and  CA_22
REMARK    7  A    between atoms: CA_22  and  C_23
REMARK    8  A    between atoms: CA_22  and  C_26
REMARK    9  A    between atoms: C_23  and  OXT_25
REMARK                            x       y       z     vdW  Elec       q    Type
REMARK                         _______ _______ _______ _____ _____    ______ ____
ROOT
ATOM      1  CA  UNL     1      -8.509   1.506 127.720  0.00  0.00    +0.000 C 
ATOM      2  C   UNL     1      -7.939   0.099 127.371  0.00  0.00    +0.000 C 
ATOM      3  O   UNL     1      -7.436  -0.704 128.188  0.00  0.00    +0.000 OA
ATOM      4  N   UNL     1      -8.116  -0.300 126.086  0.00  0.00    +0.000 N 
ATOM      5  CA  UNL     1      -8.945   0.415 125.125  0.00  0.00    +0.000 C 
ATOM      6  C   UNL     1      -8.628   1.865 125.217  0.00  0.00    +0.000 C 
ATOM      7  O   UNL     1      -8.651   2.560 124.174  0.00  0.00    +0.000 OA
ATOM      8  N   UNL     1      -8.308   2.365 126.444  0.00  0.00    +0.000 N 
ATOM      9  H   UNL     1      -7.773  -1.232 125.878  0.00  0.00    +0.000 HD
ENDROOT
BRANCH   5  10
ATOM     10  C   UNL     1      -8.627   0.072 123.645  0.00  0.00    +0.000 C 
ATOM     11  C   UNL     1      -9.174  -1.299 123.285  0.00  0.00    +0.000 C 
ATOM     12  C   UNL     1      -7.990  -2.154 123.604  0.00  0.00    +0.000 A 
ATOM     13  C   UNL     1      -8.001  -3.489 123.942  0.00  0.00    +0.000 A 
ATOM     14  C   UNL     1      -6.797  -4.076 124.329  0.00  0.00    +0.000 A 
ATOM     15  C   UNL     1      -5.610  -3.324 124.381  0.00  0.00    +0.000 A 
ATOM     16  C   UNL     1      -5.608  -1.969 124.052  0.00  0.00    +0.000 A 
ATOM     17  C   UNL     1      -6.806  -1.401 123.660  0.00  0.00    +0.000 A 
ATOM     18  C   UNL     1      -7.089   0.038 123.372  0.00  0.00    +0.000 C 
ENDBRANCH   5  10
BRANCH   1  19
ATOM     19  CB  UNL     1      -7.995   1.940 129.197  0.00  0.00    +0.000 C 
BRANCH  19  21
ATOM     20  CD1 UNL     1      -9.204   1.484 131.521  0.00  0.00    +0.000 C 
ATOM     21  CG  UNL     1      -9.009   2.420 130.356  0.00  0.00    +0.000 C 
ATOM     22  CD2 UNL     1      -8.485   3.502 131.254  0.00  0.00    +0.000 C 
ENDBRANCH  19  21
ENDBRANCH   1  19
BRANCH   8  23
ATOM     23  CA  UNL     1      -7.392   3.506 126.362  0.00  0.00    +0.000 C 
BRANCH  23  24
ATOM     24  C   UNL     1      -5.948   3.495 126.846  0.00  0.00    +0.000 A 
ATOM     25  C   UNL     1      -5.469   4.410 127.808  0.00  0.00    +0.000 A 
ATOM     26  C   UNL     1      -4.092   4.566 127.964  0.00  0.00    +0.000 A 
ATOM     27  C   UNL     1      -3.222   3.704 127.306  0.00  0.00    +0.000 A 
ATOM     28  F   UNL     1      -1.901   3.878 127.387  0.00  0.00    +0.000 F 
ATOM     29  C   UNL     1      -3.693   2.666 126.547  0.00  0.00    +0.000 A 
ATOM     30  C   UNL     1      -5.040   2.564 126.349  0.00  0.00    +0.000 A 
ATOM     31  F   UNL     1      -5.374   1.519 125.610  0.00  0.00    +0.000 F 
ENDBRANCH  23  24
BRANCH  23  32
ATOM     32  C   UNL     1      -8.235   4.987 126.663  0.00  0.00    +0.000 C 
ATOM     33  O   UNL     1      -8.882   5.701 125.883  0.00  0.00    +0.000 OA
BRANCH  32  34
ATOM     34  OXT UNL     1      -8.680   5.063 127.951  0.00  0.00    +0.000 OA
ATOM     35  HXT UNL     1      -9.666   4.973 127.874  0.00  0.00    +0.000 HD
ENDBRANCH  32  34
ENDBRANCH  23  32
ENDBRANCH   8  23
TORSDOF 7
ENDMDL
MODEL 6
REMARK VINA RESULT:      -8.2      2.472      7.164
REMARK  Name = CHEMBL211556
REMARK  9 active torsions:
REMARK  status: ('A' for Active; 'I' for Inactive)
REMARK    1  A    between atoms: CD1_1  and  CG_2
REMARK    2  A    between atoms: CG_2  and  CD2_3
REMARK    3  A    between atoms: CG_2  and  CB_4
REMARK    4  A    between atoms: CB_4  and  CA_5
REMARK    5  A    between atoms: CA_9  and  C_10
REMARK    6  A    between atoms: N_21  and  CA_22
REMARK    7  A    between atoms: CA_22  and  C_23
REMARK    8  A    between atoms: CA_22  and  C_26
REMARK    9  A    between atoms: C_23  and  OXT_25
REMARK                            x       y       z     vdW  Elec       q    Type
REMARK                         _______ _______ _______ _____ _____    ______ ____
ROOT
ATOM      1  CA  UNL     1      -6.279   3.247 131.433  0.00  0.00    +0.000 C 
ATOM      2  C   UNL     1      -5.740   4.320 132.425  0.00  0.00    +0.000 C 
ATOM      3  O   UNL     1      -5.974   4.354 133.654  0.00  0.00    +0.000 OA
ATOM      4  N   UNL     1      -4.862   5.211 131.901  0.00  0.00    +0.000 N 
ATOM      5  CA  UNL     1      -4.287   5.090 130.568  0.00  0.00    +0.000 C 
ATOM      6  C   UNL     1      -5.378   4.758 129.612  0.00  0.00    +0.000 C 
ATOM      7  O   UNL     1      -5.333   5.226 128.451  0.00  0.00    +0.000 OA
ATOM      8  N   UNL     1      -6.392   3.967 130.063  0.00  0.00    +0.000 N 
ATOM      9  H   UNL     1      -4.490   5.883 132.563  0.00  0.00    +0.000 HD
ENDROOT
BRANCH   5  10
ATOM     10  C   UNL     1      -3.715   6.420 130.008  0.00  0.00    +0.000 C 
ATOM     11  C   UNL     1      -2.206   6.328 129.854  0.00  0.00    +0.000 C 
ATOM     12  C   UNL     1      -1.767   6.847 131.185  0.00  0.00    +0.000 A 
ATOM     13  C   UNL     1      -0.580   6.572 131.830  0.00  0.00    +0.000 A 
ATOM     14  C   UNL     1      -0.414   7.055 133.127  0.00  0.00    +0.000 A 
ATOM     15  C   UNL     1      -1.430   7.792 133.761  0.00  0.00    +0.000 A 
ATOM     16  C   UNL     1      -2.634   8.054 133.109  0.00  0.00    +0.000 A 
ATOM     17  C   UNL     1      -2.784   7.579 131.819  0.00  0.00    +0.000 A 
ATOM     18  C   UNL     1      -4.005   7.626 130.959  0.00  0.00    +0.000 C 
ENDBRANCH   5  10
BRANCH   1  19
ATOM     19  CB  UNL     1      -7.496   2.432 132.133  0.00  0.00    +0.000 C 
BRANCH  19  21
ATOM     20  CD1 UNL     1      -7.591  -0.200 132.488  0.00  0.00    +0.000 C 
ATOM     21  CG  UNL     1      -7.964   0.976 131.624  0.00  0.00    +0.000 C 
ATOM     22  CD2 UNL     1      -9.428   0.685 131.781  0.00  0.00    +0.000 C 
ENDBRANCH  19  21
ENDBRANCH   1  19
BRANCH   8  23
ATOM     23  CA  UNL     1      -7.662   4.246 129.388  0.00  0.00    +0.000 C 
BRANCH  23  24
ATOM     24  C   UNL     1      -8.886   4.855 130.061  0.00  0.00    +0.000 A 
ATOM     25  C   UNL     1     -10.099   4.148 130.200  0.00  0.00    +0.000 A 
ATOM     26  C   UNL     1     -11.259   4.854 130.516  0.00  0.00    +0.000 A 
ATOM     27  C   UNL     1     -11.176   6.198 130.860  0.00  0.00    +0.000 A 
ATOM     28  F   UNL     1     -12.279   6.909 131.101  0.00  0.00    +0.000 F 
ATOM     29  C   UNL     1      -9.965   6.832 130.947  0.00  0.00    +0.000 A 
ATOM     30  C   UNL     1      -8.844   6.150 130.570  0.00  0.00    +0.000 A 
ATOM     31  F   UNL     1      -7.738   6.862 130.707  0.00  0.00    +0.000 F 
ENDBRANCH  23  24
BRANCH  23  32
ATOM     32  C   UNL     1      -8.025   3.009 128.233  0.00  0.00    +0.000 C 
ATOM     33  O   UNL     1      -8.540   1.895 128.404  0.00  0.00    +0.000 OA
BRANCH  32  34
ATOM     34  OXT UNL     1      -8.275   3.530 126.997  0.00  0.00    +0.000 OA
ATOM     35  HXT UNL     1      -7.557   4.204 126.866  0.00  0.00    +0.000 HD
ENDBRANCH  32  34
ENDBRANCH  23  32
ENDBRANCH   8  23
TORSDOF 7
ENDMDL
MODEL 7
REMARK VINA RESULT:      -8.1      2.197      2.658
REMARK  Name = CHEMBL211556
REMARK  9 active torsions:
REMARK  status: ('A' for Active; 'I' for Inactive)
REMARK    1  A    between atoms: CD1_1  and  CG_2
REMARK    2  A    between atoms: CG_2  and  CD2_3
REMARK    3  A    between atoms: CG_2  and  CB_4
REMARK    4  A    between atoms: CB_4  and  CA_5
REMARK    5  A    between atoms: CA_9  and  C_10
REMARK    6  A    between atoms: N_21  and  CA_22
REMARK    7  A    between atoms: CA_22  and  C_23
REMARK    8  A    between atoms: CA_22  and  C_26
REMARK    9  A    between atoms: C_23  and  OXT_25
REMARK                            x       y       z     vdW  Elec       q    Type
REMARK                         _______ _______ _______ _____ _____    ______ ____
ROOT
ATOM      1  CA  UNL     1      -7.375   2.952 128.888  0.00  0.00    +0.000 C 
ATOM      2  C   UNL     1      -7.894   4.228 128.161  0.00  0.00    +0.000 C 
ATOM      3  O   UNL     1      -7.749   4.480 126.944  0.00  0.00    +0.000 OA
ATOM      4  N   UNL     1      -8.654   5.061 128.916  0.00  0.00    +0.000 N 
ATOM      5  CA  UNL     1      -9.137   4.727 130.249  0.00  0.00    +0.000 C 
ATOM      6  C   UNL     1      -8.010   4.147 131.027  0.00  0.00    +0.000 C 
ATOM      7  O   UNL     1      -7.931   4.386 132.254  0.00  0.00    +0.000 OA
ATOM      8  N   UNL     1      -7.101   3.389 130.352  0.00  0.00    +0.000 N 
ATOM      9  H   UNL     1      -9.017   5.870 128.424  0.00  0.00    +0.000 HD
ENDROOT
BRANCH   5  10
ATOM     10  C   UNL     1      -9.555   5.962 131.092  0.00  0.00    +0.000 C 
ATOM     11  C   UNL     1     -11.061   5.988 131.290  0.00  0.00    +0.000 C 
ATOM     12  C   UNL     1     -11.473   6.811 130.113  0.00  0.00    +0.000 A 
ATOM     13  C   UNL     1     -12.696   6.794 129.478  0.00  0.00    +0.000 A 
ATOM     14  C   UNL     1     -12.840   7.549 128.316  0.00  0.00    +0.000 A 
ATOM     15  C   UNL     1     -11.768   8.298 127.801  0.00  0.00    +0.000 A 
ATOM     16  C   UNL     1     -10.528   8.300 128.439  0.00  0.00    +0.000 A 
ATOM     17  C   UNL     1     -10.400   7.556 129.598  0.00  0.00    +0.000 A 
ATOM     18  C   UNL     1      -9.161   7.304 130.395  0.00  0.00    +0.000 C 
ENDBRANCH   5  10
BRANCH   1  19
ATOM     19  CB  UNL     1      -6.284   2.205 127.945  0.00  0.00    +0.000 C 
BRANCH  19  21
ATOM     20  CD1 UNL     1      -8.156   0.685 126.826  0.00  0.00    +0.000 C 
ATOM     21  CG  UNL     1      -6.692   1.030 126.919  0.00  0.00    +0.000 C 
ATOM     22  CD2 UNL     1      -6.642   1.405 125.467  0.00  0.00    +0.000 C 
ENDBRANCH  19  21
ENDBRANCH   1  19
BRANCH   8  23
ATOM     23  CA  UNL     1      -5.766   3.448 130.951  0.00  0.00    +0.000 C 
BRANCH  23  24
ATOM     24  C   UNL     1      -4.672   4.424 130.539  0.00  0.00    +0.000 A 
ATOM     25  C   UNL     1      -3.938   4.271 129.343  0.00  0.00    +0.000 A 
ATOM     26  C   UNL     1      -2.753   4.987 129.183  0.00  0.00    +0.000 A 
ATOM     27  C   UNL     1      -2.405   5.961 130.112  0.00  0.00    +0.000 A 
ATOM     28  F   UNL     1      -1.243   6.611 130.015  0.00  0.00    +0.000 F 
ATOM     29  C   UNL     1      -3.235   6.271 131.157  0.00  0.00    +0.000 A 
ATOM     30  C   UNL     1      -4.359   5.518 131.340  0.00  0.00    +0.000 A 
ATOM     31  F   UNL     1      -5.083   5.918 132.372  0.00  0.00    +0.000 F 
ENDBRANCH  23  24
BRANCH  23  32
ATOM     32  C   UNL     1      -5.197   1.858 131.332  0.00  0.00    +0.000 C 
ATOM     33  O   UNL     1      -4.454   1.108 130.683  0.00  0.00    +0.000 OA
BRANCH  32  34
ATOM     34  OXT UNL     1      -5.109   1.662 132.680  0.00  0.00    +0.000 OA
ATOM     35  HXT UNL     1      -4.980   2.574 133.051  0.00  0.00    +0.000 HD
ENDBRANCH  32  34
ENDBRANCH  23  32
ENDBRANCH   8  23
TORSDOF 7
ENDMDL
MODEL 8
REMARK VINA RESULT:      -7.9      2.989      7.142
REMARK  Name = CHEMBL211556
REMARK  9 active torsions:
REMARK  status: ('A' for Active; 'I' for Inactive)
REMARK    1  A    between atoms: CD1_1  and  CG_2
REMARK    2  A    between atoms: CG_2  and  CD2_3
REMARK    3  A    between atoms: CG_2  and  CB_4
REMARK    4  A    between atoms: CB_4  and  CA_5
REMARK    5  A    between atoms: CA_9  and  C_10
REMARK    6  A    between atoms: N_21  and  CA_22
REMARK    7  A    between atoms: CA_22  and  C_23
REMARK    8  A    between atoms: CA_22  and  C_26
REMARK    9  A    between atoms: C_23  and  OXT_25
REMARK                            x       y       z     vdW  Elec       q    Type
REMARK                         _______ _______ _______ _____ _____    ______ ____
ROOT
ATOM      1  CA  UNL     1      -5.135   3.202 131.081  0.00  0.00    +0.000 C 
ATOM      2  C   UNL     1      -5.838   2.283 130.039  0.00  0.00    +0.000 C 
ATOM      3  O   UNL     1      -5.734   2.383 128.795  0.00  0.00    +0.000 OA
ATOM      4  N   UNL     1      -6.524   1.233 130.555  0.00  0.00    +0.000 N 
ATOM      5  CA  UNL     1      -6.469   0.844 131.957  0.00  0.00    +0.000 C 
ATOM      6  C   UNL     1      -6.615   2.066 132.792  0.00  0.00    +0.000 C 
ATOM      7  O   UNL     1      -7.235   1.991 133.878  0.00  0.00    +0.000 OA
ATOM      8  N   UNL     1      -6.073   3.223 132.317  0.00  0.00    +0.000 N 
ATOM      9  H   UNL     1      -6.948   0.621 129.867  0.00  0.00    +0.000 HD
ENDROOT
BRANCH   5  10
ATOM     10  C   UNL     1      -7.661  -0.042 132.410  0.00  0.00    +0.000 C 
ATOM     11  C   UNL     1      -7.159  -1.332 133.037  0.00  0.00    +0.000 C 
ATOM     12  C   UNL     1      -7.121  -2.219 131.835  0.00  0.00    +0.000 A 
ATOM     13  C   UNL     1      -6.327  -3.330 131.651  0.00  0.00    +0.000 A 
ATOM     14  C   UNL     1      -6.350  -3.950 130.402  0.00  0.00    +0.000 A 
ATOM     15  C   UNL     1      -7.152  -3.452 129.361  0.00  0.00    +0.000 A 
ATOM     16  C   UNL     1      -7.942  -2.319 129.549  0.00  0.00    +0.000 A 
ATOM     17  C   UNL     1      -7.920  -1.718 130.794  0.00  0.00    +0.000 A 
ATOM     18  C   UNL     1      -8.578  -0.443 131.210  0.00  0.00    +0.000 C 
ENDBRANCH   5  10
BRANCH   1  19
ATOM     19  CB  UNL     1      -4.587   4.536 130.336  0.00  0.00    +0.000 C 
BRANCH  19  21
ATOM     20  CD1 UNL     1      -2.674   5.354 128.681  0.00  0.00    +0.000 C 
ATOM     21  CG  UNL     1      -3.021   4.769 130.025  0.00  0.00    +0.000 C 
ATOM     22  CD2 UNL     1      -2.394   5.928 130.742  0.00  0.00    +0.000 C 
ENDBRANCH  19  21
ENDBRANCH   1  19
BRANCH   8  23
ATOM     23  CA  UNL     1      -6.801   4.410 132.772  0.00  0.00    +0.000 C 
BRANCH  23  24
ATOM     24  C   UNL     1      -7.871   5.133 131.965  0.00  0.00    +0.000 A 
ATOM     25  C   UNL     1      -7.576   6.251 131.154  0.00  0.00    +0.000 A 
ATOM     26  C   UNL     1      -8.624   7.058 130.711  0.00  0.00    +0.000 A 
ATOM     27  C   UNL     1      -9.938   6.658 130.921  0.00  0.00    +0.000 A 
ATOM     28  F   UNL     1     -10.955   7.446 130.566  0.00  0.00    +0.000 F 
ATOM     29  C   UNL     1     -10.226   5.456 131.511  0.00  0.00    +0.000 A 
ATOM     30  C   UNL     1      -9.195   4.707 131.999  0.00  0.00    +0.000 A 
ATOM     31  F   UNL     1      -9.597   3.566 132.535  0.00  0.00    +0.000 F 
ENDBRANCH  23  24
BRANCH  23  32
ATOM     32  C   UNL     1      -5.758   5.457 133.674  0.00  0.00    +0.000 C 
ATOM     33  O   UNL     1      -4.935   6.291 133.270  0.00  0.00    +0.000 OA
BRANCH  32  34
ATOM     34  OXT UNL     1      -6.291   5.775 134.890  0.00  0.00    +0.000 OA
ATOM     35  HXT UNL     1      -6.407   6.761 134.854  0.00  0.00    +0.000 HD
ENDBRANCH  32  34
ENDBRANCH  23  32
ENDBRANCH   8  23
TORSDOF 7
ENDMDL
MODEL 9
REMARK VINA RESULT:      -7.8      2.725      3.677
REMARK  Name = CHEMBL211556
REMARK  9 active torsions:
REMARK  status: ('A' for Active; 'I' for Inactive)
REMARK    1  A    between atoms: CD1_1  and  CG_2
REMARK    2  A    between atoms: CG_2  and  CD2_3
REMARK    3  A    between atoms: CG_2  and  CB_4
REMARK    4  A    between atoms: CB_4  and  CA_5
REMARK    5  A    between atoms: CA_9  and  C_10
REMARK    6  A    between atoms: N_21  and  CA_22
REMARK    7  A    between atoms: CA_22  and  C_23
REMARK    8  A    between atoms: CA_22  and  C_26
REMARK    9  A    between atoms: C_23  and  OXT_25
REMARK                            x       y       z     vdW  Elec       q    Type
REMARK                         _______ _______ _______ _____ _____    ______ ____
ROOT
ATOM      1  CA  UNL     1      -7.333   2.349 129.065  0.00  0.00    +0.000 C 
ATOM      2  C   UNL     1      -7.988   3.610 128.428  0.00  0.00    +0.000 C 
ATOM      3  O   UNL     1      -8.299   3.735 127.222  0.00  0.00    +0.000 OA
ATOM      4  N   UNL     1      -8.335   4.591 129.298  0.00  0.00    +0.000 N 
ATOM      5  CA  UNL     1      -8.298   4.436 130.746  0.00  0.00    +0.000 C 
ATOM      6  C   UNL     1      -7.009   3.794 131.119  0.00  0.00    +0.000 C 
ATOM      7  O   UNL     1      -6.449   4.129 132.188  0.00  0.00    +0.000 OA
ATOM      8  N   UNL     1      -6.489   2.876 130.256  0.00  0.00    +0.000 N 
ATOM      9  H   UNL     1      -8.793   5.392 128.878  0.00  0.00    +0.000 HD
ENDROOT
BRANCH   5  10
ATOM     10  C   UNL     1      -8.264   5.781 131.521  0.00  0.00    +0.000 C 
ATOM     11  C   UNL     1      -9.440   5.875 132.477  0.00  0.00    +0.000 C 
ATOM     12  C   UNL     1     -10.446   6.550 131.603  0.00  0.00    +0.000 A 
ATOM     13  C   UNL     1     -11.818   6.485 131.716  0.00  0.00    +0.000 A 
ATOM     14  C   UNL     1     -12.585   7.087 130.720  0.00  0.00    +0.000 A 
ATOM     15  C   UNL     1     -11.978   7.732 129.629  0.00  0.00    +0.000 A 
ATOM     16  C   UNL     1     -10.589   7.782 129.511  0.00  0.00    +0.000 A 
ATOM     17  C   UNL     1      -9.838   7.191 130.511  0.00  0.00    +0.000 A 
ATOM     18  C   UNL     1      -8.356   7.009 130.559  0.00  0.00    +0.000 C 
ENDBRANCH   5  10
BRANCH   1  19
ATOM     19  CB  UNL     1      -6.747   1.396 127.888  0.00  0.00    +0.000 C 
BRANCH  19  21
ATOM     20  CD1 UNL     1      -8.411   0.037 126.324  0.00  0.00    +0.000 C 
ATOM     21  CG  UNL     1      -7.445   0.001 127.480  0.00  0.00    +0.000 C 
ATOM     22  CD2 UNL     1      -6.555  -0.973 126.766  0.00  0.00    +0.000 C 
ENDBRANCH  19  21
ENDBRANCH   1  19
BRANCH   8  23
ATOM     23  CA  UNL     1      -5.026   2.826 130.307  0.00  0.00    +0.000 C 
BRANCH  23  24
ATOM     24  C   UNL     1      -4.100   3.832 129.635  0.00  0.00    +0.000 A 
ATOM     25  C   UNL     1      -3.144   4.575 130.360  0.00  0.00    +0.000 A 
ATOM     26  C   UNL     1      -2.567   5.696 129.763  0.00  0.00    +0.000 A 
ATOM     27  C   UNL     1      -2.804   5.960 128.419  0.00  0.00    +0.000 A 
ATOM     28  F   UNL     1      -2.317   7.062 127.845  0.00  0.00    +0.000 F 
ATOM     29  C   UNL     1      -3.554   5.108 127.652  0.00  0.00    +0.000 A 
ATOM     30  C   UNL     1      -4.167   4.052 128.263  0.00  0.00    +0.000 A 
ATOM     31  F   UNL     1      -4.852   3.297 127.420  0.00  0.00    +0.000 F 
ENDBRANCH  23  24
BRANCH  23  32
ATOM     32  C   UNL     1      -4.468   1.188 130.240  0.00  0.00    +0.000 C 
ATOM     33  O   UNL     1      -4.974   0.162 130.716  0.00  0.00    +0.000 OA
BRANCH  32  34
ATOM     34  OXT UNL     1      -3.732   0.950 129.116  0.00  0.00    +0.000 OA
ATOM     35  HXT UNL     1      -4.395   0.616 128.456  0.00  0.00    +0.000 HD
ENDBRANCH  32  34
ENDBRANCH  23  32
ENDBRANCH   8  23
TORSDOF 7
ENDMDL
