MODEL 1
REMARK VINA RESULT:     -11.2      0.000      0.000
REMARK  Name = CHEMBL69539
REMARK  8 active torsions:
REMARK  status: ('A' for Active; 'I' for Inactive)
REMARK    1  A    between atoms: C_1  and  O_2
REMARK    2  A    between atoms: O_2  and  C_3
REMARK    3  A    between atoms: C_5  and  O_6
REMARK    4  A    between atoms: O_6  and  C_7
REMARK    5  A    between atoms: N_10  and  C_11
REMARK    6  A    between atoms: C_11  and  C_12
REMARK    7  A    between atoms: C_23  and  C_24
REMARK    8  A    between atoms: C_29  and  N_30
REMARK                            x       y       z     vdW  Elec       q    Type
REMARK                         _______ _______ _______ _____ _____    ______ ____
ROOT
ATOM      1  C   UNL     1      -6.003   3.590 126.631  0.00  0.00    +0.000 A 
ATOM      2  C   UNL     1      -6.315   2.711 125.521  0.00  0.00    +0.000 A 
ATOM      3  C   UNL     1      -5.994   1.403 125.574  0.00  0.00    +0.000 A 
ATOM      4  C   UNL     1      -5.267   1.206 126.692  0.00  0.00    +0.000 A 
ATOM      5  C   UNL     1      -4.926   1.948 127.795  0.00  0.00    +0.000 A 
ATOM      6  C   UNL     1      -5.289   3.222 127.795  0.00  0.00    +0.000 A 
ENDROOT
BRANCH   6   7
ATOM      7  C   UNL     1      -4.787   3.869 129.051  0.00  0.00    +0.000 C 
ATOM      8  O   UNL     1      -3.581   4.060 129.241  0.00  0.00    +0.000 OA
ATOM      9  N   UNL     1      -5.725   4.337 129.930  0.00  0.00    +0.000 N 
ATOM     10  C   UNL     1      -5.832   5.826 129.992  0.00  0.00    +0.000 C 
ATOM     11  C   UNL     1      -6.333   6.249 131.327  0.00  0.00    +0.000 C 
ATOM     12  C   UNL     1      -8.021   5.750 131.471  0.00  0.00    +0.000 C 
ATOM     13  C   UNL     1      -7.511   4.026 131.589  0.00  0.00    +0.000 C 
ATOM     14  C   UNL     1      -6.847   3.447 130.369  0.00  0.00    +0.000 C 
BRANCH  12  15
ATOM     15  N   UNL     1      -9.256   6.996 130.780  0.00  0.00    +0.000 N 
ATOM     16  C   UNL     1     -10.063   6.429 131.868  0.00  0.00    +0.000 C 
ATOM     17  O   UNL     1      -9.853   6.312 133.005  0.00  0.00    +0.000 OA
ATOM     18  O   UNL     1     -11.123   5.744 131.385  0.00  0.00    +0.000 OA
ATOM     19  C   UNL     1     -12.013   6.778 131.508  0.00  0.00    +0.000 C 
ATOM     20  C   UNL     1     -11.917   6.998 130.068  0.00  0.00    +0.000 A 
ATOM     21  C   UNL     1     -13.133   6.716 129.303  0.00  0.00    +0.000 A 
ATOM     22  C   UNL     1     -13.501   7.319 128.130  0.00  0.00    +0.000 A 
ATOM     23  C   UNL     1     -12.806   8.482 127.993  0.00  0.00    +0.000 A 
ATOM     24  C   UNL     1     -11.410   8.630 128.787  0.00  0.00    +0.000 A 
ATOM     25  C   UNL     1     -10.668   7.502 129.667  0.00  0.00    +0.000 A 
ENDBRANCH  12  15
ENDBRANCH   6   7
BRANCH   1  27
ATOM     26  C   UNL     1      -7.873   4.612 125.847  0.00  0.00    +0.000 C 
ATOM     27  O   UNL     1      -6.617   4.780 126.429  0.00  0.00    +0.000 OA
ENDBRANCH   1  27
BRANCH   3  28
ATOM     28  O   UNL     1      -6.360   0.421 124.707  0.00  0.00    +0.000 OA
BRANCH  28  29
ATOM     29  C   UNL     1      -7.694   0.302 124.059  0.00  0.00    +0.000 C 
ATOM     30  C   UNL     1      -8.965   0.409 124.944  0.00  0.00    +0.000 C 
ATOM     31  C   UNL     1      -9.242  -0.833 125.770  0.00  0.00    +0.000 C 
ATOM     32  N   UNL     1      -9.164  -2.096 124.891  0.00  0.00    +0.000 NA
ATOM     33  C   UNL     1      -8.031  -2.159 123.851  0.00  0.00    +0.000 C 
ATOM     34  C   UNL     1      -7.788  -0.882 123.105  0.00  0.00    +0.000 C 
BRANCH  32  35
ATOM     35  C   UNL     1      -9.134  -3.287 125.780  0.00  0.00    +0.000 C 
BRANCH  35  36
ATOM     36  C   UNL     1      -8.316  -3.165 127.014  0.00  0.00    +0.000 A 
ATOM     37  C   UNL     1      -8.785  -3.591 128.268  0.00  0.00    +0.000 A 
ATOM     38  C   UNL     1      -8.129  -3.230 129.415  0.00  0.00    +0.000 A 
ATOM     39  C   UNL     1      -6.883  -2.652 129.271  0.00  0.00    +0.000 A 
ATOM     40  N   UNL     1      -6.302  -2.422 128.026  0.00  0.00    +0.000 N 
ATOM     41  O   UNL     1      -5.128  -1.962 127.929  0.00  0.00    +0.000 OA
ATOM     42  C   UNL     1      -7.037  -2.672 126.901  0.00  0.00    +0.000 A 
ENDBRANCH  35  36
ENDBRANCH  32  35
ENDBRANCH  28  29
ENDBRANCH   3  28
TORSDOF 7
ENDMDL
MODEL 2
REMARK VINA RESULT:     -11.2      3.008      5.330
REMARK  Name = CHEMBL69539
REMARK  8 active torsions:
REMARK  status: ('A' for Active; 'I' for Inactive)
REMARK    1  A    between atoms: C_1  and  O_2
REMARK    2  A    between atoms: O_2  and  C_3
REMARK    3  A    between atoms: C_5  and  O_6
REMARK    4  A    between atoms: O_6  and  C_7
REMARK    5  A    between atoms: N_10  and  C_11
REMARK    6  A    between atoms: C_11  and  C_12
REMARK    7  A    between atoms: C_23  and  C_24
REMARK    8  A    between atoms: C_29  and  N_30
REMARK                            x       y       z     vdW  Elec       q    Type
REMARK                         _______ _______ _______ _____ _____    ______ ____
ROOT
ATOM      1  C   UNL     1      -7.571  -1.056 129.978  0.00  0.00    +0.000 A 
ATOM      2  C   UNL     1      -7.812  -1.577 128.647  0.00  0.00    +0.000 A 
ATOM      3  C   UNL     1      -7.373  -0.909 127.562  0.00  0.00    +0.000 A 
ATOM      4  C   UNL     1      -6.878   0.272 127.982  0.00  0.00    +0.000 A 
ATOM      5  C   UNL     1      -6.597   0.854 129.193  0.00  0.00    +0.000 A 
ATOM      6  C   UNL     1      -6.960   0.184 130.277  0.00  0.00    +0.000 A 
ENDROOT
BRANCH   6   7
ATOM      7  C   UNL     1      -6.615   0.999 131.487  0.00  0.00    +0.000 C 
ATOM      8  O   UNL     1      -5.552   0.835 132.095  0.00  0.00    +0.000 OA
ATOM      9  N   UNL     1      -7.476   2.007 131.826  0.00  0.00    +0.000 N 
ATOM     10  C   UNL     1      -6.956   3.383 131.566  0.00  0.00    +0.000 C 
ATOM     11  C   UNL     1      -7.592   4.355 132.497  0.00  0.00    +0.000 C 
ATOM     12  C   UNL     1      -9.295   4.514 132.057  0.00  0.00    +0.000 C 
ATOM     13  C   UNL     1      -9.619   2.854 132.680  0.00  0.00    +0.000 C 
ATOM     14  C   UNL     1      -8.943   1.727 131.946  0.00  0.00    +0.000 C 
BRANCH  12  15
ATOM     15  N   UNL     1      -9.631   5.801 130.722  0.00  0.00    +0.000 N 
ATOM     16  C   UNL     1     -10.627   6.216 131.718  0.00  0.00    +0.000 C 
ATOM     17  O   UNL     1     -10.527   6.486 132.844  0.00  0.00    +0.000 OA
ATOM     18  O   UNL     1     -11.885   6.026 131.262  0.00  0.00    +0.000 OA
ATOM     19  C   UNL     1     -12.058   7.311 130.820  0.00  0.00    +0.000 C 
ATOM     20  C   UNL     1     -11.844   6.844 129.454  0.00  0.00    +0.000 A 
ATOM     21  C   UNL     1     -13.006   6.925 128.569  0.00  0.00    +0.000 A 
ATOM     22  C   UNL     1     -12.970   7.091 127.210  0.00  0.00    +0.000 A 
ATOM     23  C   UNL     1     -11.748   7.575 126.855  0.00  0.00    +0.000 A 
ATOM     24  C   UNL     1     -10.509   7.314 127.854  0.00  0.00    +0.000 A 
ATOM     25  C   UNL     1     -10.520   6.439 129.208  0.00  0.00    +0.000 A 
ENDBRANCH  12  15
ENDBRANCH   6   7
BRANCH   1  27
ATOM     26  C   UNL     1      -7.160  -3.169 130.700  0.00  0.00    +0.000 C 
ATOM     27  O   UNL     1      -7.905  -2.005 130.885  0.00  0.00    +0.000 OA
ENDBRANCH   1  27
BRANCH   3  28
ATOM     28  O   UNL     1      -7.366  -1.335 126.270  0.00  0.00    +0.000 OA
BRANCH  28  29
ATOM     29  C   UNL     1      -8.456  -1.104 125.284  0.00  0.00    +0.000 C 
ATOM     30  C   UNL     1      -8.129  -1.215 123.770  0.00  0.00    +0.000 C 
ATOM     31  C   UNL     1      -7.362  -0.027 123.221  0.00  0.00    +0.000 C 
ATOM     32  N   UNL     1      -8.032   1.293 123.647  0.00  0.00    +0.000 NA
ATOM     33  C   UNL     1      -8.559   1.379 125.092  0.00  0.00    +0.000 C 
ATOM     34  C   UNL     1      -9.266   0.152 125.579  0.00  0.00    +0.000 C 
BRANCH  32  35
ATOM     35  C   UNL     1      -7.098   2.411 123.357  0.00  0.00    +0.000 C 
BRANCH  35  36
ATOM     36  C   UNL     1      -7.348   3.168 122.103  0.00  0.00    +0.000 A 
ATOM     37  C   UNL     1      -8.640   3.337 121.576  0.00  0.00    +0.000 A 
ATOM     38  C   UNL     1      -8.815   3.802 120.299  0.00  0.00    +0.000 A 
ATOM     39  C   UNL     1      -7.703   4.316 119.660  0.00  0.00    +0.000 A 
ATOM     40  N   UNL     1      -6.447   4.358 120.259  0.00  0.00    +0.000 N 
ATOM     41  O   UNL     1      -5.465   4.905 119.677  0.00  0.00    +0.000 OA
ATOM     42  C   UNL     1      -6.278   3.767 121.480  0.00  0.00    +0.000 A 
ENDBRANCH  35  36
ENDBRANCH  32  35
ENDBRANCH  28  29
ENDBRANCH   3  28
TORSDOF 7
ENDMDL
MODEL 3
REMARK VINA RESULT:     -11.1      2.475      9.112
REMARK  Name = CHEMBL69539
REMARK  8 active torsions:
REMARK  status: ('A' for Active; 'I' for Inactive)
REMARK    1  A    between atoms: C_1  and  O_2
REMARK    2  A    between atoms: O_2  and  C_3
REMARK    3  A    between atoms: C_5  and  O_6
REMARK    4  A    between atoms: O_6  and  C_7
REMARK    5  A    between atoms: N_10  and  C_11
REMARK    6  A    between atoms: C_11  and  C_12
REMARK    7  A    between atoms: C_23  and  C_24
REMARK    8  A    between atoms: C_29  and  N_30
REMARK                            x       y       z     vdW  Elec       q    Type
REMARK                         _______ _______ _______ _____ _____    ______ ____
ROOT
ATOM      1  C   UNL     1      -5.849   2.600 129.396  0.00  0.00    +0.000 A 
ATOM      2  C   UNL     1      -6.107   2.158 130.753  0.00  0.00    +0.000 A 
ATOM      3  C   UNL     1      -6.348   3.055 131.730  0.00  0.00    +0.000 A 
ATOM      4  C   UNL     1      -6.146   4.284 131.214  0.00  0.00    +0.000 A 
ATOM      5  C   UNL     1      -5.914   4.809 129.968  0.00  0.00    +0.000 A 
ATOM      6  C   UNL     1      -5.740   3.947 128.977  0.00  0.00    +0.000 A 
ENDROOT
BRANCH   6   7
ATOM      7  C   UNL     1      -5.452   4.707 127.718  0.00  0.00    +0.000 C 
ATOM      8  O   UNL     1      -4.598   5.599 127.682  0.00  0.00    +0.000 OA
ATOM      9  N   UNL     1      -6.098   4.299 126.582  0.00  0.00    +0.000 N 
ATOM     10  C   UNL     1      -5.225   3.612 125.583  0.00  0.00    +0.000 C 
ATOM     11  C   UNL     1      -5.779   3.787 124.213  0.00  0.00    +0.000 C 
ATOM     12  C   UNL     1      -7.276   2.858 124.097  0.00  0.00    +0.000 C 
ATOM     13  C   UNL     1      -8.101   4.035 125.184  0.00  0.00    +0.000 C 
ATOM     14  C   UNL     1      -7.584   4.109 126.595  0.00  0.00    +0.000 C 
BRANCH  12  15
ATOM     15  N   UNL     1      -7.032   1.055 123.606  0.00  0.00    +0.000 N 
ATOM     16  C   UNL     1      -8.434   1.228 123.208  0.00  0.00    +0.000 C 
ATOM     17  O   UNL     1      -8.950   2.006 122.517  0.00  0.00    +0.000 OA
ATOM     18  O   UNL     1      -9.256   0.472 123.970  0.00  0.00    +0.000 OA
ATOM     19  C   UNL     1      -9.325  -0.574 123.087  0.00  0.00    +0.000 C 
ATOM     20  C   UNL     1      -8.396  -1.316 123.935  0.00  0.00    +0.000 A 
ATOM     21  C   UNL     1      -8.949  -2.501 124.592  0.00  0.00    +0.000 A 
ATOM     22  C   UNL     1      -8.247  -3.621 124.950  0.00  0.00    +0.000 A 
ATOM     23  C   UNL     1      -7.077  -3.653 124.254  0.00  0.00    +0.000 A 
ATOM     24  C   UNL     1      -6.497  -2.260 123.683  0.00  0.00    +0.000 A 
ATOM     25  C   UNL     1      -7.095  -0.784 123.928  0.00  0.00    +0.000 A 
ENDBRANCH  12  15
ENDBRANCH   6   7
BRANCH   1  27
ATOM     26  C   UNL     1      -7.149   1.011 128.427  0.00  0.00    +0.000 C 
ATOM     27  O   UNL     1      -5.861   1.521 128.577  0.00  0.00    +0.000 OA
ENDBRANCH   1  27
BRANCH   3  28
ATOM     28  O   UNL     1      -6.769   2.808 132.999  0.00  0.00    +0.000 OA
BRANCH  28  29
ATOM     29  C   UNL     1      -8.176   2.908 133.471  0.00  0.00    +0.000 C 
ATOM     30  C   UNL     1      -9.323   2.707 132.445  0.00  0.00    +0.000 C 
ATOM     31  C   UNL     1      -9.535   3.893 131.523  0.00  0.00    +0.000 C 
ATOM     32  N   UNL     1      -9.607   5.202 132.331  0.00  0.00    +0.000 NA
ATOM     33  C   UNL     1      -8.615   5.362 133.498  0.00  0.00    +0.000 C 
ATOM     34  C   UNL     1      -8.426   4.136 134.338  0.00  0.00    +0.000 C 
BRANCH  32  35
ATOM     35  C   UNL     1      -9.505   6.345 131.388  0.00  0.00    +0.000 C 
BRANCH  35  36
ATOM     36  C   UNL     1     -10.742   6.693 130.641  0.00  0.00    +0.000 A 
ATOM     37  C   UNL     1     -11.916   7.111 131.290  0.00  0.00    +0.000 A 
ATOM     38  C   UNL     1     -13.104   7.168 130.611  0.00  0.00    +0.000 A 
ATOM     39  C   UNL     1     -13.048   7.038 129.236  0.00  0.00    +0.000 A 
ATOM     40  N   UNL     1     -11.852   6.841 128.550  0.00  0.00    +0.000 N 
ATOM     41  O   UNL     1     -11.826   6.802 127.286  0.00  0.00    +0.000 OA
ATOM     42  C   UNL     1     -10.703   6.656 129.266  0.00  0.00    +0.000 A 
ENDBRANCH  35  36
ENDBRANCH  32  35
ENDBRANCH  28  29
ENDBRANCH   3  28
TORSDOF 7
ENDMDL
MODEL 4
REMARK VINA RESULT:     -11.0      1.730      3.569
REMARK  Name = CHEMBL69539
REMARK  8 active torsions:
REMARK  status: ('A' for Active; 'I' for Inactive)
REMARK    1  A    between atoms: C_1  and  O_2
REMARK    2  A    between atoms: O_2  and  C_3
REMARK    3  A    between atoms: C_5  and  O_6
REMARK    4  A    between atoms: O_6  and  C_7
REMARK    5  A    between atoms: N_10  and  C_11
REMARK    6  A    between atoms: C_11  and  C_12
REMARK    7  A    between atoms: C_23  and  C_24
REMARK    8  A    between atoms: C_29  and  N_30
REMARK                            x       y       z     vdW  Elec       q    Type
REMARK                         _______ _______ _______ _____ _____    ______ ____
ROOT
ATOM      1  C   UNL     1      -5.407   1.935 127.993  0.00  0.00    +0.000 A 
ATOM      2  C   UNL     1      -5.478   1.006 126.882  0.00  0.00    +0.000 A 
ATOM      3  C   UNL     1      -5.485  -0.323 127.101  0.00  0.00    +0.000 A 
ATOM      4  C   UNL     1      -5.270  -0.521 128.417  0.00  0.00    +0.000 A 
ATOM      5  C   UNL     1      -5.201   0.268 129.539  0.00  0.00    +0.000 A 
ATOM      6  C   UNL     1      -5.258   1.578 129.354  0.00  0.00    +0.000 A 
ENDROOT
BRANCH   6   7
ATOM      7  C   UNL     1      -5.117   2.261 130.680  0.00  0.00    +0.000 C 
ATOM      8  O   UNL     1      -4.038   2.287 131.282  0.00  0.00    +0.000 OA
ATOM      9  N   UNL     1      -6.205   2.948 131.147  0.00  0.00    +0.000 N 
ATOM     10  C   UNL     1      -6.064   4.435 131.110  0.00  0.00    +0.000 C 
ATOM     11  C   UNL     1      -6.915   5.056 132.161  0.00  0.00    +0.000 C 
ATOM     12  C   UNL     1      -8.607   4.834 131.710  0.00  0.00    +0.000 C 
ATOM     13  C   UNL     1      -8.480   3.072 132.067  0.00  0.00    +0.000 C 
ATOM     14  C   UNL     1      -7.547   2.283 131.189  0.00  0.00    +0.000 C 
BRANCH  12  15
ATOM     15  N   UNL     1      -9.288   6.177 130.576  0.00  0.00    +0.000 N 
ATOM     16  C   UNL     1     -10.321   6.191 131.620  0.00  0.00    +0.000 C 
ATOM     17  O   UNL     1     -10.252   6.314 132.773  0.00  0.00    +0.000 OA
ATOM     18  O   UNL     1     -11.510   5.768 131.137  0.00  0.00    +0.000 OA
ATOM     19  C   UNL     1     -12.003   7.022 130.888  0.00  0.00    +0.000 C 
ATOM     20  C   UNL     1     -11.727   6.820 129.468  0.00  0.00    +0.000 A 
ATOM     21  C   UNL     1     -12.904   6.742 128.601  0.00  0.00    +0.000 A 
ATOM     22  C   UNL     1     -12.953   7.104 127.282  0.00  0.00    +0.000 A 
ATOM     23  C   UNL     1     -11.896   7.916 127.005  0.00  0.00    +0.000 A 
ATOM     24  C   UNL     1     -10.598   7.824 127.959  0.00  0.00    +0.000 A 
ATOM     25  C   UNL     1     -10.354   6.789 129.170  0.00  0.00    +0.000 A 
ENDBRANCH  12  15
ENDBRANCH   6   7
BRANCH   1  27
ATOM     26  C   UNL     1      -4.468   3.777 127.057  0.00  0.00    +0.000 C 
ATOM     27  O   UNL     1      -5.638   3.187 127.530  0.00  0.00    +0.000 OA
ENDBRANCH   1  27
BRANCH   3  28
ATOM     28  O   UNL     1      -5.714  -1.314 126.198  0.00  0.00    +0.000 OA
BRANCH  28  29
ATOM     29  C   UNL     1      -6.949  -2.142 126.127  0.00  0.00    +0.000 C 
ATOM     30  C   UNL     1      -7.346  -2.775 124.767  0.00  0.00    +0.000 C 
ATOM     31  C   UNL     1      -7.939  -1.785 123.782  0.00  0.00    +0.000 C 
ATOM     32  N   UNL     1      -9.039  -0.943 124.455  0.00  0.00    +0.000 NA
ATOM     33  C   UNL     1      -8.773  -0.460 125.893  0.00  0.00    +0.000 C 
ATOM     34  C   UNL     1      -8.147  -1.478 126.795  0.00  0.00    +0.000 C 
BRANCH  32  35
ATOM     35  C   UNL     1      -9.371   0.199 123.564  0.00  0.00    +0.000 C 
BRANCH  35  36
ATOM     36  C   UNL     1      -8.570   1.436 123.758  0.00  0.00    +0.000 A 
ATOM     37  C   UNL     1      -7.294   1.599 123.192  0.00  0.00    +0.000 A 
ATOM     38  C   UNL     1      -6.478   2.621 123.598  0.00  0.00    +0.000 A 
ATOM     39  C   UNL     1      -7.047   3.603 124.387  0.00  0.00    +0.000 A 
ATOM     40  N   UNL     1      -8.383   3.570 124.779  0.00  0.00    +0.000 N 
ATOM     41  O   UNL     1      -8.892   4.522 125.437  0.00  0.00    +0.000 OA
ATOM     42  C   UNL     1      -9.134   2.471 124.468  0.00  0.00    +0.000 A 
ENDBRANCH  35  36
ENDBRANCH  32  35
ENDBRANCH  28  29
ENDBRANCH   3  28
TORSDOF 7
ENDMDL
MODEL 5
REMARK VINA RESULT:     -10.8      2.756      9.856
REMARK  Name = CHEMBL69539
REMARK  8 active torsions:
REMARK  status: ('A' for Active; 'I' for Inactive)
REMARK    1  A    between atoms: C_1  and  O_2
REMARK    2  A    between atoms: O_2  and  C_3
REMARK    3  A    between atoms: C_5  and  O_6
REMARK    4  A    between atoms: O_6  and  C_7
REMARK    5  A    between atoms: N_10  and  C_11
REMARK    6  A    between atoms: C_11  and  C_12
REMARK    7  A    between atoms: C_23  and  C_24
REMARK    8  A    between atoms: C_29  and  N_30
REMARK                            x       y       z     vdW  Elec       q    Type
REMARK                         _______ _______ _______ _____ _____    ______ ____
ROOT
ATOM      1  C   UNL     1      -6.699   0.308 132.841  0.00  0.00    +0.000 A 
ATOM      2  C   UNL     1      -7.035   1.690 133.126  0.00  0.00    +0.000 A 
ATOM      3  C   UNL     1      -8.246   2.181 132.797  0.00  0.00    +0.000 A 
ATOM      4  C   UNL     1      -8.892   1.233 132.090  0.00  0.00    +0.000 A 
ATOM      5  C   UNL     1      -8.679  -0.086 131.775  0.00  0.00    +0.000 A 
ATOM      6  C   UNL     1      -7.520  -0.611 132.147  0.00  0.00    +0.000 A 
ENDROOT
BRANCH   6   7
ATOM      7  C   UNL     1      -7.457  -2.031 131.672  0.00  0.00    +0.000 C 
ATOM      8  O   UNL     1      -7.800  -2.971 132.398  0.00  0.00    +0.000 OA
ATOM      9  N   UNL     1      -7.108  -2.237 130.365  0.00  0.00    +0.000 N 
ATOM     10  C   UNL     1      -8.229  -2.687 129.485  0.00  0.00    +0.000 C 
ATOM     11  C   UNL     1      -7.697  -3.477 128.342  0.00  0.00    +0.000 C 
ATOM     12  C   UNL     1      -6.807  -2.385 127.278  0.00  0.00    +0.000 C 
ATOM     13  C   UNL     1      -5.499  -2.238 128.508  0.00  0.00    +0.000 C 
ATOM     14  C   UNL     1      -5.882  -1.582 129.807  0.00  0.00    +0.000 C 
BRANCH  12  15
ATOM     15  N   UNL     1      -7.876  -1.520 125.988  0.00  0.00    +0.000 N 
ATOM     16  C   UNL     1      -6.781  -1.985 125.127  0.00  0.00    +0.000 C 
ATOM     17  O   UNL     1      -6.322  -3.039 124.962  0.00  0.00    +0.000 OA
ATOM     18  O   UNL     1      -6.076  -0.945 124.628  0.00  0.00    +0.000 OA
ATOM     19  C   UNL     1      -6.749  -0.893 123.435  0.00  0.00    +0.000 C 
ATOM     20  C   UNL     1      -7.484   0.268 123.930  0.00  0.00    +0.000 A 
ATOM     21  C   UNL     1      -7.206   1.531 123.244  0.00  0.00    +0.000 A 
ATOM     22  C   UNL     1      -8.077   2.577 123.105  0.00  0.00    +0.000 A 
ATOM     23  C   UNL     1      -9.345   2.131 123.325  0.00  0.00    +0.000 A 
ATOM     24  C   UNL     1      -9.535   0.793 124.206  0.00  0.00    +0.000 A 
ATOM     25  C   UNL     1      -8.385  -0.045 124.962  0.00  0.00    +0.000 A 
ENDBRANCH  12  15
ENDBRANCH   6   7
BRANCH   1  27
ATOM     26  C   UNL     1      -5.744  -0.386 134.780  0.00  0.00    +0.000 C 
ATOM     27  O   UNL     1      -5.532   0.007 133.460  0.00  0.00    +0.000 OA
ENDBRANCH   1  27
BRANCH   3  28
ATOM     28  O   UNL     1      -8.776   3.386 133.141  0.00  0.00    +0.000 OA
BRANCH  28  29
ATOM     29  C   UNL     1      -8.403   4.692 132.534  0.00  0.00    +0.000 C 
ATOM     30  C   UNL     1      -9.129   5.975 133.020  0.00  0.00    +0.000 C 
ATOM     31  C   UNL     1     -10.542   6.117 132.487  0.00  0.00    +0.000 C 
ATOM     32  N   UNL     1     -10.571   5.890 130.964  0.00  0.00    +0.000 NA
ATOM     33  C   UNL     1      -9.701   4.747 130.408  0.00  0.00    +0.000 C 
ATOM     34  C   UNL     1      -8.336   4.642 131.013  0.00  0.00    +0.000 C 
BRANCH  32  35
ATOM     35  C   UNL     1     -11.986   5.734 130.538  0.00  0.00    +0.000 C 
BRANCH  35  36
ATOM     36  C   UNL     1     -12.573   6.870 129.782  0.00  0.00    +0.000 A 
ATOM     37  C   UNL     1     -13.133   6.709 128.502  0.00  0.00    +0.000 A 
ATOM     38  C   UNL     1     -13.422   7.800 127.727  0.00  0.00    +0.000 A 
ATOM     39  C   UNL     1     -13.370   9.037 128.339  0.00  0.00    +0.000 A 
ATOM     40  N   UNL     1     -13.028   9.197 129.680  0.00  0.00    +0.000 N 
ATOM     41  O   UNL     1     -13.064  10.335 130.230  0.00  0.00    +0.000 OA
ATOM     42  C   UNL     1     -12.617   8.103 130.390  0.00  0.00    +0.000 A 
ENDBRANCH  35  36
ENDBRANCH  32  35
ENDBRANCH  28  29
ENDBRANCH   3  28
TORSDOF 7
ENDMDL
MODEL 6
REMARK VINA RESULT:     -10.5      2.094      3.804
REMARK  Name = CHEMBL69539
REMARK  8 active torsions:
REMARK  status: ('A' for Active; 'I' for Inactive)
REMARK    1  A    between atoms: C_1  and  O_2
REMARK    2  A    between atoms: O_2  and  C_3
REMARK    3  A    between atoms: C_5  and  O_6
REMARK    4  A    between atoms: O_6  and  C_7
REMARK    5  A    between atoms: N_10  and  C_11
REMARK    6  A    between atoms: C_11  and  C_12
REMARK    7  A    between atoms: C_23  and  C_24
REMARK    8  A    between atoms: C_29  and  N_30
REMARK                            x       y       z     vdW  Elec       q    Type
REMARK                         _______ _______ _______ _____ _____    ______ ____
ROOT
ATOM      1  C   UNL     1      -7.526   0.765 128.478  0.00  0.00    +0.000 A 
ATOM      2  C   UNL     1      -7.878  -0.201 127.455  0.00  0.00    +0.000 A 
ATOM      3  C   UNL     1      -7.882  -1.519 127.733  0.00  0.00    +0.000 A 
ATOM      4  C   UNL     1      -7.384  -1.677 128.975  0.00  0.00    +0.000 A 
ATOM      5  C   UNL     1      -7.035  -0.850 130.015  0.00  0.00    +0.000 A 
ATOM      6  C   UNL     1      -7.087   0.454 129.786  0.00  0.00    +0.000 A 
ENDROOT
BRANCH   6   7
ATOM      7  C   UNL     1      -6.626   1.179 131.014  0.00  0.00    +0.000 C 
ATOM      8  O   UNL     1      -5.519   0.961 131.516  0.00  0.00    +0.000 OA
ATOM      9  N   UNL     1      -7.438   2.171 131.493  0.00  0.00    +0.000 N 
ATOM     10  C   UNL     1      -6.919   3.556 131.284  0.00  0.00    +0.000 C 
ATOM     11  C   UNL     1      -7.456   4.469 132.329  0.00  0.00    +0.000 C 
ATOM     12  C   UNL     1      -9.187   4.676 132.049  0.00  0.00    +0.000 C 
ATOM     13  C   UNL     1      -9.485   2.982 132.584  0.00  0.00    +0.000 C 
ATOM     14  C   UNL     1      -8.894   1.901 131.721  0.00  0.00    +0.000 C 
BRANCH  12  15
ATOM     15  N   UNL     1      -9.614   6.056 130.838  0.00  0.00    +0.000 N 
ATOM     16  C   UNL     1     -10.658   6.283 131.845  0.00  0.00    +0.000 C 
ATOM     17  O   UNL     1     -10.601   6.447 132.994  0.00  0.00    +0.000 OA
ATOM     18  O   UNL     1     -11.887   6.032 131.341  0.00  0.00    +0.000 OA
ATOM     19  C   UNL     1     -12.166   7.335 131.023  0.00  0.00    +0.000 C 
ATOM     20  C   UNL     1     -11.889   7.026 129.623  0.00  0.00    +0.000 A 
ATOM     21  C   UNL     1     -13.039   7.094 128.722  0.00  0.00    +0.000 A 
ATOM     22  C   UNL     1     -12.996   7.397 127.387  0.00  0.00    +0.000 A 
ATOM     23  C   UNL     1     -11.816   8.018 127.112  0.00  0.00    +0.000 A 
ATOM     24  C   UNL     1     -10.575   7.766 128.112  0.00  0.00    +0.000 A 
ATOM     25  C   UNL     1     -10.531   6.764 129.373  0.00  0.00    +0.000 A 
ENDBRANCH  12  15
ENDBRANCH   6   7
BRANCH   1  27
ATOM     26  C   UNL     1      -6.651   2.704 127.685  0.00  0.00    +0.000 C 
ATOM     27  O   UNL     1      -7.811   2.008 128.020  0.00  0.00    +0.000 OA
ENDBRANCH   1  27
BRANCH   3  28
ATOM     28  O   UNL     1      -8.344  -2.533 126.952  0.00  0.00    +0.000 OA
BRANCH  28  29
ATOM     29  C   UNL     1      -7.500  -3.412 126.099  0.00  0.00    +0.000 C 
ATOM     30  C   UNL     1      -6.097  -2.908 125.666  0.00  0.00    +0.000 C 
ATOM     31  C   UNL     1      -6.134  -1.860 124.571  0.00  0.00    +0.000 C 
ATOM     32  N   UNL     1      -7.046  -2.315 123.416  0.00  0.00    +0.000 NA
ATOM     33  C   UNL     1      -8.368  -3.009 123.797  0.00  0.00    +0.000 C 
ATOM     34  C   UNL     1      -8.261  -3.998 124.916  0.00  0.00    +0.000 C 
BRANCH  32  35
ATOM     35  C   UNL     1      -7.296  -1.152 122.526  0.00  0.00    +0.000 C 
BRANCH  35  36
ATOM     36  C   UNL     1      -7.908   0.043 123.163  0.00  0.00    +0.000 A 
ATOM     37  C   UNL     1      -7.142   1.149 123.570  0.00  0.00    +0.000 A 
ATOM     38  C   UNL     1      -7.684   2.109 124.383  0.00  0.00    +0.000 A 
ATOM     39  C   UNL     1      -9.052   2.069 124.576  0.00  0.00    +0.000 A 
ATOM     40  N   UNL     1      -9.864   1.099 123.994  0.00  0.00    +0.000 N 
ATOM     41  O   UNL     1     -11.121   1.135 124.127  0.00  0.00    +0.000 OA
ATOM     42  C   UNL     1      -9.277   0.080 123.297  0.00  0.00    +0.000 A 
ENDBRANCH  35  36
ENDBRANCH  32  35
ENDBRANCH  28  29
ENDBRANCH   3  28
TORSDOF 7
ENDMDL
MODEL 7
REMARK VINA RESULT:     -10.5      1.378      2.018
REMARK  Name = CHEMBL69539
REMARK  8 active torsions:
REMARK  status: ('A' for Active; 'I' for Inactive)
REMARK    1  A    between atoms: C_1  and  O_2
REMARK    2  A    between atoms: O_2  and  C_3
REMARK    3  A    between atoms: C_5  and  O_6
REMARK    4  A    between atoms: O_6  and  C_7
REMARK    5  A    between atoms: N_10  and  C_11
REMARK    6  A    between atoms: C_11  and  C_12
REMARK    7  A    between atoms: C_23  and  C_24
REMARK    8  A    between atoms: C_29  and  N_30
REMARK                            x       y       z     vdW  Elec       q    Type
REMARK                         _______ _______ _______ _____ _____    ______ ____
ROOT
ATOM      1  C   UNL     1      -5.960   3.542 126.709  0.00  0.00    +0.000 A 
ATOM      2  C   UNL     1      -6.234   2.690 125.568  0.00  0.00    +0.000 A 
ATOM      3  C   UNL     1      -5.795   1.416 125.544  0.00  0.00    +0.000 A 
ATOM      4  C   UNL     1      -5.012   1.235 126.626  0.00  0.00    +0.000 A 
ATOM      5  C   UNL     1      -4.697   1.952 127.753  0.00  0.00    +0.000 A 
ATOM      6  C   UNL     1      -5.173   3.186 127.829  0.00  0.00    +0.000 A 
ENDROOT
BRANCH   6   7
ATOM      7  C   UNL     1      -4.683   3.817 129.097  0.00  0.00    +0.000 C 
ATOM      8  O   UNL     1      -3.478   3.999 129.305  0.00  0.00    +0.000 OA
ATOM      9  N   UNL     1      -5.630   4.281 129.970  0.00  0.00    +0.000 N 
ATOM     10  C   UNL     1      -5.730   5.769 130.046  0.00  0.00    +0.000 C 
ATOM     11  C   UNL     1      -6.245   6.180 131.380  0.00  0.00    +0.000 C 
ATOM     12  C   UNL     1      -7.938   5.690 131.497  0.00  0.00    +0.000 C 
ATOM     13  C   UNL     1      -7.438   3.962 131.602  0.00  0.00    +0.000 C 
ATOM     14  C   UNL     1      -6.762   3.392 130.385  0.00  0.00    +0.000 C 
BRANCH  12  15
ATOM     15  N   UNL     1      -9.157   6.949 130.804  0.00  0.00    +0.000 N 
ATOM     16  C   UNL     1      -9.977   6.383 131.882  0.00  0.00    +0.000 C 
ATOM     17  O   UNL     1      -9.777   6.257 133.020  0.00  0.00    +0.000 OA
ATOM     18  O   UNL     1     -11.038   5.709 131.387  0.00  0.00    +0.000 OA
ATOM     19  C   UNL     1     -11.921   6.749 131.509  0.00  0.00    +0.000 C 
ATOM     20  C   UNL     1     -11.812   6.977 130.071  0.00  0.00    +0.000 A 
ATOM     21  C   UNL     1     -13.024   6.709 129.295  0.00  0.00    +0.000 A 
ATOM     22  C   UNL     1     -13.378   7.322 128.123  0.00  0.00    +0.000 A 
ATOM     23  C   UNL     1     -12.673   8.481 127.998  0.00  0.00    +0.000 A 
ATOM     24  C   UNL     1     -11.282   8.612 128.804  0.00  0.00    +0.000 A 
ATOM     25  C   UNL     1     -10.556   7.473 129.683  0.00  0.00    +0.000 A 
ENDBRANCH  12  15
ENDBRANCH   6   7
BRANCH   1  27
ATOM     26  C   UNL     1      -8.008   4.482 126.985  0.00  0.00    +0.000 C 
ATOM     27  O   UNL     1      -6.686   4.679 126.588  0.00  0.00    +0.000 OA
ENDBRANCH   1  27
BRANCH   3  28
ATOM     28  O   UNL     1      -6.105   0.446 124.642  0.00  0.00    +0.000 OA
BRANCH  28  29
ATOM     29  C   UNL     1      -7.115  -0.626 124.848  0.00  0.00    +0.000 C 
ATOM     30  C   UNL     1      -8.396  -0.299 125.662  0.00  0.00    +0.000 C 
ATOM     31  C   UNL     1      -8.164  -0.212 127.159  0.00  0.00    +0.000 C 
ATOM     32  N   UNL     1      -7.371  -1.435 127.657  0.00  0.00    +0.000 NA
ATOM     33  C   UNL     1      -6.209  -1.925 126.773  0.00  0.00    +0.000 C 
ATOM     34  C   UNL     1      -6.497  -1.943 125.304  0.00  0.00    +0.000 C 
BRANCH  32  35
ATOM     35  C   UNL     1      -6.906  -1.164 129.042  0.00  0.00    +0.000 C 
BRANCH  35  36
ATOM     36  C   UNL     1      -5.841  -2.059 129.564  0.00  0.00    +0.000 A 
ATOM     37  C   UNL     1      -4.505  -1.641 129.685  0.00  0.00    +0.000 A 
ATOM     38  C   UNL     1      -3.509  -2.553 129.913  0.00  0.00    +0.000 A 
ATOM     39  C   UNL     1      -3.897  -3.834 130.256  0.00  0.00    +0.000 A 
ATOM     40  N   UNL     1      -5.233  -4.211 130.357  0.00  0.00    +0.000 N 
ATOM     41  O   UNL     1      -5.556  -5.370 130.747  0.00  0.00    +0.000 OA
ATOM     42  C   UNL     1      -6.200  -3.315 129.994  0.00  0.00    +0.000 A 
ENDBRANCH  35  36
ENDBRANCH  32  35
ENDBRANCH  28  29
ENDBRANCH   3  28
TORSDOF 7
ENDMDL
MODEL 8
REMARK VINA RESULT:     -10.4      3.651      5.418
REMARK  Name = CHEMBL69539
REMARK  8 active torsions:
REMARK  status: ('A' for Active; 'I' for Inactive)
REMARK    1  A    between atoms: C_1  and  O_2
REMARK    2  A    between atoms: O_2  and  C_3
REMARK    3  A    between atoms: C_5  and  O_6
REMARK    4  A    between atoms: O_6  and  C_7
REMARK    5  A    between atoms: N_10  and  C_11
REMARK    6  A    between atoms: C_11  and  C_12
REMARK    7  A    between atoms: C_23  and  C_24
REMARK    8  A    between atoms: C_29  and  N_30
REMARK                            x       y       z     vdW  Elec       q    Type
REMARK                         _______ _______ _______ _____ _____    ______ ____
ROOT
ATOM      1  C   UNL     1      -8.512   1.546 125.188  0.00  0.00    +0.000 A 
ATOM      2  C   UNL     1      -9.315   0.346 125.050  0.00  0.00    +0.000 A 
ATOM      3  C   UNL     1      -8.967  -0.611 124.167  0.00  0.00    +0.000 A 
ATOM      4  C   UNL     1      -7.930  -0.143 123.445  0.00  0.00    +0.000 A 
ATOM      5  C   UNL     1      -7.101   0.951 123.495  0.00  0.00    +0.000 A 
ATOM      6  C   UNL     1      -7.385   1.876 124.400  0.00  0.00    +0.000 A 
ENDROOT
BRANCH   6   7
ATOM      7  C   UNL     1      -6.405   3.002 124.265  0.00  0.00    +0.000 C 
ATOM      8  O   UNL     1      -6.386   3.724 123.262  0.00  0.00    +0.000 OA
ATOM      9  N   UNL     1      -5.606   3.266 125.344  0.00  0.00    +0.000 N 
ATOM     10  C   UNL     1      -5.944   4.524 126.076  0.00  0.00    +0.000 C 
ATOM     11  C   UNL     1      -4.734   5.062 126.755  0.00  0.00    +0.000 C 
ATOM     12  C   UNL     1      -4.306   3.969 128.075  0.00  0.00    +0.000 C 
ATOM     13  C   UNL     1      -3.769   2.728 126.884  0.00  0.00    +0.000 C 
ATOM     14  C   UNL     1      -4.839   2.156 125.995  0.00  0.00    +0.000 C 
BRANCH  12  15
ATOM     15  N   UNL     1      -5.195   4.331 129.697  0.00  0.00    +0.000 N 
ATOM     16  C   UNL     1      -3.845   4.071 130.211  0.00  0.00    +0.000 C 
ATOM     17  O   UNL     1      -2.813   4.532 129.940  0.00  0.00    +0.000 OA
ATOM     18  O   UNL     1      -3.815   2.949 130.964  0.00  0.00    +0.000 OA
ATOM     19  C   UNL     1      -3.951   3.595 132.165  0.00  0.00    +0.000 C 
ATOM     20  C   UNL     1      -5.352   3.185 132.197  0.00  0.00    +0.000 A 
ATOM     21  C   UNL     1      -5.707   2.233 133.250  0.00  0.00    +0.000 A 
ATOM     22  C   UNL     1      -6.935   2.116 133.846  0.00  0.00    +0.000 A 
ATOM     23  C   UNL     1      -7.645   3.257 133.625  0.00  0.00    +0.000 A 
ATOM     24  C   UNL     1      -7.242   4.167 132.355  0.00  0.00    +0.000 A 
ATOM     25  C   UNL     1      -6.140   3.830 131.228  0.00  0.00    +0.000 A 
ENDBRANCH  12  15
ENDBRANCH   6   7
BRANCH   1  27
ATOM     26  C   UNL     1      -8.448   1.669 127.454  0.00  0.00    +0.000 C 
ATOM     27  O   UNL     1      -8.938   2.231 126.276  0.00  0.00    +0.000 OA
ENDBRANCH   1  27
BRANCH   3  28
ATOM     28  O   UNL     1      -9.504  -1.854 124.034  0.00  0.00    +0.000 OA
BRANCH  28  29
ATOM     29  C   UNL     1      -9.110  -3.049 124.827  0.00  0.00    +0.000 C 
ATOM     30  C   UNL     1      -9.128  -2.955 126.376  0.00  0.00    +0.000 C 
ATOM     31  C   UNL     1      -7.966  -2.171 126.956  0.00  0.00    +0.000 C 
ATOM     32  N   UNL     1      -6.634  -2.649 126.349  0.00  0.00    +0.000 NA
ATOM     33  C   UNL     1      -6.619  -2.952 124.839  0.00  0.00    +0.000 C 
ATOM     34  C   UNL     1      -7.819  -3.690 124.332  0.00  0.00    +0.000 C 
BRANCH  32  35
ATOM     35  C   UNL     1      -5.575  -1.668 126.702  0.00  0.00    +0.000 C 
BRANCH  35  36
ATOM     36  C   UNL     1      -5.179  -1.617 128.134  0.00  0.00    +0.000 A 
ATOM     37  C   UNL     1      -5.291  -0.443 128.900  0.00  0.00    +0.000 A 
ATOM     38  C   UNL     1      -4.680  -0.350 130.122  0.00  0.00    +0.000 A 
ATOM     39  C   UNL     1      -4.172  -1.517 130.661  0.00  0.00    +0.000 A 
ATOM     40  N   UNL     1      -4.251  -2.743 130.005  0.00  0.00    +0.000 N 
ATOM     41  O   UNL     1      -3.846  -3.805 130.558  0.00  0.00    +0.000 OA
ATOM     42  C   UNL     1      -4.747  -2.778 128.732  0.00  0.00    +0.000 A 
ENDBRANCH  35  36
ENDBRANCH  32  35
ENDBRANCH  28  29
ENDBRANCH   3  28
TORSDOF 7
ENDMDL
MODEL 9
REMARK VINA RESULT:     -10.1      2.585      8.508
REMARK  Name = CHEMBL69539
REMARK  8 active torsions:
REMARK  status: ('A' for Active; 'I' for Inactive)
REMARK    1  A    between atoms: C_1  and  O_2
REMARK    2  A    between atoms: O_2  and  C_3
REMARK    3  A    between atoms: C_5  and  O_6
REMARK    4  A    between atoms: O_6  and  C_7
REMARK    5  A    between atoms: N_10  and  C_11
REMARK    6  A    between atoms: C_11  and  C_12
REMARK    7  A    between atoms: C_23  and  C_24
REMARK    8  A    between atoms: C_29  and  N_30
REMARK                            x       y       z     vdW  Elec       q    Type
REMARK                         _______ _______ _______ _____ _____    ______ ____
ROOT
ATOM      1  C   UNL     1      -6.772   0.486 133.027  0.00  0.00    +0.000 A 
ATOM      2  C   UNL     1      -7.136   1.867 133.279  0.00  0.00    +0.000 A 
ATOM      3  C   UNL     1      -8.337   2.340 132.892  0.00  0.00    +0.000 A 
ATOM      4  C   UNL     1      -8.941   1.376 132.169  0.00  0.00    +0.000 A 
ATOM      5  C   UNL     1      -8.699   0.056 131.881  0.00  0.00    +0.000 A 
ATOM      6  C   UNL     1      -7.552  -0.451 132.309  0.00  0.00    +0.000 A 
ENDROOT
BRANCH   6   7
ATOM      7  C   UNL     1      -7.452  -1.875 131.856  0.00  0.00    +0.000 C 
ATOM      8  O   UNL     1      -7.785  -2.812 132.590  0.00  0.00    +0.000 OA
ATOM      9  N   UNL     1      -7.080  -2.092 130.557  0.00  0.00    +0.000 N 
ATOM     10  C   UNL     1      -8.178  -2.578 129.668  0.00  0.00    +0.000 C 
ATOM     11  C   UNL     1      -7.613  -3.372 128.543  0.00  0.00    +0.000 C 
ATOM     12  C   UNL     1      -6.731  -2.276 127.477  0.00  0.00    +0.000 C 
ATOM     13  C   UNL     1      -5.444  -2.085 128.723  0.00  0.00    +0.000 C 
ATOM     14  C   UNL     1      -5.860  -1.419 130.007  0.00  0.00    +0.000 C 
BRANCH  12  15
ATOM     15  N   UNL     1      -7.799  -1.453 126.160  0.00  0.00    +0.000 N 
ATOM     16  C   UNL     1      -6.671  -1.885 125.325  0.00  0.00    +0.000 C 
ATOM     17  O   UNL     1      -6.175  -2.925 125.175  0.00  0.00    +0.000 OA
ATOM     18  O   UNL     1      -5.990  -0.825 124.836  0.00  0.00    +0.000 OA
ATOM     19  C   UNL     1      -6.638  -0.799 123.629  0.00  0.00    +0.000 C 
ATOM     20  C   UNL     1      -7.420   0.339 124.102  0.00  0.00    +0.000 A 
ATOM     21  C   UNL     1      -7.169   1.607 123.416  0.00  0.00    +0.000 A 
ATOM     22  C   UNL     1      -8.071   2.624 123.253  0.00  0.00    +0.000 A 
ATOM     23  C   UNL     1      -9.328   2.137 123.447  0.00  0.00    +0.000 A 
ATOM     24  C   UNL     1      -9.494   0.797 124.331  0.00  0.00    +0.000 A 
ATOM     25  C   UNL     1      -8.333   0.001 125.116  0.00  0.00    +0.000 A 
ENDBRANCH  12  15
ENDBRANCH   6   7
BRANCH   1  27
ATOM     26  C   UNL     1      -4.806   1.327 133.788  0.00  0.00    +0.000 C 
ATOM     27  O   UNL     1      -5.630   0.207 133.699  0.00  0.00    +0.000 OA
ENDBRANCH   1  27
BRANCH   3  28
ATOM     28  O   UNL     1      -8.895   3.542 133.197  0.00  0.00    +0.000 OA
BRANCH  28  29
ATOM     29  C   UNL     1      -8.986   4.705 132.274  0.00  0.00    +0.000 C 
ATOM     30  C   UNL     1     -10.127   4.735 131.221  0.00  0.00    +0.000 C 
ATOM     31  C   UNL     1      -9.900   3.803 130.046  0.00  0.00    +0.000 C 
ATOM     32  N   UNL     1      -8.482   3.988 129.474  0.00  0.00    +0.000 NA
ATOM     33  C   UNL     1      -7.335   4.167 130.486  0.00  0.00    +0.000 C 
ATOM     34  C   UNL     1      -7.648   5.067 131.642  0.00  0.00    +0.000 C 
BRANCH  32  35
ATOM     35  C   UNL     1      -8.198   2.864 128.545  0.00  0.00    +0.000 C 
BRANCH  35  36
ATOM     36  C   UNL     1      -7.213   3.137 127.466  0.00  0.00    +0.000 A 
ATOM     37  C   UNL     1      -6.195   2.227 127.133  0.00  0.00    +0.000 A 
ATOM     38  C   UNL     1      -5.154   2.610 126.330  0.00  0.00    +0.000 A 
ATOM     39  C   UNL     1      -5.276   3.823 125.680  0.00  0.00    +0.000 A 
ATOM     40  N   UNL     1      -6.391   4.645 125.828  0.00  0.00    +0.000 N 
ATOM     41  O   UNL     1      -6.507   5.712 125.160  0.00  0.00    +0.000 OA
ATOM     42  C   UNL     1      -7.350   4.296 126.737  0.00  0.00    +0.000 A 
ENDBRANCH  35  36
ENDBRANCH  32  35
ENDBRANCH  28  29
ENDBRANCH   3  28
TORSDOF 7
ENDMDL
