MODEL 1
REMARK VINA RESULT:     -11.4      0.000      0.000
REMARK  Name = CHEMBL68199
REMARK  10 active torsions:
REMARK  status: ('A' for Active; 'I' for Inactive)
REMARK    1  A    between atoms: C_1  and  O_2
REMARK    2  A    between atoms: O_2  and  C_3
REMARK    3  A    between atoms: C_5  and  O_6
REMARK    4  A    between atoms: O_6  and  C_7
REMARK    5  A    between atoms: N_10  and  C_11
REMARK    6  A    between atoms: C_11  and  C_12
REMARK    7  A    between atoms: C_16  and  C_17
REMARK    8  A    between atoms: C_19  and  C_20
REMARK    9  A    between atoms: C_25  and  C_26
REMARK   10  A    between atoms: C_31  and  N_32
REMARK                            x       y       z     vdW  Elec       q    Type
REMARK                         _______ _______ _______ _____ _____    ______ ____
ROOT
ATOM      1  C   UNL     1      -6.187   3.430 126.021  0.00  0.00    +0.000 A 
ATOM      2  C   UNL     1      -6.613   2.679 124.890  0.00  0.00    +0.000 A 
ATOM      3  C   UNL     1      -6.421   1.336 124.849  0.00  0.00    +0.000 A 
ATOM      4  C   UNL     1      -5.659   0.906 125.889  0.00  0.00    +0.000 A 
ATOM      5  C   UNL     1      -5.215   1.549 127.020  0.00  0.00    +0.000 A 
ATOM      6  C   UNL     1      -5.512   2.867 127.145  0.00  0.00    +0.000 A 
ENDROOT
BRANCH   6   7
ATOM      7  C   UNL     1      -4.949   3.435 128.426  0.00  0.00    +0.000 C 
ATOM      8  O   UNL     1      -3.724   3.520 128.568  0.00  0.00    +0.000 OA
ATOM      9  N   UNL     1      -5.811   3.956 129.385  0.00  0.00    +0.000 N 
ATOM     10  C   UNL     1      -5.758   5.419 129.579  0.00  0.00    +0.000 C 
ATOM     11  C   UNL     1      -6.139   5.785 130.973  0.00  0.00    +0.000 C 
ATOM     12  C   UNL     1      -7.856   5.412 131.229  0.00  0.00    +0.000 C 
ATOM     13  C   UNL     1      -7.531   3.716 131.130  0.00  0.00    +0.000 C 
ATOM     14  C   UNL     1      -7.035   3.248 129.784  0.00  0.00    +0.000 C 
BRANCH  12  15
ATOM     15  N   UNL     1      -9.008   6.752 130.714  0.00  0.00    +0.000 N 
ATOM     16  C   UNL     1      -9.822   6.257 131.784  0.00  0.00    +0.000 C 
ATOM     17  O   UNL     1      -9.529   6.072 133.011  0.00  0.00    +0.000 OA
ATOM     18  O   UNL     1     -10.935   5.670 131.422  0.00  0.00    +0.000 OA
ATOM     19  C   UNL     1     -11.737   6.767 131.594  0.00  0.00    +0.000 C 
ATOM     20  C   UNL     1     -11.721   7.059 130.163  0.00  0.00    +0.000 A 
ATOM     21  C   UNL     1     -13.111   7.177 129.651  0.00  0.00    +0.000 A 
ATOM     22  C   UNL     1     -13.464   7.868 128.539  0.00  0.00    +0.000 A 
ATOM     23  C   UNL     1     -12.431   8.708 128.194  0.00  0.00    +0.000 A 
ATOM     24  C   UNL     1     -10.921   8.510 128.771  0.00  0.00    +0.000 A 
ATOM     25  C   UNL     1     -10.407   7.355 129.662  0.00  0.00    +0.000 A 
ENDBRANCH  12  15
ENDBRANCH   6   7
BRANCH   1  27
ATOM     26  C   UNL     1      -7.973   4.844 125.850  0.00  0.00    +0.000 C 
ATOM     27  O   UNL     1      -6.575   4.728 125.832  0.00  0.00    +0.000 OA
ENDBRANCH   1  27
BRANCH   3  28
ATOM     28  O   UNL     1      -6.951   0.550 123.883  0.00  0.00    +0.000 OA
BRANCH  28  29
ATOM     29  C   UNL     1      -8.363   0.192 123.781  0.00  0.00    +0.000 C 
ATOM     30  C   UNL     1      -9.241   0.163 125.052  0.00  0.00    +0.000 C 
ATOM     31  C   UNL     1      -9.137  -1.113 125.884  0.00  0.00    +0.000 C 
ATOM     32  N   UNL     1      -9.174  -2.357 125.039  0.00  0.00    +0.000 NA
ATOM     33  C   UNL     1      -8.466  -2.311 123.717  0.00  0.00    +0.000 C 
ATOM     34  C   UNL     1      -8.601  -1.040 122.928  0.00  0.00    +0.000 C 
BRANCH  32  35
ATOM     35  C   UNL     1      -8.738  -3.526 125.850  0.00  0.00    +0.000 C 
BRANCH  35  36
ATOM     36  C   UNL     1      -8.110  -3.147 127.169  0.00  0.00    +0.000 A 
ATOM     37  C   UNL     1      -6.931  -2.384 127.197  0.00  0.00    +0.000 A 
ATOM     38  N   UNL     1      -6.076  -2.420 128.271  0.00  0.00    +0.000 N 
ATOM     39  O   UNL     1      -4.875  -2.028 128.123  0.00  0.00    +0.000 OA
ATOM     40  C   UNL     1      -6.567  -2.908 129.465  0.00  0.00    +0.000 A 
ATOM     41  C   UNL     1      -5.669  -2.925 130.652  0.00  0.00    +0.000 C 
ATOM     42  C   UNL     1      -7.892  -3.374 129.537  0.00  0.00    +0.000 A 
ATOM     43  C   UNL     1      -8.631  -3.593 128.377  0.00  0.00    +0.000 A 
ATOM     44  C   UNL     1      -9.942  -4.322 128.418  0.00  0.00    +0.000 C 
ENDBRANCH  35  36
ENDBRANCH  32  35
ENDBRANCH  28  29
ENDBRANCH   3  28
TORSDOF 7
ENDMDL
MODEL 2
REMARK VINA RESULT:     -11.2      2.593      9.274
REMARK  Name = CHEMBL68199
REMARK  10 active torsions:
REMARK  status: ('A' for Active; 'I' for Inactive)
REMARK    1  A    between atoms: C_1  and  O_2
REMARK    2  A    between atoms: O_2  and  C_3
REMARK    3  A    between atoms: C_5  and  O_6
REMARK    4  A    between atoms: O_6  and  C_7
REMARK    5  A    between atoms: N_10  and  C_11
REMARK    6  A    between atoms: C_11  and  C_12
REMARK    7  A    between atoms: C_16  and  C_17
REMARK    8  A    between atoms: C_19  and  C_20
REMARK    9  A    between atoms: C_25  and  C_26
REMARK   10  A    between atoms: C_31  and  N_32
REMARK                            x       y       z     vdW  Elec       q    Type
REMARK                         _______ _______ _______ _____ _____    ______ ____
ROOT
ATOM      1  C   UNL     1      -5.734   2.567 129.425  0.00  0.00    +0.000 A 
ATOM      2  C   UNL     1      -6.026   2.142 130.752  0.00  0.00    +0.000 A 
ATOM      3  C   UNL     1      -6.302   3.054 131.717  0.00  0.00    +0.000 A 
ATOM      4  C   UNL     1      -6.087   4.324 131.284  0.00  0.00    +0.000 A 
ATOM      5  C   UNL     1      -5.815   4.826 130.033  0.00  0.00    +0.000 A 
ATOM      6  C   UNL     1      -5.668   3.934 129.021  0.00  0.00    +0.000 A 
ENDROOT
BRANCH   6   7
ATOM      7  C   UNL     1      -5.362   4.631 127.718  0.00  0.00    +0.000 C 
ATOM      8  O   UNL     1      -4.484   5.502 127.684  0.00  0.00    +0.000 OA
ATOM      9  N   UNL     1      -5.990   4.212 126.550  0.00  0.00    +0.000 N 
ATOM     10  C   UNL     1      -5.127   3.553 125.548  0.00  0.00    +0.000 C 
ATOM     11  C   UNL     1      -5.657   3.760 124.171  0.00  0.00    +0.000 C 
ATOM     12  C   UNL     1      -7.198   2.894 123.999  0.00  0.00    +0.000 C 
ATOM     13  C   UNL     1      -7.966   3.986 125.098  0.00  0.00    +0.000 C 
ATOM     14  C   UNL     1      -7.433   3.938 126.509  0.00  0.00    +0.000 C 
BRANCH  12  15
ATOM     15  N   UNL     1      -7.025   1.127 123.514  0.00  0.00    +0.000 N 
ATOM     16  C   UNL     1      -8.423   1.228 123.218  0.00  0.00    +0.000 C 
ATOM     17  O   UNL     1      -9.040   2.061 122.475  0.00  0.00    +0.000 OA
ATOM     18  O   UNL     1      -9.218   0.549 124.006  0.00  0.00    +0.000 OA
ATOM     19  C   UNL     1      -9.333  -0.542 123.186  0.00  0.00    +0.000 C 
ATOM     20  C   UNL     1      -8.343  -1.286 123.960  0.00  0.00    +0.000 A 
ATOM     21  C   UNL     1      -8.901  -2.599 124.376  0.00  0.00    +0.000 A 
ATOM     22  C   UNL     1      -8.154  -3.689 124.683  0.00  0.00    +0.000 A 
ATOM     23  C   UNL     1      -6.877  -3.497 124.209  0.00  0.00    +0.000 A 
ATOM     24  C   UNL     1      -6.316  -2.027 123.794  0.00  0.00    +0.000 A 
ATOM     25  C   UNL     1      -7.044  -0.671 123.954  0.00  0.00    +0.000 A 
ENDBRANCH  12  15
ENDBRANCH   6   7
BRANCH   1  27
ATOM     26  C   UNL     1      -6.542   0.480 128.967  0.00  0.00    +0.000 C 
ATOM     27  O   UNL     1      -5.578   1.449 128.652  0.00  0.00    +0.000 OA
ENDBRANCH   1  27
BRANCH   3  28
ATOM     28  O   UNL     1      -6.749   2.707 132.946  0.00  0.00    +0.000 OA
BRANCH  28  29
ATOM     29  C   UNL     1      -8.121   2.879 133.415  0.00  0.00    +0.000 C 
ATOM     30  C   UNL     1      -9.290   2.797 132.408  0.00  0.00    +0.000 C 
ATOM     31  C   UNL     1      -9.562   4.078 131.622  0.00  0.00    +0.000 C 
ATOM     32  N   UNL     1      -9.537   5.305 132.493  0.00  0.00    +0.000 NA
ATOM     33  C   UNL     1      -8.514   5.348 133.591  0.00  0.00    +0.000 C 
ATOM     34  C   UNL     1      -8.285   4.068 134.343  0.00  0.00    +0.000 C 
BRANCH  32  35
ATOM     35  C   UNL     1      -9.471   6.523 131.640  0.00  0.00    +0.000 C 
BRANCH  35  36
ATOM     36  C   UNL     1     -10.375   6.466 130.432  0.00  0.00    +0.000 A 
ATOM     37  C   UNL     1      -9.847   6.147 129.170  0.00  0.00    +0.000 A 
ATOM     38  N   UNL     1     -10.470   6.540 128.010  0.00  0.00    +0.000 N 
ATOM     39  O   UNL     1      -9.806   6.566 126.927  0.00  0.00    +0.000 OA
ATOM     40  C   UNL     1     -11.797   6.911 128.090  0.00  0.00    +0.000 A 
ATOM     41  C   UNL     1     -12.503   7.308 126.841  0.00  0.00    +0.000 C 
ATOM     42  C   UNL     1     -12.450   6.909 129.336  0.00  0.00    +0.000 A 
ATOM     43  C   UNL     1     -11.723   6.788 130.518  0.00  0.00    +0.000 A 
ATOM     44  C   UNL     1     -12.364   7.035 131.852  0.00  0.00    +0.000 C 
ENDBRANCH  35  36
ENDBRANCH  32  35
ENDBRANCH  28  29
ENDBRANCH   3  28
TORSDOF 7
ENDMDL
MODEL 3
REMARK VINA RESULT:     -11.0      1.651      2.502
REMARK  Name = CHEMBL68199
REMARK  10 active torsions:
REMARK  status: ('A' for Active; 'I' for Inactive)
REMARK    1  A    between atoms: C_1  and  O_2
REMARK    2  A    between atoms: O_2  and  C_3
REMARK    3  A    between atoms: C_5  and  O_6
REMARK    4  A    between atoms: O_6  and  C_7
REMARK    5  A    between atoms: N_10  and  C_11
REMARK    6  A    between atoms: C_11  and  C_12
REMARK    7  A    between atoms: C_16  and  C_17
REMARK    8  A    between atoms: C_19  and  C_20
REMARK    9  A    between atoms: C_25  and  C_26
REMARK   10  A    between atoms: C_31  and  N_32
REMARK                            x       y       z     vdW  Elec       q    Type
REMARK                         _______ _______ _______ _____ _____    ______ ____
ROOT
ATOM      1  C   UNL     1      -6.076   3.460 126.487  0.00  0.00    +0.000 A 
ATOM      2  C   UNL     1      -6.453   2.508 125.498  0.00  0.00    +0.000 A 
ATOM      3  C   UNL     1      -5.939   1.253 125.527  0.00  0.00    +0.000 A 
ATOM      4  C   UNL     1      -4.958   1.133 126.459  0.00  0.00    +0.000 A 
ATOM      5  C   UNL     1      -4.537   1.984 127.453  0.00  0.00    +0.000 A 
ATOM      6  C   UNL     1      -5.135   3.201 127.527  0.00  0.00    +0.000 A 
ENDROOT
BRANCH   6   7
ATOM      7  C   UNL     1      -4.560   4.024 128.654  0.00  0.00    +0.000 C 
ATOM      8  O   UNL     1      -3.352   4.286 128.664  0.00  0.00    +0.000 OA
ATOM      9  N   UNL     1      -5.411   4.571 129.609  0.00  0.00    +0.000 N 
ATOM     10  C   UNL     1      -5.549   6.042 129.590  0.00  0.00    +0.000 C 
ATOM     11  C   UNL     1      -5.870   6.564 130.949  0.00  0.00    +0.000 C 
ATOM     12  C   UNL     1      -7.493   6.018 131.419  0.00  0.00    +0.000 C 
ATOM     13  C   UNL     1      -6.941   4.382 131.528  0.00  0.00    +0.000 C 
ATOM     14  C   UNL     1      -6.489   3.781 130.220  0.00  0.00    +0.000 C 
BRANCH  12  15
ATOM     15  N   UNL     1      -8.858   7.105 130.834  0.00  0.00    +0.000 N 
ATOM     16  C   UNL     1      -9.628   6.419 131.828  0.00  0.00    +0.000 C 
ATOM     17  O   UNL     1      -9.395   6.260 133.072  0.00  0.00    +0.000 OA
ATOM     18  O   UNL     1     -10.563   5.626 131.370  0.00  0.00    +0.000 OA
ATOM     19  C   UNL     1     -11.587   6.526 131.494  0.00  0.00    +0.000 C 
ATOM     20  C   UNL     1     -11.526   6.860 130.073  0.00  0.00    +0.000 A 
ATOM     21  C   UNL     1     -12.867   6.703 129.454  0.00  0.00    +0.000 A 
ATOM     22  C   UNL     1     -13.273   7.341 128.328  0.00  0.00    +0.000 A 
ATOM     23  C   UNL     1     -12.416   8.387 128.079  0.00  0.00    +0.000 A 
ATOM     24  C   UNL     1     -10.946   8.489 128.772  0.00  0.00    +0.000 A 
ATOM     25  C   UNL     1     -10.269   7.438 129.683  0.00  0.00    +0.000 A 
ENDBRANCH  12  15
ENDBRANCH   6   7
BRANCH   1  27
ATOM     26  C   UNL     1      -6.277   5.326 125.184  0.00  0.00    +0.000 C 
ATOM     27  O   UNL     1      -6.799   4.601 126.267  0.00  0.00    +0.000 OA
ENDBRANCH   1  27
BRANCH   3  28
ATOM     28  O   UNL     1      -6.384   0.261 124.720  0.00  0.00    +0.000 OA
BRANCH  28  29
ATOM     29  C   UNL     1      -7.125  -0.912 125.172  0.00  0.00    +0.000 C 
ATOM     30  C   UNL     1      -8.152  -0.776 126.318  0.00  0.00    +0.000 C 
ATOM     31  C   UNL     1      -7.560  -0.800 127.726  0.00  0.00    +0.000 C 
ATOM     32  N   UNL     1      -6.529  -1.882 127.899  0.00  0.00    +0.000 NA
ATOM     33  C   UNL     1      -5.616  -2.155 126.740  0.00  0.00    +0.000 C 
ATOM     34  C   UNL     1      -6.241  -2.129 125.374  0.00  0.00    +0.000 C 
BRANCH  32  35
ATOM     35  C   UNL     1      -5.762  -1.646 129.153  0.00  0.00    +0.000 C 
BRANCH  35  36
ATOM     36  C   UNL     1      -5.893  -2.762 130.162  0.00  0.00    +0.000 A 
ATOM     37  C   UNL     1      -7.006  -2.811 131.019  0.00  0.00    +0.000 A 
ATOM     38  N   UNL     1      -6.955  -3.466 132.225  0.00  0.00    +0.000 N 
ATOM     39  O   UNL     1      -7.817  -3.190 133.118  0.00  0.00    +0.000 OA
ATOM     40  C   UNL     1      -5.943  -4.385 132.413  0.00  0.00    +0.000 A 
ATOM     41  C   UNL     1      -5.888  -5.133 133.699  0.00  0.00    +0.000 C 
ATOM     42  C   UNL     1      -4.992  -4.597 131.397  0.00  0.00    +0.000 A 
ATOM     43  C   UNL     1      -4.901  -3.720 130.319  0.00  0.00    +0.000 A 
ATOM     44  C   UNL     1      -3.742  -3.780 129.367  0.00  0.00    +0.000 C 
ENDBRANCH  35  36
ENDBRANCH  32  35
ENDBRANCH  28  29
ENDBRANCH   3  28
TORSDOF 7
ENDMDL
MODEL 4
REMARK VINA RESULT:     -10.8      2.676      8.706
REMARK  Name = CHEMBL68199
REMARK  10 active torsions:
REMARK  status: ('A' for Active; 'I' for Inactive)
REMARK    1  A    between atoms: C_1  and  O_2
REMARK    2  A    between atoms: O_2  and  C_3
REMARK    3  A    between atoms: C_5  and  O_6
REMARK    4  A    between atoms: O_6  and  C_7
REMARK    5  A    between atoms: N_10  and  C_11
REMARK    6  A    between atoms: C_11  and  C_12
REMARK    7  A    between atoms: C_16  and  C_17
REMARK    8  A    between atoms: C_19  and  C_20
REMARK    9  A    between atoms: C_25  and  C_26
REMARK   10  A    between atoms: C_31  and  N_32
REMARK                            x       y       z     vdW  Elec       q    Type
REMARK                         _______ _______ _______ _____ _____    ______ ____
ROOT
ATOM      1  C   UNL     1      -8.216   2.365 133.209  0.00  0.00    +0.000 A 
ATOM      2  C   UNL     1      -9.060   3.464 132.887  0.00  0.00    +0.000 A 
ATOM      3  C   UNL     1      -8.695   4.727 133.224  0.00  0.00    +0.000 A 
ATOM      4  C   UNL     1      -7.586   4.737 134.010  0.00  0.00    +0.000 A 
ATOM      5  C   UNL     1      -6.711   3.738 134.362  0.00  0.00    +0.000 A 
ATOM      6  C   UNL     1      -6.985   2.484 133.921  0.00  0.00    +0.000 A 
ENDROOT
BRANCH   6   7
ATOM      7  C   UNL     1      -5.946   1.497 134.397  0.00  0.00    +0.000 C 
ATOM      8  O   UNL     1      -5.706   1.401 135.606  0.00  0.00    +0.000 OA
ATOM      9  N   UNL     1      -5.350   0.633 133.485  0.00  0.00    +0.000 N 
ATOM     10  C   UNL     1      -5.700  -0.796 133.620  0.00  0.00    +0.000 C 
ATOM     11  C   UNL     1      -4.590  -1.664 133.133  0.00  0.00    +0.000 C 
ATOM     12  C   UNL     1      -4.414  -1.461 131.378  0.00  0.00    +0.000 C 
ATOM     13  C   UNL     1      -3.848   0.159 131.594  0.00  0.00    +0.000 C 
ATOM     14  C   UNL     1      -4.862   1.107 132.183  0.00  0.00    +0.000 C 
BRANCH  12  15
ATOM     15  N   UNL     1      -5.512  -2.547 130.375  0.00  0.00    +0.000 N 
ATOM     16  C   UNL     1      -4.537  -2.329 129.349  0.00  0.00    +0.000 C 
ATOM     17  O   UNL     1      -3.274  -2.508 129.374  0.00  0.00    +0.000 OA
ATOM     18  O   UNL     1      -4.939  -1.611 128.331  0.00  0.00    +0.000 OA
ATOM     19  C   UNL     1      -5.252  -2.671 127.523  0.00  0.00    +0.000 C 
ATOM     20  C   UNL     1      -6.673  -2.554 127.844  0.00  0.00    +0.000 A 
ATOM     21  C   UNL     1      -7.472  -2.455 126.595  0.00  0.00    +0.000 A 
ATOM     22  C   UNL     1      -8.782  -2.792 126.492  0.00  0.00    +0.000 A 
ATOM     23  C   UNL     1      -9.129  -3.552 127.584  0.00  0.00    +0.000 A 
ATOM     24  C   UNL     1      -8.223  -3.597 128.935  0.00  0.00    +0.000 A 
ATOM     25  C   UNL     1      -6.955  -2.763 129.237  0.00  0.00    +0.000 A 
ENDBRANCH  12  15
ENDBRANCH   6   7
BRANCH   1  27
ATOM     26  C   UNL     1      -9.930   1.546 131.940  0.00  0.00    +0.000 C 
ATOM     27  O   UNL     1      -8.783   1.234 132.686  0.00  0.00    +0.000 OA
ENDBRANCH   1  27
BRANCH   3  28
ATOM     28  O   UNL     1      -9.369   5.822 132.799  0.00  0.00    +0.000 OA
BRANCH  28  29
ATOM     29  C   UNL     1      -9.261   6.401 131.463  0.00  0.00    +0.000 C 
ATOM     30  C   UNL     1      -9.904   5.676 130.260  0.00  0.00    +0.000 C 
ATOM     31  C   UNL     1      -9.073   4.540 129.666  0.00  0.00    +0.000 C 
ATOM     32  N   UNL     1      -7.624   4.911 129.505  0.00  0.00    +0.000 NA
ATOM     33  C   UNL     1      -7.006   5.756 130.580  0.00  0.00    +0.000 C 
ATOM     34  C   UNL     1      -7.856   6.866 131.131  0.00  0.00    +0.000 C 
BRANCH  32  35
ATOM     35  C   UNL     1      -6.820   3.685 129.247  0.00  0.00    +0.000 C 
BRANCH  35  36
ATOM     36  C   UNL     1      -7.303   2.881 128.064  0.00  0.00    +0.000 A 
ATOM     37  C   UNL     1      -7.482   3.501 126.816  0.00  0.00    +0.000 A 
ATOM     38  N   UNL     1      -8.341   2.987 125.875  0.00  0.00    +0.000 N 
ATOM     39  O   UNL     1      -8.758   3.738 124.938  0.00  0.00    +0.000 OA
ATOM     40  C   UNL     1      -8.729   1.670 126.014  0.00  0.00    +0.000 A 
ATOM     41  C   UNL     1      -9.632   1.081 124.988  0.00  0.00    +0.000 C 
ATOM     42  C   UNL     1      -8.270   0.917 127.109  0.00  0.00    +0.000 A 
ATOM     43  C   UNL     1      -7.645   1.541 128.186  0.00  0.00    +0.000 A 
ATOM     44  C   UNL     1      -7.378   0.800 129.464  0.00  0.00    +0.000 C 
ENDBRANCH  35  36
ENDBRANCH  32  35
ENDBRANCH  28  29
ENDBRANCH   3  28
TORSDOF 7
ENDMDL
MODEL 5
REMARK VINA RESULT:     -10.6      3.853      8.195
REMARK  Name = CHEMBL68199
REMARK  10 active torsions:
REMARK  status: ('A' for Active; 'I' for Inactive)
REMARK    1  A    between atoms: C_1  and  O_2
REMARK    2  A    between atoms: O_2  and  C_3
REMARK    3  A    between atoms: C_5  and  O_6
REMARK    4  A    between atoms: O_6  and  C_7
REMARK    5  A    between atoms: N_10  and  C_11
REMARK    6  A    between atoms: C_11  and  C_12
REMARK    7  A    between atoms: C_16  and  C_17
REMARK    8  A    between atoms: C_19  and  C_20
REMARK    9  A    between atoms: C_25  and  C_26
REMARK   10  A    between atoms: C_31  and  N_32
REMARK                            x       y       z     vdW  Elec       q    Type
REMARK                         _______ _______ _______ _____ _____    ______ ____
ROOT
ATOM      1  C   UNL     1      -4.120   3.278 127.531  0.00  0.00    +0.000 A 
ATOM      2  C   UNL     1      -3.571   2.986 128.812  0.00  0.00    +0.000 A 
ATOM      3  C   UNL     1      -4.196   3.418 129.936  0.00  0.00    +0.000 A 
ATOM      4  C   UNL     1      -5.229   4.252 129.649  0.00  0.00    +0.000 A 
ATOM      5  C   UNL     1      -5.829   4.581 128.457  0.00  0.00    +0.000 A 
ATOM      6  C   UNL     1      -5.301   4.051 127.325  0.00  0.00    +0.000 A 
ENDROOT
BRANCH   6   7
ATOM      7  C   UNL     1      -6.056   4.512 126.101  0.00  0.00    +0.000 C 
ATOM      8  O   UNL     1      -5.903   5.668 125.690  0.00  0.00    +0.000 OA
ATOM      9  N   UNL     1      -6.828   3.602 125.387  0.00  0.00    +0.000 N 
ATOM     10  C   UNL     1      -6.333   3.246 124.041  0.00  0.00    +0.000 C 
ATOM     11  C   UNL     1      -7.461   2.869 123.142  0.00  0.00    +0.000 C 
ATOM     12  C   UNL     1      -8.185   1.352 123.713  0.00  0.00    +0.000 C 
ATOM     13  C   UNL     1      -8.793   2.142 125.127  0.00  0.00    +0.000 C 
ATOM     14  C   UNL     1      -7.731   2.661 126.064  0.00  0.00    +0.000 C 
BRANCH  12  15
ATOM     15  N   UNL     1      -7.360  -0.167 123.080  0.00  0.00    +0.000 N 
ATOM     16  C   UNL     1      -8.600  -0.799 123.419  0.00  0.00    +0.000 C 
ATOM     17  O   UNL     1      -9.789  -0.498 123.071  0.00  0.00    +0.000 OA
ATOM     18  O   UNL     1      -8.550  -1.639 124.422  0.00  0.00    +0.000 OA
ATOM     19  C   UNL     1      -8.421  -2.767 123.657  0.00  0.00    +0.000 C 
ATOM     20  C   UNL     1      -6.977  -2.807 123.879  0.00  0.00    +0.000 A 
ATOM     21  C   UNL     1      -6.578  -4.140 124.402  0.00  0.00    +0.000 A 
ATOM     22  C   UNL     1      -5.336  -4.671 124.283  0.00  0.00    +0.000 A 
ATOM     23  C   UNL     1      -4.645  -3.969 123.323  0.00  0.00    +0.000 A 
ATOM     24  C   UNL     1      -5.121  -2.500 122.810  0.00  0.00    +0.000 A 
ATOM     25  C   UNL     1      -6.295  -1.654 123.360  0.00  0.00    +0.000 A 
ENDBRANCH  12  15
ENDBRANCH   6   7
BRANCH   1  27
ATOM     26  C   UNL     1      -2.016   3.122 126.652  0.00  0.00    +0.000 C 
ATOM     27  O   UNL     1      -3.340   2.660 126.591  0.00  0.00    +0.000 OA
ENDBRANCH   1  27
BRANCH   3  28
ATOM     28  O   UNL     1      -3.818   3.031 131.177  0.00  0.00    +0.000 OA
BRANCH  28  29
ATOM     29  C   UNL     1      -4.689   2.377 132.149  0.00  0.00    +0.000 C 
ATOM     30  C   UNL     1      -4.073   1.501 133.263  0.00  0.00    +0.000 C 
ATOM     31  C   UNL     1      -3.723   0.074 132.848  0.00  0.00    +0.000 C 
ATOM     32  N   UNL     1      -4.811  -0.575 132.037  0.00  0.00    +0.000 NA
ATOM     33  C   UNL     1      -5.546   0.291 131.055  0.00  0.00    +0.000 C 
ATOM     34  C   UNL     1      -5.877   1.685 131.507  0.00  0.00    +0.000 C 
BRANCH  32  35
ATOM     35  C   UNL     1      -4.287  -1.808 131.389  0.00  0.00    +0.000 C 
BRANCH  35  36
ATOM     36  C   UNL     1      -5.256  -2.442 130.420  0.00  0.00    +0.000 A 
ATOM     37  C   UNL     1      -5.063  -2.302 129.036  0.00  0.00    +0.000 A 
ATOM     38  N   UNL     1      -6.107  -2.415 128.150  0.00  0.00    +0.000 N 
ATOM     39  O   UNL     1      -5.985  -1.931 126.981  0.00  0.00    +0.000 OA
ATOM     40  C   UNL     1      -7.257  -3.037 128.592  0.00  0.00    +0.000 A 
ATOM     41  C   UNL     1      -8.390  -3.202 127.639  0.00  0.00    +0.000 C 
ATOM     42  C   UNL     1      -7.338  -3.498 129.918  0.00  0.00    +0.000 A 
ATOM     43  C   UNL     1      -6.388  -3.115 130.861  0.00  0.00    +0.000 A 
ATOM     44  C   UNL     1      -6.593  -3.384 132.323  0.00  0.00    +0.000 C 
ENDBRANCH  35  36
ENDBRANCH  32  35
ENDBRANCH  28  29
ENDBRANCH   3  28
TORSDOF 7
ENDMDL
MODEL 6
REMARK VINA RESULT:     -10.6      2.233      4.566
REMARK  Name = CHEMBL68199
REMARK  10 active torsions:
REMARK  status: ('A' for Active; 'I' for Inactive)
REMARK    1  A    between atoms: C_1  and  O_2
REMARK    2  A    between atoms: O_2  and  C_3
REMARK    3  A    between atoms: C_5  and  O_6
REMARK    4  A    between atoms: O_6  and  C_7
REMARK    5  A    between atoms: N_10  and  C_11
REMARK    6  A    between atoms: C_11  and  C_12
REMARK    7  A    between atoms: C_16  and  C_17
REMARK    8  A    between atoms: C_19  and  C_20
REMARK    9  A    between atoms: C_25  and  C_26
REMARK   10  A    between atoms: C_31  and  N_32
REMARK                            x       y       z     vdW  Elec       q    Type
REMARK                         _______ _______ _______ _____ _____    ______ ____
ROOT
ATOM      1  C   UNL     1      -4.688   2.819 127.651  0.00  0.00    +0.000 A 
ATOM      2  C   UNL     1      -4.790   1.927 126.547  0.00  0.00    +0.000 A 
ATOM      3  C   UNL     1      -5.089   0.619 126.751  0.00  0.00    +0.000 A 
ATOM      4  C   UNL     1      -5.087   0.303 128.072  0.00  0.00    +0.000 A 
ATOM      5  C   UNL     1      -5.008   1.090 129.197  0.00  0.00    +0.000 A 
ATOM      6  C   UNL     1      -4.843   2.425 129.014  0.00  0.00    +0.000 A 
ENDROOT
BRANCH   6   7
ATOM      7  C   UNL     1      -4.761   3.151 130.334  0.00  0.00    +0.000 C 
ATOM      8  O   UNL     1      -3.663   3.297 130.883  0.00  0.00    +0.000 OA
ATOM      9  N   UNL     1      -5.902   3.743 130.866  0.00  0.00    +0.000 N 
ATOM     10  C   UNL     1      -5.914   5.221 130.894  0.00  0.00    +0.000 C 
ATOM     11  C   UNL     1      -6.757   5.724 132.015  0.00  0.00    +0.000 C 
ATOM     12  C   UNL     1      -8.457   5.319 131.700  0.00  0.00    +0.000 C 
ATOM     13  C   UNL     1      -8.125   3.635 131.918  0.00  0.00    +0.000 C 
ATOM     14  C   UNL     1      -7.191   3.039 130.894  0.00  0.00    +0.000 C 
BRANCH  12  15
ATOM     15  N   UNL     1      -9.350   6.550 130.663  0.00  0.00    +0.000 N 
ATOM     16  C   UNL     1     -10.408   6.353 131.608  0.00  0.00    +0.000 C 
ATOM     17  O   UNL     1     -10.392   6.446 132.880  0.00  0.00    +0.000 OA
ATOM     18  O   UNL     1     -11.472   5.746 131.146  0.00  0.00    +0.000 OA
ATOM     19  C   UNL     1     -12.188   6.886 130.893  0.00  0.00    +0.000 C 
ATOM     20  C   UNL     1     -11.852   6.835 129.472  0.00  0.00    +0.000 A 
ATOM     21  C   UNL     1     -13.089   6.890 128.652  0.00  0.00    +0.000 A 
ATOM     22  C   UNL     1     -13.141   7.318 127.366  0.00  0.00    +0.000 A 
ATOM     23  C   UNL     1     -11.987   8.010 127.084  0.00  0.00    +0.000 A 
ATOM     24  C   UNL     1     -10.653   7.887 128.010  0.00  0.00    +0.000 A 
ATOM     25  C   UNL     1     -10.441   6.950 129.222  0.00  0.00    +0.000 A 
ENDBRANCH  12  15
ENDBRANCH   6   7
BRANCH   1  27
ATOM     26  C   UNL     1      -3.098   4.401 127.216  0.00  0.00    +0.000 C 
ATOM     27  O   UNL     1      -4.462   4.075 127.156  0.00  0.00    +0.000 OA
ENDBRANCH   1  27
BRANCH   3  28
ATOM     28  O   UNL     1      -5.364  -0.235 125.737  0.00  0.00    +0.000 OA
BRANCH  28  29
ATOM     29  C   UNL     1      -6.653  -0.883 125.519  0.00  0.00    +0.000 C 
ATOM     30  C   UNL     1      -7.244  -0.956 124.093  0.00  0.00    +0.000 C 
ATOM     31  C   UNL     1      -7.973   0.303 123.628  0.00  0.00    +0.000 C 
ATOM     32  N   UNL     1      -8.887   0.863 124.684  0.00  0.00    +0.000 NA
ATOM     33  C   UNL     1      -8.413   0.802 126.107  0.00  0.00    +0.000 C 
ATOM     34  C   UNL     1      -7.707  -0.458 126.524  0.00  0.00    +0.000 C 
BRANCH  32  35
ATOM     35  C   UNL     1      -9.300   2.243 124.307  0.00  0.00    +0.000 C 
BRANCH  35  36
ATOM     36  C   UNL     1      -8.166   3.093 123.786  0.00  0.00    +0.000 A 
ATOM     37  C   UNL     1      -7.814   3.044 122.426  0.00  0.00    +0.000 A 
ATOM     38  N   UNL     1      -6.555   3.385 121.997  0.00  0.00    +0.000 N 
ATOM     39  O   UNL     1      -6.159   2.988 120.856  0.00  0.00    +0.000 OA
ATOM     40  C   UNL     1      -5.768   4.130 122.851  0.00  0.00    +0.000 A 
ATOM     41  C   UNL     1      -4.411   4.541 122.394  0.00  0.00    +0.000 C 
ATOM     42  C   UNL     1      -6.255   4.485 124.122  0.00  0.00    +0.000 A 
ATOM     43  C   UNL     1      -7.404   3.886 124.633  0.00  0.00    +0.000 A 
ATOM     44  C   UNL     1      -7.795   4.059 126.071  0.00  0.00    +0.000 C 
ENDBRANCH  35  36
ENDBRANCH  32  35
ENDBRANCH  28  29
ENDBRANCH   3  28
TORSDOF 7
ENDMDL
MODEL 7
REMARK VINA RESULT:     -10.6      3.529      5.136
REMARK  Name = CHEMBL68199
REMARK  10 active torsions:
REMARK  status: ('A' for Active; 'I' for Inactive)
REMARK    1  A    between atoms: C_1  and  O_2
REMARK    2  A    between atoms: O_2  and  C_3
REMARK    3  A    between atoms: C_5  and  O_6
REMARK    4  A    between atoms: O_6  and  C_7
REMARK    5  A    between atoms: N_10  and  C_11
REMARK    6  A    between atoms: C_11  and  C_12
REMARK    7  A    between atoms: C_16  and  C_17
REMARK    8  A    between atoms: C_19  and  C_20
REMARK    9  A    between atoms: C_25  and  C_26
REMARK   10  A    between atoms: C_31  and  N_32
REMARK                            x       y       z     vdW  Elec       q    Type
REMARK                         _______ _______ _______ _____ _____    ______ ____
ROOT
ATOM      1  C   UNL     1      -8.440   1.446 125.078  0.00  0.00    +0.000 A 
ATOM      2  C   UNL     1      -9.182   0.242 124.919  0.00  0.00    +0.000 A 
ATOM      3  C   UNL     1      -8.799  -0.680 124.001  0.00  0.00    +0.000 A 
ATOM      4  C   UNL     1      -7.797  -0.215 123.209  0.00  0.00    +0.000 A 
ATOM      5  C   UNL     1      -7.023   0.917 123.292  0.00  0.00    +0.000 A 
ATOM      6  C   UNL     1      -7.303   1.793 124.290  0.00  0.00    +0.000 A 
ENDROOT
BRANCH   6   7
ATOM      7  C   UNL     1      -6.381   2.988 124.244  0.00  0.00    +0.000 C 
ATOM      8  O   UNL     1      -6.395   3.731 123.256  0.00  0.00    +0.000 OA
ATOM      9  N   UNL     1      -5.606   3.302 125.355  0.00  0.00    +0.000 N 
ATOM     10  C   UNL     1      -5.972   4.541 126.072  0.00  0.00    +0.000 C 
ATOM     11  C   UNL     1      -4.782   5.138 126.744  0.00  0.00    +0.000 C 
ATOM     12  C   UNL     1      -4.248   4.064 128.053  0.00  0.00    +0.000 C 
ATOM     13  C   UNL     1      -3.744   2.871 126.906  0.00  0.00    +0.000 C 
ATOM     14  C   UNL     1      -4.862   2.271 126.090  0.00  0.00    +0.000 C 
BRANCH  12  15
ATOM     15  N   UNL     1      -5.111   4.334 129.656  0.00  0.00    +0.000 N 
ATOM     16  C   UNL     1      -3.819   4.088 130.221  0.00  0.00    +0.000 C 
ATOM     17  O   UNL     1      -2.700   4.647 129.970  0.00  0.00    +0.000 OA
ATOM     18  O   UNL     1      -3.701   2.973 130.898  0.00  0.00    +0.000 OA
ATOM     19  C   UNL     1      -3.906   3.532 132.131  0.00  0.00    +0.000 C 
ATOM     20  C   UNL     1      -5.302   3.099 132.145  0.00  0.00    +0.000 A 
ATOM     21  C   UNL     1      -5.584   2.330 133.384  0.00  0.00    +0.000 A 
ATOM     22  C   UNL     1      -6.815   2.185 133.935  0.00  0.00    +0.000 A 
ATOM     23  C   UNL     1      -7.656   3.129 133.393  0.00  0.00    +0.000 A 
ATOM     24  C   UNL     1      -7.299   3.920 132.016  0.00  0.00    +0.000 A 
ATOM     25  C   UNL     1      -6.084   3.681 131.089  0.00  0.00    +0.000 A 
ENDBRANCH  12  15
ENDBRANCH   6   7
BRANCH   1  27
ATOM     26  C   UNL     1      -8.651   1.572 127.350  0.00  0.00    +0.000 C 
ATOM     27  O   UNL     1      -8.994   2.146 126.116  0.00  0.00    +0.000 OA
ENDBRANCH   1  27
BRANCH   3  28
ATOM     28  O   UNL     1      -9.360  -1.910 123.920  0.00  0.00    +0.000 OA
BRANCH  28  29
ATOM     29  C   UNL     1      -8.972  -3.058 124.734  0.00  0.00    +0.000 C 
ATOM     30  C   UNL     1      -9.227  -3.039 126.258  0.00  0.00    +0.000 C 
ATOM     31  C   UNL     1      -8.178  -2.296 127.083  0.00  0.00    +0.000 C 
ATOM     32  N   UNL     1      -6.773  -2.629 126.662  0.00  0.00    +0.000 NA
ATOM     33  C   UNL     1      -6.520  -2.817 125.194  0.00  0.00    +0.000 C 
ATOM     34  C   UNL     1      -7.575  -3.560 124.423  0.00  0.00    +0.000 C 
BRANCH  32  35
ATOM     35  C   UNL     1      -5.826  -1.646 127.255  0.00  0.00    +0.000 C 
BRANCH  35  36
ATOM     36  C   UNL     1      -5.470  -1.940 128.693  0.00  0.00    +0.000 A 
ATOM     37  C   UNL     1      -5.200  -3.258 129.097  0.00  0.00    +0.000 A 
ATOM     38  N   UNL     1      -5.350  -3.653 130.405  0.00  0.00    +0.000 N 
ATOM     39  O   UNL     1      -5.459  -4.892 130.670  0.00  0.00    +0.000 OA
ATOM     40  C   UNL     1      -5.397  -2.668 131.370  0.00  0.00    +0.000 A 
ATOM     41  C   UNL     1      -5.524  -3.074 132.797  0.00  0.00    +0.000 C 
ATOM     42  C   UNL     1      -5.324  -1.315 130.993  0.00  0.00    +0.000 A 
ATOM     43  C   UNL     1      -5.464  -0.942 129.659  0.00  0.00    +0.000 A 
ATOM     44  C   UNL     1      -5.642   0.496 129.269  0.00  0.00    +0.000 C 
ENDBRANCH  35  36
ENDBRANCH  32  35
ENDBRANCH  28  29
ENDBRANCH   3  28
TORSDOF 7
ENDMDL
MODEL 8
REMARK VINA RESULT:     -10.5      2.974      8.521
REMARK  Name = CHEMBL68199
REMARK  10 active torsions:
REMARK  status: ('A' for Active; 'I' for Inactive)
REMARK    1  A    between atoms: C_1  and  O_2
REMARK    2  A    between atoms: O_2  and  C_3
REMARK    3  A    between atoms: C_5  and  O_6
REMARK    4  A    between atoms: O_6  and  C_7
REMARK    5  A    between atoms: N_10  and  C_11
REMARK    6  A    between atoms: C_11  and  C_12
REMARK    7  A    between atoms: C_16  and  C_17
REMARK    8  A    between atoms: C_19  and  C_20
REMARK    9  A    between atoms: C_25  and  C_26
REMARK   10  A    between atoms: C_31  and  N_32
REMARK                            x       y       z     vdW  Elec       q    Type
REMARK                         _______ _______ _______ _____ _____    ______ ____
ROOT
ATOM      1  C   UNL     1      -6.561   5.418 133.351  0.00  0.00    +0.000 A 
ATOM      2  C   UNL     1      -7.645   6.055 132.685  0.00  0.00    +0.000 A 
ATOM      3  C   UNL     1      -8.918   5.640 132.902  0.00  0.00    +0.000 A 
ATOM      4  C   UNL     1      -8.957   4.503 133.646  0.00  0.00    +0.000 A 
ATOM      5  C   UNL     1      -7.974   3.829 134.330  0.00  0.00    +0.000 A 
ATOM      6  C   UNL     1      -6.707   4.308 134.235  0.00  0.00    +0.000 A 
ENDROOT
BRANCH   6   7
ATOM      7  C   UNL     1      -5.742   3.459 135.026  0.00  0.00    +0.000 C 
ATOM      8  O   UNL     1      -5.610   3.655 136.240  0.00  0.00    +0.000 OA
ATOM      9  N   UNL     1      -5.093   2.396 134.406  0.00  0.00    +0.000 N 
ATOM     10  C   UNL     1      -5.493   1.044 134.846  0.00  0.00    +0.000 C 
ATOM     11  C   UNL     1      -4.370   0.078 134.685  0.00  0.00    +0.000 C 
ATOM     12  C   UNL     1      -4.036  -0.150 132.956  0.00  0.00    +0.000 C 
ATOM     13  C   UNL     1      -3.446   1.470 132.828  0.00  0.00    +0.000 C 
ATOM     14  C   UNL     1      -4.480   2.539 133.078  0.00  0.00    +0.000 C 
BRANCH  12  15
ATOM     15  N   UNL     1      -5.073  -1.438 132.147  0.00  0.00    +0.000 N 
ATOM     16  C   UNL     1      -3.919  -1.633 131.322  0.00  0.00    +0.000 C 
ATOM     17  O   UNL     1      -2.710  -1.870 131.654  0.00  0.00    +0.000 OA
ATOM     18  O   UNL     1      -4.051  -1.271 130.071  0.00  0.00    +0.000 OA
ATOM     19  C   UNL     1      -4.350  -2.518 129.591  0.00  0.00    +0.000 C 
ATOM     20  C   UNL     1      -5.779  -2.215 129.567  0.00  0.00    +0.000 A 
ATOM     21  C   UNL     1      -6.337  -2.488 128.217  0.00  0.00    +0.000 A 
ATOM     22  C   UNL     1      -7.641  -2.760 127.965  0.00  0.00    +0.000 A 
ATOM     23  C   UNL     1      -8.260  -3.092 129.147  0.00  0.00    +0.000 A 
ATOM     24  C   UNL     1      -7.608  -2.741 130.597  0.00  0.00    +0.000 A 
ATOM     25  C   UNL     1      -6.318  -1.932 130.869  0.00  0.00    +0.000 A 
ENDBRANCH  12  15
ENDBRANCH   6   7
BRANCH   1  27
ATOM     26  C   UNL     1      -5.448   6.501 131.674  0.00  0.00    +0.000 C 
ATOM     27  O   UNL     1      -5.413   6.083 133.014  0.00  0.00    +0.000 OA
ENDBRANCH   1  27
BRANCH   3  28
ATOM     28  O   UNL     1      -9.997   6.311 132.433  0.00  0.00    +0.000 OA
BRANCH  28  29
ATOM     29  C   UNL     1     -10.655   6.044 131.157  0.00  0.00    +0.000 C 
ATOM     30  C   UNL     1     -11.057   4.597 130.790  0.00  0.00    +0.000 C 
ATOM     31  C   UNL     1      -9.934   3.738 130.214  0.00  0.00    +0.000 C 
ATOM     32  N   UNL     1      -9.120   4.469 129.182  0.00  0.00    +0.000 NA
ATOM     33  C   UNL     1      -8.846   5.924 129.427  0.00  0.00    +0.000 C 
ATOM     34  C   UNL     1      -9.980   6.735 129.987  0.00  0.00    +0.000 C 
BRANCH  32  35
ATOM     35  C   UNL     1      -7.864   3.717 128.911  0.00  0.00    +0.000 C 
BRANCH  35  36
ATOM     36  C   UNL     1      -7.949   2.811 127.706  0.00  0.00    +0.000 A 
ATOM     37  C   UNL     1      -7.909   3.353 126.411  0.00  0.00    +0.000 A 
ATOM     38  N   UNL     1      -8.450   2.689 125.337  0.00  0.00    +0.000 N 
ATOM     39  O   UNL     1      -8.728   3.340 124.281  0.00  0.00    +0.000 OA
ATOM     40  C   UNL     1      -8.687   1.337 125.474  0.00  0.00    +0.000 A 
ATOM     41  C   UNL     1      -9.242   0.590 124.312  0.00  0.00    +0.000 C 
ATOM     42  C   UNL     1      -8.405   0.697 126.694  0.00  0.00    +0.000 A 
ATOM     43  C   UNL     1      -8.135   1.441 127.839  0.00  0.00    +0.000 A 
ATOM     44  C   UNL     1      -8.083   0.793 129.192  0.00  0.00    +0.000 C 
ENDBRANCH  35  36
ENDBRANCH  32  35
ENDBRANCH  28  29
ENDBRANCH   3  28
TORSDOF 7
ENDMDL
MODEL 9
REMARK VINA RESULT:     -10.4      1.751      3.963
REMARK  Name = CHEMBL68199
REMARK  10 active torsions:
REMARK  status: ('A' for Active; 'I' for Inactive)
REMARK    1  A    between atoms: C_1  and  O_2
REMARK    2  A    between atoms: O_2  and  C_3
REMARK    3  A    between atoms: C_5  and  O_6
REMARK    4  A    between atoms: O_6  and  C_7
REMARK    5  A    between atoms: N_10  and  C_11
REMARK    6  A    between atoms: C_11  and  C_12
REMARK    7  A    between atoms: C_16  and  C_17
REMARK    8  A    between atoms: C_19  and  C_20
REMARK    9  A    between atoms: C_25  and  C_26
REMARK   10  A    between atoms: C_31  and  N_32
REMARK                            x       y       z     vdW  Elec       q    Type
REMARK                         _______ _______ _______ _____ _____    ______ ____
ROOT
ATOM      1  C   UNL     1      -6.860   1.488 128.573  0.00  0.00    +0.000 A 
ATOM      2  C   UNL     1      -7.535   0.263 128.312  0.00  0.00    +0.000 A 
ATOM      3  C   UNL     1      -7.385  -0.792 129.152  0.00  0.00    +0.000 A 
ATOM      4  C   UNL     1      -6.426  -0.558 130.086  0.00  0.00    +0.000 A 
ATOM      5  C   UNL     1      -5.736   0.584 130.417  0.00  0.00    +0.000 A 
ATOM      6  C   UNL     1      -5.972   1.693 129.671  0.00  0.00    +0.000 A 
ENDROOT
BRANCH   6   7
ATOM      7  C   UNL     1      -5.134   2.857 130.143  0.00  0.00    +0.000 C 
ATOM      8  O   UNL     1      -3.929   2.893 129.867  0.00  0.00    +0.000 OA
ATOM      9  N   UNL     1      -5.746   3.927 130.788  0.00  0.00    +0.000 N 
ATOM     10  C   UNL     1      -5.774   5.203 130.043  0.00  0.00    +0.000 C 
ATOM     11  C   UNL     1      -5.793   6.364 130.978  0.00  0.00    +0.000 C 
ATOM     12  C   UNL     1      -7.334   6.383 131.860  0.00  0.00    +0.000 C 
ATOM     13  C   UNL     1      -6.896   4.943 132.712  0.00  0.00    +0.000 C 
ATOM     14  C   UNL     1      -6.745   3.719 131.844  0.00  0.00    +0.000 C 
BRANCH  12  15
ATOM     15  N   UNL     1      -8.699   7.251 130.982  0.00  0.00    +0.000 N 
ATOM     16  C   UNL     1      -9.540   6.514 131.876  0.00  0.00    +0.000 C 
ATOM     17  O   UNL     1      -9.512   6.445 133.149  0.00  0.00    +0.000 OA
ATOM     18  O   UNL     1     -10.275   5.584 131.323  0.00  0.00    +0.000 OA
ATOM     19  C   UNL     1     -11.409   6.344 131.211  0.00  0.00    +0.000 C 
ATOM     20  C   UNL     1     -11.141   6.618 129.801  0.00  0.00    +0.000 A 
ATOM     21  C   UNL     1     -12.323   6.256 128.978  0.00  0.00    +0.000 A 
ATOM     22  C   UNL     1     -12.601   6.782 127.759  0.00  0.00    +0.000 A 
ATOM     23  C   UNL     1     -11.848   7.920 127.587  0.00  0.00    +0.000 A 
ATOM     24  C   UNL     1     -10.547   8.248 128.508  0.00  0.00    +0.000 A 
ATOM     25  C   UNL     1      -9.916   7.340 129.590  0.00  0.00    +0.000 A 
ENDBRANCH  12  15
ENDBRANCH   6   7
BRANCH   1  27
ATOM     26  C   UNL     1      -8.212   3.278 128.137  0.00  0.00    +0.000 C 
ATOM     27  O   UNL     1      -7.251   2.393 127.624  0.00  0.00    +0.000 OA
ENDBRANCH   1  27
BRANCH   3  28
ATOM     28  O   UNL     1      -8.127  -1.919 129.050  0.00  0.00    +0.000 OA
BRANCH  28  29
ATOM     29  C   UNL     1      -7.726  -3.120 128.323  0.00  0.00    +0.000 C 
ATOM     30  C   UNL     1      -6.569  -3.047 127.302  0.00  0.00    +0.000 C 
ATOM     31  C   UNL     1      -6.955  -2.526 125.919  0.00  0.00    +0.000 C 
ATOM     32  N   UNL     1      -8.235  -3.134 125.412  0.00  0.00    +0.000 NA
ATOM     33  C   UNL     1      -9.328  -3.372 126.413  0.00  0.00    +0.000 C 
ATOM     34  C   UNL     1      -8.903  -3.891 127.757  0.00  0.00    +0.000 C 
BRANCH  32  35
ATOM     35  C   UNL     1      -8.728  -2.358 124.242  0.00  0.00    +0.000 C 
BRANCH  35  36
ATOM     36  C   UNL     1      -8.222  -0.936 124.202  0.00  0.00    +0.000 A 
ATOM     37  C   UNL     1      -8.842   0.057 124.980  0.00  0.00    +0.000 A 
ATOM     38  N   UNL     1      -8.766   1.386 124.641  0.00  0.00    +0.000 N 
ATOM     39  O   UNL     1      -9.615   2.199 125.127  0.00  0.00    +0.000 OA
ATOM     40  C   UNL     1      -7.774   1.768 123.762  0.00  0.00    +0.000 A 
ATOM     41  C   UNL     1      -7.651   3.209 123.408  0.00  0.00    +0.000 C 
ATOM     42  C   UNL     1      -6.906   0.801 123.223  0.00  0.00    +0.000 A 
ATOM     43  C   UNL     1      -7.187  -0.557 123.356  0.00  0.00    +0.000 A 
ATOM     44  C   UNL     1      -6.420  -1.588 122.581  0.00  0.00    +0.000 C 
ENDBRANCH  35  36
ENDBRANCH  32  35
ENDBRANCH  28  29
ENDBRANCH   3  28
TORSDOF 7
ENDMDL
