MODEL 1
REMARK VINA RESULT:      -9.8      0.000      0.000
REMARK  Name = CHEMBL2113212
REMARK  9 active torsions:
REMARK  status: ('A' for Active; 'I' for Inactive)
REMARK    1  A    between atoms: C_1  and  C_2
REMARK    2  A    between atoms: C_2  and  C_3
REMARK    3  A    between atoms: C_3  and  C_4
REMARK    4  A    between atoms: C_7  and  S_8
REMARK    5  A    between atoms: S_8  and  N_11
REMARK    6  A    between atoms: N_11  and  C_12
REMARK    7  A    between atoms: N_11  and  C_27
REMARK    8  A    between atoms: C_12  and  C_13
REMARK    9  A    between atoms: N_15  and  N_16
REMARK                            x       y       z     vdW  Elec       q    Type
REMARK                         _______ _______ _______ _____ _____    ______ ____
ROOT
ATOM      1  N   UNL     1      -7.724   0.602 129.393  0.00  0.00    +0.000 N 
ENDROOT
BRANCH   1   2
ATOM      2  C   UNL     1      -7.122  -0.757 129.624  0.00  0.00    +0.000 A 
ATOM      3  C   UNL     1      -7.962  -1.882 129.513  0.00  0.00    +0.000 A 
ATOM      4  C   UNL     1      -7.548  -3.176 129.889  0.00  0.00    +0.000 A 
ATOM      5  C   UNL     1      -6.241  -3.394 130.303  0.00  0.00    +0.000 A 
ATOM      6 CL   UNL     1      -5.698  -4.999 130.615  0.00  0.00    +0.000 Cl
ATOM      7  C   UNL     1      -5.376  -2.312 130.427  0.00  0.00    +0.000 A 
ATOM      8  C   UNL     1      -5.821  -1.000 130.111  0.00  0.00    +0.000 A 
ENDBRANCH   1   2
BRANCH   1   9
ATOM      9  S   UNL     1      -7.664   1.216 127.751  0.00  0.00    +0.000 S 
ATOM     10  O   UNL     1      -6.508   2.089 127.699  0.00  0.00    +0.000 OA
ATOM     11  O   UNL     1      -8.973   1.788 127.451  0.00  0.00    +0.000 OA
BRANCH   9  15
ATOM     12  C   UNL     1      -6.903  -2.440 125.112  0.00  0.00    +0.000 A 
ATOM     13  C   UNL     1      -8.207  -1.926 125.203  0.00  0.00    +0.000 A 
ATOM     14  C   UNL     1      -8.447  -0.737 125.915  0.00  0.00    +0.000 A 
ATOM     15  C   UNL     1      -7.364  -0.010 126.439  0.00  0.00    +0.000 A 
ATOM     16  C   UNL     1      -6.095  -0.416 126.071  0.00  0.00    +0.000 A 
ATOM     17  C   UNL     1      -5.873  -1.728 125.677  0.00  0.00    +0.000 A 
BRANCH  12  18
ATOM     18  C   UNL     1      -6.416  -3.562 124.242  0.00  0.00    +0.000 C 
BRANCH  18  20
ATOM     19  C   UNL     1      -4.212  -4.466 123.594  0.00  0.00    +0.000 C 
ATOM     20  C   UNL     1      -5.063  -3.234 123.680  0.00  0.00    +0.000 C 
ENDBRANCH  18  20
ENDBRANCH  12  18
ENDBRANCH   9  15
ENDBRANCH   1   9
BRANCH   1  21
ATOM     21  C   UNL     1      -7.939   1.417 130.674  0.00  0.00    +0.000 C 
BRANCH  21  22
ATOM     22  C   UNL     1      -9.294   2.051 131.079  0.00  0.00    +0.000 C 
ATOM     23  O   UNL     1      -9.856   1.564 132.087  0.00  0.00    +0.000 OA
ATOM     24  N   UNL     1      -9.812   3.147 130.301  0.00  0.00    +0.000 N 
ATOM     25  H   UNL     1      -9.279   3.416 129.471  0.00  0.00    +0.000 HD
BRANCH  24  26
ATOM     26  N   UNL     1     -11.283   3.514 130.067  0.00  0.00    +0.000 NA
ATOM     27  C   UNL     1     -11.526   4.820 130.209  0.00  0.00    +0.000 C 
ATOM     28  C   UNL     1     -10.794   5.583 131.267  0.00  0.00    +0.000 C 
ATOM     29  O   UNL     1      -9.638   5.802 130.986  0.00  0.00    +0.000 OA
ATOM     30  N   UNL     1     -11.743   6.435 131.849  0.00  0.00    +0.000 N 
ATOM     31  C   UNL     1     -12.387   6.982 130.730  0.00  0.00    +0.000 A 
ATOM     32  C   UNL     1     -12.620   8.372 130.772  0.00  0.00    +0.000 A 
ATOM     33  C   UNL     1     -12.807   9.078 129.611  0.00  0.00    +0.000 A 
ATOM     34  C   UNL     1     -12.697   8.339 128.433  0.00  0.00    +0.000 A 
ATOM     35  C   UNL     1     -12.479   6.867 128.418  0.00  0.00    +0.000 A 
ATOM     36  C   UNL     1     -12.358   6.108 129.620  0.00  0.00    +0.000 A 
ATOM     37  H   UNL     1     -12.500   5.971 132.350  0.00  0.00    +0.000 HD
ENDBRANCH  24  26
ENDBRANCH  21  22
ENDBRANCH   1  21
TORSDOF 8
ENDMDL
MODEL 2
REMARK VINA RESULT:      -9.3      2.502      3.523
REMARK  Name = CHEMBL2113212
REMARK  9 active torsions:
REMARK  status: ('A' for Active; 'I' for Inactive)
REMARK    1  A    between atoms: C_1  and  C_2
REMARK    2  A    between atoms: C_2  and  C_3
REMARK    3  A    between atoms: C_3  and  C_4
REMARK    4  A    between atoms: C_7  and  S_8
REMARK    5  A    between atoms: S_8  and  N_11
REMARK    6  A    between atoms: N_11  and  C_12
REMARK    7  A    between atoms: N_11  and  C_27
REMARK    8  A    between atoms: C_12  and  C_13
REMARK    9  A    between atoms: N_15  and  N_16
REMARK                            x       y       z     vdW  Elec       q    Type
REMARK                         _______ _______ _______ _____ _____    ______ ____
ROOT
ATOM      1  N   UNL     1      -7.049   1.007 129.288  0.00  0.00    +0.000 N 
ENDROOT
BRANCH   1   2
ATOM      2  C   UNL     1      -7.385   1.372 127.868  0.00  0.00    +0.000 A 
ATOM      3  C   UNL     1      -8.683   1.088 127.400  0.00  0.00    +0.000 A 
ATOM      4  C   UNL     1      -9.043   1.217 126.044  0.00  0.00    +0.000 A 
ATOM      5  C   UNL     1      -8.132   1.726 125.129  0.00  0.00    +0.000 A 
ATOM      6 CL   UNL     1      -8.624   2.024 123.504  0.00  0.00    +0.000 Cl
ATOM      7  C   UNL     1      -6.839   2.021 125.547  0.00  0.00    +0.000 A 
ATOM      8  C   UNL     1      -6.463   1.824 126.902  0.00  0.00    +0.000 A 
ENDBRANCH   1   2
BRANCH   1   9
ATOM      9  S   UNL     1      -6.706  -0.685 129.601  0.00  0.00    +0.000 S 
ATOM     10  O   UNL     1      -7.749  -1.139 130.499  0.00  0.00    +0.000 OA
ATOM     11  O   UNL     1      -5.321  -0.773 130.054  0.00  0.00    +0.000 OA
BRANCH   9  15
ATOM     12  C   UNL     1      -7.308  -2.816 125.600  0.00  0.00    +0.000 A 
ATOM     13  C   UNL     1      -6.023  -2.364 125.944  0.00  0.00    +0.000 A 
ATOM     14  C   UNL     1      -5.789  -1.809 127.215  0.00  0.00    +0.000 A 
ATOM     15  C   UNL     1      -6.816  -1.810 128.174  0.00  0.00    +0.000 A 
ATOM     16  C   UNL     1      -7.961  -2.524 127.871  0.00  0.00    +0.000 A 
ATOM     17  C   UNL     1      -8.301  -2.759 126.546  0.00  0.00    +0.000 A 
BRANCH  12  18
ATOM     18  C   UNL     1      -7.709  -3.613 124.393  0.00  0.00    +0.000 C 
BRANCH  18  20
ATOM     19  C   UNL     1      -9.189  -2.217 122.995  0.00  0.00    +0.000 C 
ATOM     20  C   UNL     1      -9.131  -3.310 124.020  0.00  0.00    +0.000 C 
ENDBRANCH  18  20
ENDBRANCH  12  18
ENDBRANCH   9  15
ENDBRANCH   1   9
BRANCH   1  21
ATOM     21  C   UNL     1      -7.440   2.073 130.319  0.00  0.00    +0.000 C 
BRANCH  21  22
ATOM     22  C   UNL     1      -8.898   2.351 130.766  0.00  0.00    +0.000 C 
ATOM     23  O   UNL     1      -9.431   1.480 131.492  0.00  0.00    +0.000 OA
ATOM     24  N   UNL     1      -9.537   3.571 130.344  0.00  0.00    +0.000 N 
ATOM     25  H   UNL     1      -9.008   4.173 129.710  0.00  0.00    +0.000 HD
BRANCH  24  26
ATOM     26  N   UNL     1     -11.032   3.803 130.092  0.00  0.00    +0.000 NA
ATOM     27  C   UNL     1     -11.382   5.091 130.170  0.00  0.00    +0.000 C 
ATOM     28  C   UNL     1     -10.719   5.961 131.189  0.00  0.00    +0.000 C 
ATOM     29  O   UNL     1      -9.585   6.261 130.898  0.00  0.00    +0.000 OA
ATOM     30  N   UNL     1     -11.738   6.760 131.729  0.00  0.00    +0.000 N 
ATOM     31  C   UNL     1     -12.420   7.197 130.584  0.00  0.00    +0.000 A 
ATOM     32  C   UNL     1     -12.767   8.563 130.558  0.00  0.00    +0.000 A 
ATOM     33  C   UNL     1     -13.006   9.195 129.364  0.00  0.00    +0.000 A 
ATOM     34  C   UNL     1     -12.830   8.410 128.223  0.00  0.00    +0.000 A 
ATOM     35  C   UNL     1     -12.492   6.962 128.281  0.00  0.00    +0.000 A 
ATOM     36  C   UNL     1     -12.315   6.275 129.518  0.00  0.00    +0.000 A 
ATOM     37  H   UNL     1     -12.457   6.260 132.252  0.00  0.00    +0.000 HD
ENDBRANCH  24  26
ENDBRANCH  21  22
ENDBRANCH   1  21
TORSDOF 8
ENDMDL
MODEL 3
REMARK VINA RESULT:      -9.2      2.881      3.963
REMARK  Name = CHEMBL2113212
REMARK  9 active torsions:
REMARK  status: ('A' for Active; 'I' for Inactive)
REMARK    1  A    between atoms: C_1  and  C_2
REMARK    2  A    between atoms: C_2  and  C_3
REMARK    3  A    between atoms: C_3  and  C_4
REMARK    4  A    between atoms: C_7  and  S_8
REMARK    5  A    between atoms: S_8  and  N_11
REMARK    6  A    between atoms: N_11  and  C_12
REMARK    7  A    between atoms: N_11  and  C_27
REMARK    8  A    between atoms: C_12  and  C_13
REMARK    9  A    between atoms: N_15  and  N_16
REMARK                            x       y       z     vdW  Elec       q    Type
REMARK                         _______ _______ _______ _____ _____    ______ ____
ROOT
ATOM      1  N   UNL     1      -6.232   2.437 129.982  0.00  0.00    +0.000 N 
ENDROOT
BRANCH   1   2
ATOM      2  C   UNL     1      -5.127   2.764 129.015  0.00  0.00    +0.000 A 
ATOM      3  C   UNL     1      -5.188   2.204 127.724  0.00  0.00    +0.000 A 
ATOM      4  C   UNL     1      -4.120   2.293 126.809  0.00  0.00    +0.000 A 
ATOM      5  C   UNL     1      -2.989   3.031 127.132  0.00  0.00    +0.000 A 
ATOM      6 CL   UNL     1      -1.753   3.264 125.954  0.00  0.00    +0.000 Cl
ATOM      7  C   UNL     1      -2.886   3.602 128.396  0.00  0.00    +0.000 A 
ATOM      8  C   UNL     1      -3.938   3.450 129.338  0.00  0.00    +0.000 A 
ENDBRANCH   1   2
BRANCH   1   9
ATOM      9  S   UNL     1      -6.264   0.798 130.609  0.00  0.00    +0.000 S 
ATOM     10  O   UNL     1      -6.888   0.888 131.914  0.00  0.00    +0.000 OA
ATOM     11  O   UNL     1      -4.905   0.274 130.530  0.00  0.00    +0.000 OA
BRANCH   9  15
ATOM     12  C   UNL     1      -8.103  -2.650 128.234  0.00  0.00    +0.000 A 
ATOM     13  C   UNL     1      -8.259  -2.625 129.630  0.00  0.00    +0.000 A 
ATOM     14  C   UNL     1      -7.803  -1.519 130.370  0.00  0.00    +0.000 A 
ATOM     15  C   UNL     1      -7.293  -0.396 129.697  0.00  0.00    +0.000 A 
ATOM     16  C   UNL     1      -7.431  -0.368 128.322  0.00  0.00    +0.000 A 
ATOM     17  C   UNL     1      -7.556  -1.554 127.613  0.00  0.00    +0.000 A 
BRANCH  12  18
ATOM     18  C   UNL     1      -8.696  -3.626 127.261  0.00  0.00    +0.000 C 
BRANCH  18  20
ATOM     19  C   UNL     1      -8.312  -3.838 124.831  0.00  0.00    +0.000 C 
ATOM     20  C   UNL     1      -8.879  -2.976 125.920  0.00  0.00    +0.000 C 
ENDBRANCH  18  20
ENDBRANCH  12  18
ENDBRANCH   9  15
ENDBRANCH   1   9
BRANCH   1  21
ATOM     21  C   UNL     1      -7.389   3.442 129.974  0.00  0.00    +0.000 C 
BRANCH  21  22
ATOM     22  C   UNL     1      -8.846   3.083 129.584  0.00  0.00    +0.000 C 
ATOM     23  O   UNL     1      -8.996   2.479 128.497  0.00  0.00    +0.000 OA
ATOM     24  N   UNL     1      -9.916   3.443 130.478  0.00  0.00    +0.000 N 
ATOM     25  H   UNL     1      -9.662   3.980 131.310  0.00  0.00    +0.000 HD
BRANCH  24  26
ATOM     26  N   UNL     1     -11.366   3.785 130.110  0.00  0.00    +0.000 NA
ATOM     27  C   UNL     1     -11.628   5.093 130.177  0.00  0.00    +0.000 C 
ATOM     28  C   UNL     1     -10.990   5.906 131.258  0.00  0.00    +0.000 C 
ATOM     29  O   UNL     1      -9.817   6.125 131.064  0.00  0.00    +0.000 OA
ATOM     30  N   UNL     1     -11.989   6.772 131.725  0.00  0.00    +0.000 N 
ATOM     31  C   UNL     1     -12.543   7.265 130.535  0.00  0.00    +0.000 A 
ATOM     32  C   UNL     1     -12.788   8.654 130.499  0.00  0.00    +0.000 A 
ATOM     33  C   UNL     1     -12.883   9.310 129.298  0.00  0.00    +0.000 A 
ATOM     34  C   UNL     1     -12.673   8.524 128.165  0.00  0.00    +0.000 A 
ATOM     35  C   UNL     1     -12.444   7.055 128.230  0.00  0.00    +0.000 A 
ATOM     36  C   UNL     1     -12.418   6.347 129.468  0.00  0.00    +0.000 A 
ATOM     37  H   UNL     1     -12.782   6.321 132.181  0.00  0.00    +0.000 HD
ENDBRANCH  24  26
ENDBRANCH  21  22
ENDBRANCH   1  21
TORSDOF 8
ENDMDL
MODEL 4
REMARK VINA RESULT:      -9.1      5.192      8.305
REMARK  Name = CHEMBL2113212
REMARK  9 active torsions:
REMARK  status: ('A' for Active; 'I' for Inactive)
REMARK    1  A    between atoms: C_1  and  C_2
REMARK    2  A    between atoms: C_2  and  C_3
REMARK    3  A    between atoms: C_3  and  C_4
REMARK    4  A    between atoms: C_7  and  S_8
REMARK    5  A    between atoms: S_8  and  N_11
REMARK    6  A    between atoms: N_11  and  C_12
REMARK    7  A    between atoms: N_11  and  C_27
REMARK    8  A    between atoms: C_12  and  C_13
REMARK    9  A    between atoms: N_15  and  N_16
REMARK                            x       y       z     vdW  Elec       q    Type
REMARK                         _______ _______ _______ _____ _____    ______ ____
ROOT
ATOM      1  N   UNL     1      -8.219   2.078 123.940  0.00  0.00    +0.000 N 
ENDROOT
BRANCH   1   2
ATOM      2  C   UNL     1      -7.809   2.827 122.702  0.00  0.00    +0.000 A 
ATOM      3  C   UNL     1      -8.821   3.274 121.831  0.00  0.00    +0.000 A 
ATOM      4  C   UNL     1      -8.542   3.818 120.561  0.00  0.00    +0.000 A 
ATOM      5  C   UNL     1      -7.226   4.014 120.164  0.00  0.00    +0.000 A 
ATOM      6 CL   UNL     1      -6.890   4.817 118.677  0.00  0.00    +0.000 Cl
ATOM      7  C   UNL     1      -6.194   3.588 120.993  0.00  0.00    +0.000 A 
ATOM      8  C   UNL     1      -6.484   2.978 122.243  0.00  0.00    +0.000 A 
ENDBRANCH   1   2
BRANCH   1   9
ATOM      9  S   UNL     1      -9.199   0.642 123.698  0.00  0.00    +0.000 S 
ATOM     10  O   UNL     1      -9.832   0.810 122.405  0.00  0.00    +0.000 OA
ATOM     11  O   UNL     1     -10.056   0.496 124.870  0.00  0.00    +0.000 OA
BRANCH   9  15
ATOM     12  C   UNL     1      -6.681  -3.146 124.167  0.00  0.00    +0.000 A 
ATOM     13  C   UNL     1      -8.074  -3.230 124.330  0.00  0.00    +0.000 A 
ATOM     14  C   UNL     1      -8.881  -2.105 124.079  0.00  0.00    +0.000 A 
ATOM     15  C   UNL     1      -8.301  -0.936 123.560  0.00  0.00    +0.000 A 
ATOM     16  C   UNL     1      -6.981  -1.012 123.154  0.00  0.00    +0.000 A 
ATOM     17  C   UNL     1      -6.142  -1.971 123.703  0.00  0.00    +0.000 A 
BRANCH  12  18
ATOM     18  C   UNL     1      -5.685  -4.268 124.184  0.00  0.00    +0.000 C 
BRANCH  18  20
ATOM     19  C   UNL     1      -3.348  -4.856 123.647  0.00  0.00    +0.000 C 
ATOM     20  C   UNL     1      -4.471  -3.898 123.382  0.00  0.00    +0.000 C 
ENDBRANCH  18  20
ENDBRANCH  12  18
ENDBRANCH   9  15
ENDBRANCH   1   9
BRANCH   1  21
ATOM     21  C   UNL     1      -8.068   2.881 125.237  0.00  0.00    +0.000 C 
BRANCH  21  22
ATOM     22  C   UNL     1      -7.946   2.240 126.643  0.00  0.00    +0.000 C 
ATOM     23  O   UNL     1      -8.842   2.534 127.467  0.00  0.00    +0.000 OA
ATOM     24  N   UNL     1      -6.844   1.352 126.912  0.00  0.00    +0.000 N 
ATOM     25  H   UNL     1      -6.153   1.237 126.168  0.00  0.00    +0.000 HD
BRANCH  24  26
ATOM     26  N   UNL     1      -6.147   1.109 128.256  0.00  0.00    +0.000 NA
ATOM     27  C   UNL     1      -6.286  -0.145 128.698  0.00  0.00    +0.000 C 
ATOM     28  C   UNL     1      -7.579  -0.857 128.463  0.00  0.00    +0.000 C 
ATOM     29  O   UNL     1      -7.725  -1.217 127.318  0.00  0.00    +0.000 OA
ATOM     30  N   UNL     1      -7.858  -1.544 129.653  0.00  0.00    +0.000 N 
ATOM     31  C   UNL     1      -6.626  -2.142 129.954  0.00  0.00    +0.000 A 
ATOM     32  C   UNL     1      -6.680  -3.490 130.365  0.00  0.00    +0.000 A 
ATOM     33  C   UNL     1      -5.577  -4.296 130.246  0.00  0.00    +0.000 A 
ATOM     34  C   UNL     1      -4.459  -3.702 129.658  0.00  0.00    +0.000 A 
ATOM     35  C   UNL     1      -4.421  -2.268 129.259  0.00  0.00    +0.000 A 
ATOM     36  C   UNL     1      -5.536  -1.400 129.447  0.00  0.00    +0.000 A 
ATOM     37  H   UNL     1      -8.037  -0.957 130.467  0.00  0.00    +0.000 HD
ENDBRANCH  24  26
ENDBRANCH  21  22
ENDBRANCH   1  21
TORSDOF 8
ENDMDL
MODEL 5
REMARK VINA RESULT:      -8.9      4.130      9.592
REMARK  Name = CHEMBL2113212
REMARK  9 active torsions:
REMARK  status: ('A' for Active; 'I' for Inactive)
REMARK    1  A    between atoms: C_1  and  C_2
REMARK    2  A    between atoms: C_2  and  C_3
REMARK    3  A    between atoms: C_3  and  C_4
REMARK    4  A    between atoms: C_7  and  S_8
REMARK    5  A    between atoms: S_8  and  N_11
REMARK    6  A    between atoms: N_11  and  C_12
REMARK    7  A    between atoms: N_11  and  C_27
REMARK    8  A    between atoms: C_12  and  C_13
REMARK    9  A    between atoms: N_15  and  N_16
REMARK                            x       y       z     vdW  Elec       q    Type
REMARK                         _______ _______ _______ _____ _____    ______ ____
ROOT
ATOM      1  N   UNL     1      -6.515   5.016 129.980  0.00  0.00    +0.000 N 
ENDROOT
BRANCH   1   2
ATOM      2  C   UNL     1      -5.225   5.648 130.425  0.00  0.00    +0.000 A 
ATOM      3  C   UNL     1      -4.146   4.800 130.741  0.00  0.00    +0.000 A 
ATOM      4  C   UNL     1      -2.961   5.273 131.340  0.00  0.00    +0.000 A 
ATOM      5  C   UNL     1      -2.789   6.633 131.557  0.00  0.00    +0.000 A 
ATOM      6 CL   UNL     1      -1.281   7.222 132.149  0.00  0.00    +0.000 Cl
ATOM      7  C   UNL     1      -3.828   7.508 131.259  0.00  0.00    +0.000 A 
ATOM      8  C   UNL     1      -5.045   7.015 130.718  0.00  0.00    +0.000 A 
ENDBRANCH   1   2
BRANCH   1   9
ATOM      9  S   UNL     1      -7.786   4.901 131.185  0.00  0.00    +0.000 S 
ATOM     10  O   UNL     1      -7.154   5.195 132.455  0.00  0.00    +0.000 OA
ATOM     11  O   UNL     1      -8.426   3.599 131.020  0.00  0.00    +0.000 OA
BRANCH   9  15
ATOM     12  C   UNL     1     -11.445   7.460 130.201  0.00  0.00    +0.000 A 
ATOM     13  C   UNL     1     -11.515   6.559 131.276  0.00  0.00    +0.000 A 
ATOM     14  C   UNL     1     -10.369   5.844 131.670  0.00  0.00    +0.000 A 
ATOM     15  C   UNL     1      -9.134   6.118 131.057  0.00  0.00    +0.000 A 
ATOM     16  C   UNL     1      -9.078   7.211 130.213  0.00  0.00    +0.000 A 
ATOM     17  C   UNL     1     -10.232   7.669 129.593  0.00  0.00    +0.000 A 
BRANCH  12  18
ATOM     18  C   UNL     1     -12.484   8.453 129.766  0.00  0.00    +0.000 C 
BRANCH  18  20
ATOM     19  C   UNL     1     -13.588   6.932 128.165  0.00  0.00    +0.000 C 
ATOM     20  C   UNL     1     -12.848   8.226 128.327  0.00  0.00    +0.000 C 
ENDBRANCH  18  20
ENDBRANCH  12  18
ENDBRANCH   9  15
ENDBRANCH   1   9
BRANCH   1  21
ATOM     21  C   UNL     1      -6.404   4.212 128.679  0.00  0.00    +0.000 C 
BRANCH  21  22
ATOM     22  C   UNL     1      -7.617   3.820 127.798  0.00  0.00    +0.000 C 
ATOM     23  O   UNL     1      -8.444   4.728 127.556  0.00  0.00    +0.000 OA
ATOM     24  N   UNL     1      -7.715   2.469 127.308  0.00  0.00    +0.000 N 
ATOM     25  H   UNL     1      -6.999   1.811 127.622  0.00  0.00    +0.000 HD
BRANCH  24  26
ATOM     26  N   UNL     1      -8.993   1.677 127.000  0.00  0.00    +0.000 NA
ATOM     27  C   UNL     1      -8.828   0.774 126.029  0.00  0.00    +0.000 C 
ATOM     28  C   UNL     1      -7.938   1.106 124.874  0.00  0.00    +0.000 C 
ATOM     29  O   UNL     1      -6.761   1.063 125.149  0.00  0.00    +0.000 OA
ATOM     30  N   UNL     1      -8.601   0.633 123.733  0.00  0.00    +0.000 N 
ATOM     31  C   UNL     1      -9.003  -0.651 124.126  0.00  0.00    +0.000 A 
ATOM     32  C   UNL     1      -8.800  -1.677 123.180  0.00  0.00    +0.000 A 
ATOM     33  C   UNL     1      -8.717  -2.986 123.583  0.00  0.00    +0.000 A 
ATOM     34  C   UNL     1      -8.795  -3.196 124.961  0.00  0.00    +0.000 A 
ATOM     35  C   UNL     1      -9.038  -2.098 125.935  0.00  0.00    +0.000 A 
ATOM     36  C   UNL     1      -9.202  -0.743 125.522  0.00  0.00    +0.000 A 
ATOM     37  H   UNL     1      -9.482   1.096 123.514  0.00  0.00    +0.000 HD
ENDBRANCH  24  26
ENDBRANCH  21  22
ENDBRANCH   1  21
TORSDOF 8
ENDMDL
MODEL 6
REMARK VINA RESULT:      -8.9      5.267      7.582
REMARK  Name = CHEMBL2113212
REMARK  9 active torsions:
REMARK  status: ('A' for Active; 'I' for Inactive)
REMARK    1  A    between atoms: C_1  and  C_2
REMARK    2  A    between atoms: C_2  and  C_3
REMARK    3  A    between atoms: C_3  and  C_4
REMARK    4  A    between atoms: C_7  and  S_8
REMARK    5  A    between atoms: S_8  and  N_11
REMARK    6  A    between atoms: N_11  and  C_12
REMARK    7  A    between atoms: N_11  and  C_27
REMARK    8  A    between atoms: C_12  and  C_13
REMARK    9  A    between atoms: N_15  and  N_16
REMARK                            x       y       z     vdW  Elec       q    Type
REMARK                         _______ _______ _______ _____ _____    ______ ____
ROOT
ATOM      1  N   UNL     1      -6.407   4.407 130.669  0.00  0.00    +0.000 N 
ENDROOT
BRANCH   1   2
ATOM      2  C   UNL     1      -5.435   4.145 129.552  0.00  0.00    +0.000 A 
ATOM      3  C   UNL     1      -4.167   3.629 129.883  0.00  0.00    +0.000 A 
ATOM      4  C   UNL     1      -3.124   3.523 128.942  0.00  0.00    +0.000 A 
ATOM      5  C   UNL     1      -3.352   3.848 127.612  0.00  0.00    +0.000 A 
ATOM      6 CL   UNL     1      -2.121   3.573 126.439  0.00  0.00    +0.000 Cl
ATOM      7  C   UNL     1      -4.590   4.361 127.240  0.00  0.00    +0.000 A 
ATOM      8  C   UNL     1      -5.616   4.529 128.207  0.00  0.00    +0.000 A 
ENDBRANCH   1   2
BRANCH   1   9
ATOM      9  S   UNL     1      -6.268   5.956 131.482  0.00  0.00    +0.000 S 
ATOM     10  O   UNL     1      -6.878   5.774 132.783  0.00  0.00    +0.000 OA
ATOM     11  O   UNL     1      -6.832   6.966 130.593  0.00  0.00    +0.000 OA
BRANCH   9  15
ATOM     12  C   UNL     1      -1.780   6.655 132.006  0.00  0.00    +0.000 A 
ATOM     13  C   UNL     1      -2.457   7.324 130.972  0.00  0.00    +0.000 A 
ATOM     14  C   UNL     1      -3.855   7.215 130.861  0.00  0.00    +0.000 A 
ATOM     15  C   UNL     1      -4.579   6.528 131.849  0.00  0.00    +0.000 A 
ATOM     16  C   UNL     1      -3.889   6.141 132.983  0.00  0.00    +0.000 A 
ATOM     17  C   UNL     1      -2.516   5.953 132.928  0.00  0.00    +0.000 A 
BRANCH  12  18
ATOM     18  C   UNL     1      -0.343   6.808 132.412  0.00  0.00    +0.000 C 
BRANCH  18  20
ATOM     19  C   UNL     1      -0.257   9.050 133.442  0.00  0.00    +0.000 C 
ATOM     20  C   UNL     1      -0.246   7.573 133.701  0.00  0.00    +0.000 C 
ENDBRANCH  18  20
ENDBRANCH  12  18
ENDBRANCH   9  15
ENDBRANCH   1   9
BRANCH   1  21
ATOM     21  C   UNL     1      -7.106   3.149 131.200  0.00  0.00    +0.000 C 
BRANCH  21  22
ATOM     22  C   UNL     1      -8.622   2.867 131.038  0.00  0.00    +0.000 C 
ATOM     23  O   UNL     1      -8.947   1.672 130.852  0.00  0.00    +0.000 OA
ATOM     24  N   UNL     1      -9.548   3.967 131.122  0.00  0.00    +0.000 N 
ATOM     25  H   UNL     1      -9.147   4.901 131.225  0.00  0.00    +0.000 HD
BRANCH  24  26
ATOM     26  N   UNL     1     -10.904   4.101 130.417  0.00  0.00    +0.000 NA
ATOM     27  C   UNL     1     -11.347   5.361 130.371  0.00  0.00    +0.000 C 
ATOM     28  C   UNL     1     -11.093   6.262 131.537  0.00  0.00    +0.000 C 
ATOM     29  O   UNL     1      -9.947   6.640 131.609  0.00  0.00    +0.000 OA
ATOM     30  N   UNL     1     -12.280   6.983 131.728  0.00  0.00    +0.000 N 
ATOM     31  C   UNL     1     -12.603   7.387 130.424  0.00  0.00    +0.000 A 
ATOM     32  C   UNL     1     -13.016   8.727 130.279  0.00  0.00    +0.000 A 
ATOM     33  C   UNL     1     -12.916   9.356 129.064  0.00  0.00    +0.000 A 
ATOM     34  C   UNL     1     -12.344   8.599 128.041  0.00  0.00    +0.000 A 
ATOM     35  C   UNL     1     -11.943   7.176 128.214  0.00  0.00    +0.000 A 
ATOM     36  C   UNL     1     -12.111   6.488 129.452  0.00  0.00    +0.000 A 
ATOM     37  H   UNL     1     -13.090   6.430 132.007  0.00  0.00    +0.000 HD
ENDBRANCH  24  26
ENDBRANCH  21  22
ENDBRANCH   1  21
TORSDOF 8
ENDMDL
MODEL 7
REMARK VINA RESULT:      -8.9      3.084      9.014
REMARK  Name = CHEMBL2113212
REMARK  9 active torsions:
REMARK  status: ('A' for Active; 'I' for Inactive)
REMARK    1  A    between atoms: C_1  and  C_2
REMARK    2  A    between atoms: C_2  and  C_3
REMARK    3  A    between atoms: C_3  and  C_4
REMARK    4  A    between atoms: C_7  and  S_8
REMARK    5  A    between atoms: S_8  and  N_11
REMARK    6  A    between atoms: N_11  and  C_12
REMARK    7  A    between atoms: N_11  and  C_27
REMARK    8  A    between atoms: C_12  and  C_13
REMARK    9  A    between atoms: N_15  and  N_16
REMARK                            x       y       z     vdW  Elec       q    Type
REMARK                         _______ _______ _______ _____ _____    ______ ____
ROOT
ATOM      1  N   UNL     1      -6.797   4.357 130.284  0.00  0.00    +0.000 N 
ENDROOT
BRANCH   1   2
ATOM      2  C   UNL     1      -7.214   3.069 130.937  0.00  0.00    +0.000 A 
ATOM      3  C   UNL     1      -6.222   2.104 131.196  0.00  0.00    +0.000 A 
ATOM      4  C   UNL     1      -6.528   0.799 131.631  0.00  0.00    +0.000 A 
ATOM      5  C   UNL     1      -7.844   0.452 131.908  0.00  0.00    +0.000 A 
ATOM      6 CL   UNL     1      -8.197  -1.094 132.583  0.00  0.00    +0.000 Cl
ATOM      7  C   UNL     1      -8.857   1.373 131.668  0.00  0.00    +0.000 A 
ATOM      8  C   UNL     1      -8.546   2.664 131.165  0.00  0.00    +0.000 A 
ENDBRANCH   1   2
BRANCH   1   9
ATOM      9  S   UNL     1      -7.051   5.825 131.211  0.00  0.00    +0.000 S 
ATOM     10  O   UNL     1      -6.207   6.830 130.597  0.00  0.00    +0.000 OA
ATOM     11  O   UNL     1      -6.824   5.499 132.615  0.00  0.00    +0.000 OA
BRANCH   9  15
ATOM     12  C   UNL     1     -11.458   6.893 130.624  0.00  0.00    +0.000 A 
ATOM     13  C   UNL     1     -11.042   6.379 131.863  0.00  0.00    +0.000 A 
ATOM     14  C   UNL     1      -9.675   6.150 132.107  0.00  0.00    +0.000 A 
ATOM     15  C   UNL     1      -8.724   6.541 131.150  0.00  0.00    +0.000 A 
ATOM     16  C   UNL     1      -9.175   7.297 130.084  0.00  0.00    +0.000 A 
ATOM     17  C   UNL     1     -10.504   7.219 129.692  0.00  0.00    +0.000 A 
BRANCH  12  18
ATOM     18  C   UNL     1     -12.823   7.391 130.248  0.00  0.00    +0.000 C 
BRANCH  18  20
ATOM     19  C   UNL     1     -13.253   9.224 128.651  0.00  0.00    +0.000 C 
ATOM     20  C   UNL     1     -12.793   8.877 130.036  0.00  0.00    +0.000 C 
ENDBRANCH  18  20
ENDBRANCH  12  18
ENDBRANCH   9  15
ENDBRANCH   1   9
BRANCH   1  21
ATOM     21  C   UNL     1      -6.585   4.251 128.768  0.00  0.00    +0.000 C 
BRANCH  21  22
ATOM     22  C   UNL     1      -7.702   3.872 127.763  0.00  0.00    +0.000 C 
ATOM     23  O   UNL     1      -8.466   4.798 127.407  0.00  0.00    +0.000 OA
ATOM     24  N   UNL     1      -7.788   2.512 127.295  0.00  0.00    +0.000 N 
ATOM     25  H   UNL     1      -7.134   1.841 127.704  0.00  0.00    +0.000 HD
BRANCH  24  26
ATOM     26  N   UNL     1      -9.047   1.751 126.861  0.00  0.00    +0.000 NA
ATOM     27  C   UNL     1      -8.797   0.794 125.962  0.00  0.00    +0.000 C 
ATOM     28  C   UNL     1      -7.753   1.035 124.919  0.00  0.00    +0.000 C 
ATOM     29  O   UNL     1      -6.624   0.965 125.346  0.00  0.00    +0.000 OA
ATOM     30  N   UNL     1      -8.284   0.528 123.724  0.00  0.00    +0.000 N 
ATOM     31  C   UNL     1      -8.786  -0.720 124.121  0.00  0.00    +0.000 A 
ATOM     32  C   UNL     1      -8.506  -1.799 123.258  0.00  0.00    +0.000 A 
ATOM     33  C   UNL     1      -8.529  -3.087 123.728  0.00  0.00    +0.000 A 
ATOM     34  C   UNL     1      -8.791  -3.225 125.092  0.00  0.00    +0.000 A 
ATOM     35  C   UNL     1      -9.112  -2.070 125.975  0.00  0.00    +0.000 A 
ATOM     36  C   UNL     1      -9.166  -0.733 125.482  0.00  0.00    +0.000 A 
ATOM     37  H   UNL     1      -9.110   1.010 123.371  0.00  0.00    +0.000 HD
ENDBRANCH  24  26
ENDBRANCH  21  22
ENDBRANCH   1  21
TORSDOF 8
ENDMDL
MODEL 8
REMARK VINA RESULT:      -8.9      5.005      9.542
REMARK  Name = CHEMBL2113212
REMARK  9 active torsions:
REMARK  status: ('A' for Active; 'I' for Inactive)
REMARK    1  A    between atoms: C_1  and  C_2
REMARK    2  A    between atoms: C_2  and  C_3
REMARK    3  A    between atoms: C_3  and  C_4
REMARK    4  A    between atoms: C_7  and  S_8
REMARK    5  A    between atoms: S_8  and  N_11
REMARK    6  A    between atoms: N_11  and  C_12
REMARK    7  A    between atoms: N_11  and  C_27
REMARK    8  A    between atoms: C_12  and  C_13
REMARK    9  A    between atoms: N_15  and  N_16
REMARK                            x       y       z     vdW  Elec       q    Type
REMARK                         _______ _______ _______ _____ _____    ______ ____
ROOT
ATOM      1  N   UNL     1     -10.204   5.018 131.655  0.00  0.00    +0.000 N 
ENDROOT
BRANCH   1   2
ATOM      2  C   UNL     1     -10.828   6.232 131.026  0.00  0.00    +0.000 A 
ATOM      3  C   UNL     1     -12.101   6.633 131.476  0.00  0.00    +0.000 A 
ATOM      4  C   UNL     1     -12.851   7.637 130.832  0.00  0.00    +0.000 A 
ATOM      5  C   UNL     1     -12.303   8.337 129.765  0.00  0.00    +0.000 A 
ATOM      6 CL   UNL     1     -13.161   9.664 129.079  0.00  0.00    +0.000 Cl
ATOM      7  C   UNL     1     -11.047   7.975 129.287  0.00  0.00    +0.000 A 
ATOM      8  C   UNL     1     -10.326   6.916 129.899  0.00  0.00    +0.000 A 
ENDBRANCH   1   2
BRANCH   1   9
ATOM      9  S   UNL     1      -8.995   5.309 132.892  0.00  0.00    +0.000 S 
ATOM     10  O   UNL     1      -8.923   4.088 133.668  0.00  0.00    +0.000 OA
ATOM     11  O   UNL     1      -9.365   6.541 133.582  0.00  0.00    +0.000 OA
BRANCH   9  15
ATOM     12  C   UNL     1      -4.857   6.815 131.662  0.00  0.00    +0.000 A 
ATOM     13  C   UNL     1      -5.002   6.152 132.892  0.00  0.00    +0.000 A 
ATOM     14  C   UNL     1      -6.239   5.580 133.241  0.00  0.00    +0.000 A 
ATOM     15  C   UNL     1      -7.291   5.578 132.311  0.00  0.00    +0.000 A 
ATOM     16  C   UNL     1      -6.996   5.988 131.024  0.00  0.00    +0.000 A 
ATOM     17  C   UNL     1      -5.922   6.836 130.796  0.00  0.00    +0.000 A 
BRANCH  12  18
ATOM     18  C   UNL     1      -3.588   7.304 131.026  0.00  0.00    +0.000 C 
BRANCH  18  20
ATOM     19  C   UNL     1      -3.810   9.363 129.682  0.00  0.00    +0.000 C 
ATOM     20  C   UNL     1      -3.874   7.865 129.663  0.00  0.00    +0.000 C 
ENDBRANCH  18  20
ENDBRANCH  12  18
ENDBRANCH   9  15
ENDBRANCH   1   9
BRANCH   1  21
ATOM     21  C   UNL     1     -10.413   3.723 130.859  0.00  0.00    +0.000 C 
BRANCH  21  22
ATOM     22  C   UNL     1      -9.373   2.577 130.783  0.00  0.00    +0.000 C 
ATOM     23  O   UNL     1      -9.626   1.551 131.456  0.00  0.00    +0.000 OA
ATOM     24  N   UNL     1      -8.209   2.746 129.951  0.00  0.00    +0.000 N 
ATOM     25  H   UNL     1      -8.096   3.653 129.494  0.00  0.00    +0.000 HD
BRANCH  24  26
ATOM     26  N   UNL     1      -6.816   2.136 130.158  0.00  0.00    +0.000 NA
ATOM     27  C   UNL     1      -5.943   2.493 129.212  0.00  0.00    +0.000 C 
ATOM     28  C   UNL     1      -6.420   2.637 127.802  0.00  0.00    +0.000 C 
ATOM     29  O   UNL     1      -7.069   3.640 127.617  0.00  0.00    +0.000 OA
ATOM     30  N   UNL     1      -5.422   2.065 127.001  0.00  0.00    +0.000 N 
ATOM     31  C   UNL     1      -4.249   2.614 127.539  0.00  0.00    +0.000 A 
ATOM     32  C   UNL     1      -3.301   3.078 126.604  0.00  0.00    +0.000 A 
ATOM     33  C   UNL     1      -2.367   4.014 126.969  0.00  0.00    +0.000 A 
ATOM     34  C   UNL     1      -2.469   4.485 128.279  0.00  0.00    +0.000 A 
ATOM     35  C   UNL     1      -3.461   3.957 129.254  0.00  0.00    +0.000 A 
ATOM     36  C   UNL     1      -4.389   2.930 128.909  0.00  0.00    +0.000 A 
ATOM     37  H   UNL     1      -5.284   1.061 127.121  0.00  0.00    +0.000 HD
ENDBRANCH  24  26
ENDBRANCH  21  22
ENDBRANCH   1  21
TORSDOF 8
ENDMDL
MODEL 9
REMARK VINA RESULT:      -8.8      5.191      7.561
REMARK  Name = CHEMBL2113212
REMARK  9 active torsions:
REMARK  status: ('A' for Active; 'I' for Inactive)
REMARK    1  A    between atoms: C_1  and  C_2
REMARK    2  A    between atoms: C_2  and  C_3
REMARK    3  A    between atoms: C_3  and  C_4
REMARK    4  A    between atoms: C_7  and  S_8
REMARK    5  A    between atoms: S_8  and  N_11
REMARK    6  A    between atoms: N_11  and  C_12
REMARK    7  A    between atoms: N_11  and  C_27
REMARK    8  A    between atoms: C_12  and  C_13
REMARK    9  A    between atoms: N_15  and  N_16
REMARK                            x       y       z     vdW  Elec       q    Type
REMARK                         _______ _______ _______ _____ _____    ______ ____
ROOT
ATOM      1  N   UNL     1      -6.678   3.398 131.518  0.00  0.00    +0.000 N 
ENDROOT
BRANCH   1   2
ATOM      2  C   UNL     1      -6.501   3.977 132.894  0.00  0.00    +0.000 A 
ATOM      3  C   UNL     1      -5.465   3.466 133.701  0.00  0.00    +0.000 A 
ATOM      4  C   UNL     1      -5.329   3.803 135.062  0.00  0.00    +0.000 A 
ATOM      5  C   UNL     1      -6.179   4.741 135.633  0.00  0.00    +0.000 A 
ATOM      6 CL   UNL     1      -5.914   5.262 137.254  0.00  0.00    +0.000 Cl
ATOM      7  C   UNL     1      -7.216   5.272 134.874  0.00  0.00    +0.000 A 
ATOM      8  C   UNL     1      -7.388   4.876 133.521  0.00  0.00    +0.000 A 
ENDBRANCH   1   2
BRANCH   1   9
ATOM      9  S   UNL     1      -6.040   4.341 130.183  0.00  0.00    +0.000 S 
ATOM     10  O   UNL     1      -7.114   5.226 129.776  0.00  0.00    +0.000 OA
ATOM     11  O   UNL     1      -5.512   3.402 129.198  0.00  0.00    +0.000 OA
BRANCH   9  15
ATOM     12  C   UNL     1      -2.617   6.800 131.956  0.00  0.00    +0.000 A 
ATOM     13  C   UNL     1      -2.312   5.671 131.178  0.00  0.00    +0.000 A 
ATOM     14  C   UNL     1      -3.341   4.965 130.528  0.00  0.00    +0.000 A 
ATOM     15  C   UNL     1      -4.656   5.458 130.571  0.00  0.00    +0.000 A 
ATOM     16  C   UNL     1      -4.840   6.719 131.107  0.00  0.00    +0.000 A 
ATOM     17  C   UNL     1      -3.921   7.227 132.014  0.00  0.00    +0.000 A 
BRANCH  12  18
ATOM     18  C   UNL     1      -1.660   7.792 132.550  0.00  0.00    +0.000 C 
BRANCH  18  20
ATOM     19  C   UNL     1      -1.909  10.207 132.998  0.00  0.00    +0.000 C 
ATOM     20  C   UNL     1      -2.409   8.833 133.331  0.00  0.00    +0.000 C 
ENDBRANCH  18  20
ENDBRANCH  12  18
ENDBRANCH   9  15
ENDBRANCH   1   9
BRANCH   1  21
ATOM     21  C   UNL     1      -7.727   2.282 131.438  0.00  0.00    +0.000 C 
BRANCH  21  22
ATOM     22  C   UNL     1      -9.257   2.529 131.472  0.00  0.00    +0.000 C 
ATOM     23  O   UNL     1      -9.953   1.624 131.987  0.00  0.00    +0.000 OA
ATOM     24  N   UNL     1      -9.777   3.759 130.934  0.00  0.00    +0.000 N 
ATOM     25  H   UNL     1      -9.105   4.392 130.495  0.00  0.00    +0.000 HD
BRANCH  24  26
ATOM     26  N   UNL     1     -11.148   3.989 130.284  0.00  0.00    +0.000 NA
ATOM     27  C   UNL     1     -11.512   5.275 130.271  0.00  0.00    +0.000 C 
ATOM     28  C   UNL     1     -11.158   6.141 131.437  0.00  0.00    +0.000 C 
ATOM     29  O   UNL     1      -9.988   6.445 131.469  0.00  0.00    +0.000 OA
ATOM     30  N   UNL     1     -12.289   6.932 131.683  0.00  0.00    +0.000 N 
ATOM     31  C   UNL     1     -12.634   7.375 130.397  0.00  0.00    +0.000 A 
ATOM     32  C   UNL     1     -12.967   8.740 130.285  0.00  0.00    +0.000 A 
ATOM     33  C   UNL     1     -12.873   9.379 129.075  0.00  0.00    +0.000 A 
ATOM     34  C   UNL     1     -12.389   8.603 128.021  0.00  0.00    +0.000 A 
ATOM     35  C   UNL     1     -12.072   7.156 128.161  0.00  0.00    +0.000 A 
ATOM     36  C   UNL     1     -12.237   6.461 129.395  0.00  0.00    +0.000 A 
ATOM     37  H   UNL     1     -13.121   6.427 131.986  0.00  0.00    +0.000 HD
ENDBRANCH  24  26
ENDBRANCH  21  22
ENDBRANCH   1  21
TORSDOF 8
ENDMDL
