MODEL 1
REMARK VINA RESULT:      -7.9      0.000      0.000
REMARK  Name = CHEMBL590097
REMARK  9 active torsions:
REMARK  status: ('A' for Active; 'I' for Inactive)
REMARK    1  A    between atoms: C_1  and  O_2
REMARK    2  A    between atoms: O_2  and  C_3
REMARK    3  A    between atoms: C_3  and  C_4
REMARK    4  A    between atoms: C_11  and  O_12
REMARK    5  A    between atoms: O_12  and  C_13
REMARK    6  A    between atoms: C_18  and  C_19
REMARK    7  A    between atoms: N_21  and  C_22
REMARK    8  A    between atoms: C_25  and  O_26
REMARK    9  A    between atoms: O_26  and  C_27
REMARK                            x       y       z     vdW  Elec       q    Type
REMARK                         _______ _______ _______ _____ _____    ______ ____
ROOT
ATOM      1  C   UNL     1      -9.147   0.571 124.005  0.00  0.00    +0.000 A 
ATOM      2  N   UNL     1      -9.348   0.132 125.239  0.00  0.00    +0.000 NA
ATOM      3  N   UNL     1      -8.591   0.892 126.106  0.00  0.00    +0.000 NA
ATOM      4  C   UNL     1      -7.956   1.836 125.417  0.00  0.00    +0.000 A 
ATOM      5  N   UNL     1      -7.305   2.915 125.921  0.00  0.00    +0.000 N 
ATOM      6  C   UNL     1      -7.537   4.246 125.434  0.00  0.00    +0.000 C 
ATOM      7  C   UNL     1      -6.136   4.698 125.132  0.00  0.00    +0.000 C 
ATOM      8  C   UNL     1      -5.312   4.303 126.324  0.00  0.00    +0.000 C 
ATOM      9  C   UNL     1      -5.991   2.894 126.625  0.00  0.00    +0.000 C 
ATOM     10  N   UNL     1      -8.291   1.649 124.069  0.00  0.00    +0.000 N 
ENDROOT
BRANCH  10  11
ATOM     11  C   UNL     1      -7.808   2.372 122.960  0.00  0.00    +0.000 A 
ATOM     12  C   UNL     1      -6.459   2.334 122.619  0.00  0.00    +0.000 A 
ATOM     13  C   UNL     1      -6.046   3.024 121.483  0.00  0.00    +0.000 A 
ATOM     14  C   UNL     1      -6.989   3.718 120.733  0.00  0.00    +0.000 A 
ATOM     15  N   UNL     1      -8.300   3.750 121.062  0.00  0.00    +0.000 NA
ATOM     16  C   UNL     1      -8.687   3.083 122.173  0.00  0.00    +0.000 A 
BRANCH  14  17
ATOM     17  O   UNL     1      -6.709   4.421 119.596  0.00  0.00    +0.000 OA
ATOM     18  C   UNL     1      -5.537   5.221 119.624  0.00  0.00    +0.000 C 
ENDBRANCH  14  17
ENDBRANCH  10  11
BRANCH   1  19
ATOM     19  C   UNL     1      -9.696  -0.015 122.743  0.00  0.00    +0.000 C 
BRANCH  19  21
ATOM     20  C   UNL     1      -8.562  -2.087 122.708  0.00  0.00    +0.000 C 
ATOM     21  O   UNL     1      -9.815  -1.432 122.904  0.00  0.00    +0.000 OA
ENDBRANCH  19  21
ENDBRANCH   1  19
BRANCH   8  22
ATOM     22  O   UNL     1      -5.493   5.283 127.390  0.00  0.00    +0.000 OA
BRANCH  22  23
ATOM     23  C   UNL     1      -4.456   5.547 128.283  0.00  0.00    +0.000 A 
ATOM     24  C   UNL     1      -3.524   6.517 127.853  0.00  0.00    +0.000 A 
ATOM     25  C   UNL     1      -2.311   6.732 128.539  0.00  0.00    +0.000 A 
ATOM     26  C   UNL     1      -2.000   5.994 129.671  0.00  0.00    +0.000 A 
ATOM     27  C   UNL     1      -2.893   5.038 130.109  0.00  0.00    +0.000 A 
ATOM     28  C   UNL     1      -4.095   4.772 129.422  0.00  0.00    +0.000 A 
ATOM     29  C   UNL     1      -4.829   3.627 130.057  0.00  0.00    +0.000 C 
ENDBRANCH  22  23
ENDBRANCH   8  22
TORSDOF 6
ENDMDL
MODEL 2
REMARK VINA RESULT:      -7.9      1.734      4.287
REMARK  Name = CHEMBL590097
REMARK  9 active torsions:
REMARK  status: ('A' for Active; 'I' for Inactive)
REMARK    1  A    between atoms: C_1  and  O_2
REMARK    2  A    between atoms: O_2  and  C_3
REMARK    3  A    between atoms: C_3  and  C_4
REMARK    4  A    between atoms: C_11  and  O_12
REMARK    5  A    between atoms: O_12  and  C_13
REMARK    6  A    between atoms: C_18  and  C_19
REMARK    7  A    between atoms: N_21  and  C_22
REMARK    8  A    between atoms: C_25  and  O_26
REMARK    9  A    between atoms: O_26  and  C_27
REMARK                            x       y       z     vdW  Elec       q    Type
REMARK                         _______ _______ _______ _____ _____    ______ ____
ROOT
ATOM      1  C   UNL     1      -6.057   3.815 121.722  0.00  0.00    +0.000 A 
ATOM      2  N   UNL     1      -5.184   4.799 121.873  0.00  0.00    +0.000 NA
ATOM      3  N   UNL     1      -4.940   4.970 123.219  0.00  0.00    +0.000 NA
ATOM      4  C   UNL     1      -5.627   4.061 123.906  0.00  0.00    +0.000 A 
ATOM      5  N   UNL     1      -5.482   3.749 125.218  0.00  0.00    +0.000 N 
ATOM      6  C   UNL     1      -5.336   2.395 125.672  0.00  0.00    +0.000 C 
ATOM      7  C   UNL     1      -6.408   2.320 126.723  0.00  0.00    +0.000 C 
ATOM      8  C   UNL     1      -6.263   3.568 127.545  0.00  0.00    +0.000 C 
ATOM      9  C   UNL     1      -5.921   4.587 126.370  0.00  0.00    +0.000 C 
ATOM     10  N   UNL     1      -6.354   3.312 122.971  0.00  0.00    +0.000 N 
ENDROOT
BRANCH  10  11
ATOM     11  C   UNL     1      -7.272   2.276 123.234  0.00  0.00    +0.000 A 
ATOM     12  C   UNL     1      -8.591   2.563 123.571  0.00  0.00    +0.000 A 
ATOM     13  C   UNL     1      -9.468   1.501 123.769  0.00  0.00    +0.000 A 
ATOM     14  C   UNL     1      -9.000   0.201 123.620  0.00  0.00    +0.000 A 
ATOM     15  N   UNL     1      -7.720  -0.078 123.288  0.00  0.00    +0.000 NA
ATOM     16  C   UNL     1      -6.875   0.963 123.107  0.00  0.00    +0.000 A 
BRANCH  14  17
ATOM     17  O   UNL     1      -9.765  -0.921 123.776  0.00  0.00    +0.000 OA
ATOM     18  C   UNL     1      -9.110  -2.162 123.566  0.00  0.00    +0.000 C 
ENDBRANCH  14  17
ENDBRANCH  10  11
BRANCH   1  19
ATOM     19  C   UNL     1      -6.672   3.347 120.441  0.00  0.00    +0.000 C 
BRANCH  19  21
ATOM     20  C   UNL     1      -8.954   3.918 120.214  0.00  0.00    +0.000 C 
ATOM     21  O   UNL     1      -7.606   4.333 119.989  0.00  0.00    +0.000 OA
ENDBRANCH  19  21
ENDBRANCH   1  19
BRANCH   8  22
ATOM     22  O   UNL     1      -5.182   3.397 128.510  0.00  0.00    +0.000 OA
BRANCH  22  23
ATOM     23  C   UNL     1      -4.304   4.446 128.774  0.00  0.00    +0.000 A 
ATOM     24  C   UNL     1      -4.843   5.503 129.540  0.00  0.00    +0.000 A 
ATOM     25  C   UNL     1      -4.156   6.724 129.701  0.00  0.00    +0.000 A 
ATOM     26  C   UNL     1      -2.917   6.919 129.112  0.00  0.00    +0.000 A 
ATOM     27  C   UNL     1      -2.371   5.903 128.355  0.00  0.00    +0.000 A 
ATOM     28  C   UNL     1      -3.051   4.687 128.143  0.00  0.00    +0.000 A 
ATOM     29  C   UNL     1      -2.276   3.800 127.211  0.00  0.00    +0.000 C 
ENDBRANCH  22  23
ENDBRANCH   8  22
TORSDOF 6
ENDMDL
MODEL 3
REMARK VINA RESULT:      -7.7      2.917      5.515
REMARK  Name = CHEMBL590097
REMARK  9 active torsions:
REMARK  status: ('A' for Active; 'I' for Inactive)
REMARK    1  A    between atoms: C_1  and  O_2
REMARK    2  A    between atoms: O_2  and  C_3
REMARK    3  A    between atoms: C_3  and  C_4
REMARK    4  A    between atoms: C_11  and  O_12
REMARK    5  A    between atoms: O_12  and  C_13
REMARK    6  A    between atoms: C_18  and  C_19
REMARK    7  A    between atoms: N_21  and  C_22
REMARK    8  A    between atoms: C_25  and  O_26
REMARK    9  A    between atoms: O_26  and  C_27
REMARK                            x       y       z     vdW  Elec       q    Type
REMARK                         _______ _______ _______ _____ _____    ______ ____
ROOT
ATOM      1  C   UNL     1      -6.156   3.651 122.360  0.00  0.00    +0.000 A 
ATOM      2  N   UNL     1      -5.461   4.686 122.809  0.00  0.00    +0.000 NA
ATOM      3  N   UNL     1      -5.670   4.802 124.167  0.00  0.00    +0.000 NA
ATOM      4  C   UNL     1      -6.459   3.810 124.572  0.00  0.00    +0.000 A 
ATOM      5  N   UNL     1      -6.710   3.440 125.853  0.00  0.00    +0.000 N 
ATOM      6  C   UNL     1      -6.601   2.077 126.291  0.00  0.00    +0.000 C 
ATOM      7  C   UNL     1      -7.940   1.869 126.943  0.00  0.00    +0.000 C 
ATOM      8  C   UNL     1      -8.168   3.079 127.804  0.00  0.00    +0.000 C 
ATOM      9  C   UNL     1      -7.560   4.181 126.828  0.00  0.00    +0.000 C 
ATOM     10  N   UNL     1      -6.788   3.062 123.434  0.00  0.00    +0.000 N 
ENDROOT
BRANCH  10  11
ATOM     11  C   UNL     1      -7.651   1.951 123.361  0.00  0.00    +0.000 A 
ATOM     12  C   UNL     1      -9.027   2.125 123.252  0.00  0.00    +0.000 A 
ATOM     13  C   UNL     1      -9.828   0.994 123.131  0.00  0.00    +0.000 A 
ATOM     14  C   UNL     1      -9.229  -0.260 123.118  0.00  0.00    +0.000 A 
ATOM     15  N   UNL     1      -7.892  -0.429 123.219  0.00  0.00    +0.000 NA
ATOM     16  C   UNL     1      -7.125   0.678 123.345  0.00  0.00    +0.000 A 
BRANCH  14  17
ATOM     17  O   UNL     1      -9.906  -1.441 122.993  0.00  0.00    +0.000 OA
ATOM     18  C   UNL     1      -9.174  -2.619 123.294  0.00  0.00    +0.000 C 
ENDBRANCH  14  17
ENDBRANCH  10  11
BRANCH   1  19
ATOM     19  C   UNL     1      -6.293   3.210 120.937  0.00  0.00    +0.000 C 
BRANCH  19  21
ATOM     20  C   UNL     1      -7.107   4.495 119.128  0.00  0.00    +0.000 C 
ATOM     21  O   UNL     1      -7.435   3.852 120.361  0.00  0.00    +0.000 OA
ENDBRANCH  19  21
ENDBRANCH   1  19
BRANCH   8  22
ATOM     22  O   UNL     1      -7.436   2.933 129.058  0.00  0.00    +0.000 OA
BRANCH  22  23
ATOM     23  C   UNL     1      -7.972   2.177 130.098  0.00  0.00    +0.000 A 
ATOM     24  C   UNL     1      -7.441   0.876 130.232  0.00  0.00    +0.000 A 
ATOM     25  C   UNL     1      -8.028  -0.078 131.087  0.00  0.00    +0.000 A 
ATOM     26  C   UNL     1      -9.152   0.241 131.834  0.00  0.00    +0.000 A 
ATOM     27  C   UNL     1      -9.692   1.505 131.719  0.00  0.00    +0.000 A 
ATOM     28  C   UNL     1      -9.151   2.468 130.842  0.00  0.00    +0.000 A 
ATOM     29  C   UNL     1      -9.984   3.717 130.844  0.00  0.00    +0.000 C 
ENDBRANCH  22  23
ENDBRANCH   8  22
TORSDOF 6
ENDMDL
MODEL 4
REMARK VINA RESULT:      -7.6      3.802      6.128
REMARK  Name = CHEMBL590097
REMARK  9 active torsions:
REMARK  status: ('A' for Active; 'I' for Inactive)
REMARK    1  A    between atoms: C_1  and  O_2
REMARK    2  A    between atoms: O_2  and  C_3
REMARK    3  A    between atoms: C_3  and  C_4
REMARK    4  A    between atoms: C_11  and  O_12
REMARK    5  A    between atoms: O_12  and  C_13
REMARK    6  A    between atoms: C_18  and  C_19
REMARK    7  A    between atoms: N_21  and  C_22
REMARK    8  A    between atoms: C_25  and  O_26
REMARK    9  A    between atoms: O_26  and  C_27
REMARK                            x       y       z     vdW  Elec       q    Type
REMARK                         _______ _______ _______ _____ _____    ______ ____
ROOT
ATOM      1  C   UNL     1      -6.403   3.105 123.199  0.00  0.00    +0.000 A 
ATOM      2  N   UNL     1      -5.672   4.021 123.817  0.00  0.00    +0.000 NA
ATOM      3  N   UNL     1      -5.460   3.613 125.117  0.00  0.00    +0.000 NA
ATOM      4  C   UNL     1      -6.019   2.419 125.295  0.00  0.00    +0.000 A 
ATOM      5  N   UNL     1      -5.839   1.583 126.349  0.00  0.00    +0.000 N 
ATOM      6  C   UNL     1      -5.512   0.195 126.179  0.00  0.00    +0.000 C 
ATOM      7  C   UNL     1      -6.569  -0.461 127.023  0.00  0.00    +0.000 C 
ATOM      8  C   UNL     1      -6.599   0.308 128.313  0.00  0.00    +0.000 C 
ATOM      9  C   UNL     1      -6.393   1.772 127.720  0.00  0.00    +0.000 C 
ATOM     10  N   UNL     1      -6.634   2.074 124.084  0.00  0.00    +0.000 N 
ENDROOT
BRANCH  10  11
ATOM     11  C   UNL     1      -7.404   0.925 123.813  0.00  0.00    +0.000 A 
ATOM     12  C   UNL     1      -6.840  -0.173 123.171  0.00  0.00    +0.000 A 
ATOM     13  C   UNL     1      -7.631  -1.301 122.975  0.00  0.00    +0.000 A 
ATOM     14  C   UNL     1      -8.945  -1.292 123.428  0.00  0.00    +0.000 A 
ATOM     15  N   UNL     1      -9.491  -0.226 124.056  0.00  0.00    +0.000 NA
ATOM     16  C   UNL     1      -8.714   0.867 124.232  0.00  0.00    +0.000 A 
BRANCH  14  17
ATOM     17  O   UNL     1      -9.815  -2.339 123.305  0.00  0.00    +0.000 OA
ATOM     18  C   UNL     1      -9.414  -3.561 123.906  0.00  0.00    +0.000 C 
ENDBRANCH  14  17
ENDBRANCH  10  11
BRANCH   1  19
ATOM     19  C   UNL     1      -6.943   3.176 121.806  0.00  0.00    +0.000 C 
BRANCH  19  21
ATOM     20  C   UNL     1      -8.869   3.782 120.578  0.00  0.00    +0.000 C 
ATOM     21  O   UNL     1      -8.346   3.454 121.866  0.00  0.00    +0.000 OA
ENDBRANCH  19  21
ENDBRANCH   1  19
BRANCH   8  22
ATOM     22  O   UNL     1      -5.508  -0.138 129.174  0.00  0.00    +0.000 OA
BRANCH  22  23
ATOM     23  C   UNL     1      -5.518  -1.425 129.708  0.00  0.00    +0.000 A 
ATOM     24  C   UNL     1      -4.457  -2.258 129.290  0.00  0.00    +0.000 A 
ATOM     25  C   UNL     1      -4.450  -3.640 129.565  0.00  0.00    +0.000 A 
ATOM     26  C   UNL     1      -5.492  -4.225 130.268  0.00  0.00    +0.000 A 
ATOM     27  C   UNL     1      -6.542  -3.434 130.684  0.00  0.00    +0.000 A 
ATOM     28  C   UNL     1      -6.597  -2.056 130.389  0.00  0.00    +0.000 A 
ATOM     29  C   UNL     1      -7.886  -1.459 130.876  0.00  0.00    +0.000 C 
ENDBRANCH  22  23
ENDBRANCH   8  22
TORSDOF 6
ENDMDL
MODEL 5
REMARK VINA RESULT:      -7.6      3.550      7.945
REMARK  Name = CHEMBL590097
REMARK  9 active torsions:
REMARK  status: ('A' for Active; 'I' for Inactive)
REMARK    1  A    between atoms: C_1  and  O_2
REMARK    2  A    between atoms: O_2  and  C_3
REMARK    3  A    between atoms: C_3  and  C_4
REMARK    4  A    between atoms: C_11  and  O_12
REMARK    5  A    between atoms: O_12  and  C_13
REMARK    6  A    between atoms: C_18  and  C_19
REMARK    7  A    between atoms: N_21  and  C_22
REMARK    8  A    between atoms: C_25  and  O_26
REMARK    9  A    between atoms: O_26  and  C_27
REMARK                            x       y       z     vdW  Elec       q    Type
REMARK                         _______ _______ _______ _____ _____    ______ ____
ROOT
ATOM      1  C   UNL     1      -8.341   3.891 129.488  0.00  0.00    +0.000 A 
ATOM      2  N   UNL     1      -9.439   3.152 129.458  0.00  0.00    +0.000 NA
ATOM      3  N   UNL     1      -9.250   2.116 128.567  0.00  0.00    +0.000 NA
ATOM      4  C   UNL     1      -8.015   2.184 128.076  0.00  0.00    +0.000 A 
ATOM      5  N   UNL     1      -7.370   1.231 127.357  0.00  0.00    +0.000 N 
ATOM      6  C   UNL     1      -6.045   0.788 127.689  0.00  0.00    +0.000 C 
ATOM      7  C   UNL     1      -5.343   0.949 126.369  0.00  0.00    +0.000 C 
ATOM      8  C   UNL     1      -6.263   0.356 125.341  0.00  0.00    +0.000 C 
ATOM      9  C   UNL     1      -7.647   0.868 125.939  0.00  0.00    +0.000 C 
ATOM     10  N   UNL     1      -7.414   3.315 128.646  0.00  0.00    +0.000 N 
ENDROOT
BRANCH  10  11
ATOM     11  C   UNL     1      -6.129   3.825 128.378  0.00  0.00    +0.000 A 
ATOM     12  C   UNL     1      -5.862   4.493 127.187  0.00  0.00    +0.000 A 
ATOM     13  C   UNL     1      -4.589   5.022 126.997  0.00  0.00    +0.000 A 
ATOM     14  C   UNL     1      -3.638   4.870 127.999  0.00  0.00    +0.000 A 
ATOM     15  N   UNL     1      -3.899   4.226 129.159  0.00  0.00    +0.000 NA
ATOM     16  C   UNL     1      -5.137   3.708 129.326  0.00  0.00    +0.000 A 
BRANCH  14  17
ATOM     17  O   UNL     1      -2.361   5.354 127.935  0.00  0.00    +0.000 OA
ATOM     18  C   UNL     1      -2.195   6.730 128.242  0.00  0.00    +0.000 C 
ENDBRANCH  14  17
ENDBRANCH  10  11
BRANCH   1  19
ATOM     19  C   UNL     1      -8.134   5.163 130.248  0.00  0.00    +0.000 C 
BRANCH  19  21
ATOM     20  C   UNL     1      -9.521   7.076 130.273  0.00  0.00    +0.000 C 
ATOM     21  O   UNL     1      -8.663   6.251 129.483  0.00  0.00    +0.000 OA
ENDBRANCH  19  21
ENDBRANCH   1  19
BRANCH   8  22
ATOM     22  O   UNL     1      -6.123  -1.096 125.338  0.00  0.00    +0.000 OA
BRANCH  22  23
ATOM     23  C   UNL     1      -7.108  -1.894 124.760  0.00  0.00    +0.000 A 
ATOM     24  C   UNL     1      -7.266  -1.741 123.365  0.00  0.00    +0.000 A 
ATOM     25  C   UNL     1      -8.358  -2.310 122.678  0.00  0.00    +0.000 A 
ATOM     26  C   UNL     1      -9.313  -3.048 123.359  0.00  0.00    +0.000 A 
ATOM     27  C   UNL     1      -9.183  -3.210 124.723  0.00  0.00    +0.000 A 
ATOM     28  C   UNL     1      -8.125  -2.620 125.444  0.00  0.00    +0.000 A 
ATOM     29  C   UNL     1      -8.276  -2.876 126.916  0.00  0.00    +0.000 C 
ENDBRANCH  22  23
ENDBRANCH   8  22
TORSDOF 6
ENDMDL
MODEL 6
REMARK VINA RESULT:      -7.5      2.316      4.675
REMARK  Name = CHEMBL590097
REMARK  9 active torsions:
REMARK  status: ('A' for Active; 'I' for Inactive)
REMARK    1  A    between atoms: C_1  and  O_2
REMARK    2  A    between atoms: O_2  and  C_3
REMARK    3  A    between atoms: C_3  and  C_4
REMARK    4  A    between atoms: C_11  and  O_12
REMARK    5  A    between atoms: O_12  and  C_13
REMARK    6  A    between atoms: C_18  and  C_19
REMARK    7  A    between atoms: N_21  and  C_22
REMARK    8  A    between atoms: C_25  and  O_26
REMARK    9  A    between atoms: O_26  and  C_27
REMARK                            x       y       z     vdW  Elec       q    Type
REMARK                         _______ _______ _______ _____ _____    ______ ____
ROOT
ATOM      1  C   UNL     1      -6.021   3.595 122.258  0.00  0.00    +0.000 A 
ATOM      2  N   UNL     1      -5.349   4.672 122.639  0.00  0.00    +0.000 NA
ATOM      3  N   UNL     1      -5.612   4.907 123.972  0.00  0.00    +0.000 NA
ATOM      4  C   UNL     1      -6.410   3.949 124.434  0.00  0.00    +0.000 A 
ATOM      5  N   UNL     1      -6.709   3.692 125.733  0.00  0.00    +0.000 N 
ATOM      6  C   UNL     1      -6.610   2.375 126.295  0.00  0.00    +0.000 C 
ATOM      7  C   UNL     1      -7.972   2.215 126.911  0.00  0.00    +0.000 C 
ATOM      8  C   UNL     1      -8.240   3.495 127.650  0.00  0.00    +0.000 C 
ATOM      9  C   UNL     1      -7.599   4.510 126.604  0.00  0.00    +0.000 C 
ATOM     10  N   UNL     1      -6.691   3.100 123.355  0.00  0.00    +0.000 N 
ENDROOT
BRANCH  10  11
ATOM     11  C   UNL     1      -7.545   1.979 123.350  0.00  0.00    +0.000 A 
ATOM     12  C   UNL     1      -8.925   2.137 123.273  0.00  0.00    +0.000 A 
ATOM     13  C   UNL     1      -9.718   0.994 123.217  0.00  0.00    +0.000 A 
ATOM     14  C   UNL     1      -9.107  -0.254 123.237  0.00  0.00    +0.000 A 
ATOM     15  N   UNL     1      -7.766  -0.407 123.306  0.00  0.00    +0.000 NA
ATOM     16  C   UNL     1      -7.007   0.711 123.369  0.00  0.00    +0.000 A 
BRANCH  14  17
ATOM     17  O   UNL     1      -9.776  -1.445 123.176  0.00  0.00    +0.000 OA
ATOM     18  C   UNL     1      -8.982  -2.617 123.282  0.00  0.00    +0.000 C 
ENDBRANCH  14  17
ENDBRANCH  10  11
BRANCH   1  19
ATOM     19  C   UNL     1      -6.100   3.028 120.876  0.00  0.00    +0.000 C 
BRANCH  19  21
ATOM     20  C   UNL     1      -8.124   4.016 120.160  0.00  0.00    +0.000 C 
ATOM     21  O   UNL     1      -6.704   3.996 120.012  0.00  0.00    +0.000 OA
ENDBRANCH  19  21
ENDBRANCH   1  19
BRANCH   8  22
ATOM     22  O   UNL     1      -7.556   3.468 128.940  0.00  0.00    +0.000 OA
BRANCH  22  23
ATOM     23  C   UNL     1      -7.282   4.657 129.613  0.00  0.00    +0.000 A 
ATOM     24  C   UNL     1      -5.916   4.905 129.866  0.00  0.00    +0.000 A 
ATOM     25  C   UNL     1      -5.499   5.945 130.721  0.00  0.00    +0.000 A 
ATOM     26  C   UNL     1      -6.430   6.765 131.339  0.00  0.00    +0.000 A 
ATOM     27  C   UNL     1      -7.772   6.541 131.112  0.00  0.00    +0.000 A 
ATOM     28  C   UNL     1      -8.220   5.485 130.293  0.00  0.00    +0.000 A 
ATOM     29  C   UNL     1      -9.720   5.412 130.293  0.00  0.00    +0.000 C 
ENDBRANCH  22  23
ENDBRANCH   8  22
TORSDOF 6
ENDMDL
MODEL 7
REMARK VINA RESULT:      -7.3      6.890     10.252
REMARK  Name = CHEMBL590097
REMARK  9 active torsions:
REMARK  status: ('A' for Active; 'I' for Inactive)
REMARK    1  A    between atoms: C_1  and  O_2
REMARK    2  A    between atoms: O_2  and  C_3
REMARK    3  A    between atoms: C_3  and  C_4
REMARK    4  A    between atoms: C_11  and  O_12
REMARK    5  A    between atoms: O_12  and  C_13
REMARK    6  A    between atoms: C_18  and  C_19
REMARK    7  A    between atoms: N_21  and  C_22
REMARK    8  A    between atoms: C_25  and  O_26
REMARK    9  A    between atoms: O_26  and  C_27
REMARK                            x       y       z     vdW  Elec       q    Type
REMARK                         _______ _______ _______ _____ _____    ______ ____
ROOT
ATOM      1  C   UNL     1      -9.223   5.077 130.369  0.00  0.00    +0.000 A 
ATOM      2  N   UNL     1      -9.671   4.580 129.226  0.00  0.00    +0.000 NA
ATOM      3  N   UNL     1      -9.409   3.226 129.200  0.00  0.00    +0.000 NA
ATOM      4  C   UNL     1      -8.839   2.871 130.349  0.00  0.00    +0.000 A 
ATOM      5  N   UNL     1      -8.641   1.608 130.804  0.00  0.00    +0.000 N 
ATOM      6  C   UNL     1      -9.026   1.203 132.127  0.00  0.00    +0.000 C 
ATOM      7  C   UNL     1      -7.747   0.598 132.633  0.00  0.00    +0.000 C 
ATOM      8  C   UNL     1      -7.245  -0.286 131.527  0.00  0.00    +0.000 C 
ATOM      9  C   UNL     1      -7.630   0.642 130.291  0.00  0.00    +0.000 C 
ATOM     10  N   UNL     1      -8.704   4.038 131.112  0.00  0.00    +0.000 N 
ENDROOT
BRANCH  10  11
ATOM     11  C   UNL     1      -8.099   4.166 132.378  0.00  0.00    +0.000 A 
ATOM     12  C   UNL     1      -8.874   4.284 133.528  0.00  0.00    +0.000 A 
ATOM     13  C   UNL     1      -8.224   4.354 134.757  0.00  0.00    +0.000 A 
ATOM     14  C   UNL     1      -6.836   4.301 134.792  0.00  0.00    +0.000 A 
ATOM     15  N   UNL     1      -6.084   4.182 133.675  0.00  0.00    +0.000 NA
ATOM     16  C   UNL     1      -6.727   4.124 132.486  0.00  0.00    +0.000 A 
BRANCH  14  17
ATOM     17  O   UNL     1      -6.087   4.349 135.934  0.00  0.00    +0.000 OA
ATOM     18  C   UNL     1      -5.483   5.597 136.237  0.00  0.00    +0.000 C 
ENDBRANCH  14  17
ENDBRANCH  10  11
BRANCH   1  19
ATOM     19  C   UNL     1      -9.218   6.514 130.784  0.00  0.00    +0.000 C 
BRANCH  19  21
ATOM     20  C   UNL     1     -11.363   6.466 131.774  0.00  0.00    +0.000 C 
ATOM     21  O   UNL     1     -10.557   7.016 130.731  0.00  0.00    +0.000 OA
ENDBRANCH  19  21
ENDBRANCH   1  19
BRANCH   8  22
ATOM     22  O   UNL     1      -7.961  -1.558 131.554  0.00  0.00    +0.000 OA
BRANCH  22  23
ATOM     23  C   UNL     1      -7.260  -2.758 131.456  0.00  0.00    +0.000 A 
ATOM     24  C   UNL     1      -6.751  -3.260 132.673  0.00  0.00    +0.000 A 
ATOM     25  C   UNL     1      -5.842  -4.337 132.706  0.00  0.00    +0.000 A 
ATOM     26  C   UNL     1      -5.424  -4.944 131.532  0.00  0.00    +0.000 A 
ATOM     27  C   UNL     1      -5.905  -4.471 130.329  0.00  0.00    +0.000 A 
ATOM     28  C   UNL     1      -6.784  -3.370 130.261  0.00  0.00    +0.000 A 
ATOM     29  C   UNL     1      -7.073  -3.007 128.833  0.00  0.00    +0.000 C 
ENDBRANCH  22  23
ENDBRANCH   8  22
TORSDOF 6
ENDMDL
MODEL 8
REMARK VINA RESULT:      -7.3      5.687      8.193
REMARK  Name = CHEMBL590097
REMARK  9 active torsions:
REMARK  status: ('A' for Active; 'I' for Inactive)
REMARK    1  A    between atoms: C_1  and  O_2
REMARK    2  A    between atoms: O_2  and  C_3
REMARK    3  A    between atoms: C_3  and  C_4
REMARK    4  A    between atoms: C_11  and  O_12
REMARK    5  A    between atoms: O_12  and  C_13
REMARK    6  A    between atoms: C_18  and  C_19
REMARK    7  A    between atoms: N_21  and  C_22
REMARK    8  A    between atoms: C_25  and  O_26
REMARK    9  A    between atoms: O_26  and  C_27
REMARK                            x       y       z     vdW  Elec       q    Type
REMARK                         _______ _______ _______ _____ _____    ______ ____
ROOT
ATOM      1  C   UNL     1      -6.247   0.924 132.660  0.00  0.00    +0.000 A 
ATOM      2  N   UNL     1      -7.251   0.932 133.524  0.00  0.00    +0.000 NA
ATOM      3  N   UNL     1      -8.156   1.900 133.139  0.00  0.00    +0.000 NA
ATOM      4  C   UNL     1      -7.737   2.462 132.009  0.00  0.00    +0.000 A 
ATOM      5  N   UNL     1      -8.449   3.282 131.194  0.00  0.00    +0.000 N 
ATOM      6  C   UNL     1      -8.536   3.066 129.778  0.00  0.00    +0.000 C 
ATOM      7  C   UNL     1      -8.132   4.414 129.249  0.00  0.00    +0.000 C 
ATOM      8  C   UNL     1      -8.900   5.419 130.058  0.00  0.00    +0.000 C 
ATOM      9  C   UNL     1      -8.806   4.701 131.477  0.00  0.00    +0.000 C 
ATOM     10  N   UNL     1      -6.515   1.859 131.684  0.00  0.00    +0.000 N 
ENDROOT
BRANCH  10  11
ATOM     11  C   UNL     1      -5.668   2.173 130.603  0.00  0.00    +0.000 A 
ATOM     12  C   UNL     1      -4.815   3.272 130.664  0.00  0.00    +0.000 A 
ATOM     13  C   UNL     1      -3.962   3.505 129.589  0.00  0.00    +0.000 A 
ATOM     14  C   UNL     1      -3.988   2.637 128.504  0.00  0.00    +0.000 A 
ATOM     15  N   UNL     1      -4.813   1.568 128.447  0.00  0.00    +0.000 NA
ATOM     16  C   UNL     1      -5.644   1.357 129.494  0.00  0.00    +0.000 A 
BRANCH  14  17
ATOM     17  O   UNL     1      -3.193   2.755 127.399  0.00  0.00    +0.000 OA
ATOM     18  C   UNL     1      -2.398   3.927 127.318  0.00  0.00    +0.000 C 
ENDBRANCH  14  17
ENDBRANCH  10  11
BRANCH   1  19
ATOM     19  C   UNL     1      -5.003   0.096 132.735  0.00  0.00    +0.000 C 
BRANCH  19  21
ATOM     20  C   UNL     1      -5.116  -1.845 131.392  0.00  0.00    +0.000 C 
ATOM     21  O   UNL     1      -5.364  -1.288 132.684  0.00  0.00    +0.000 OA
ENDBRANCH  19  21
ENDBRANCH   1  19
BRANCH   8  22
ATOM     22  O   UNL     1     -10.261   5.526 129.542  0.00  0.00    +0.000 OA
BRANCH  22  23
ATOM     23  C   UNL     1     -11.012   6.675 129.780  0.00  0.00    +0.000 A 
ATOM     24  C   UNL     1     -11.828   6.633 130.931  0.00  0.00    +0.000 A 
ATOM     25  C   UNL     1     -12.802   7.621 131.184  0.00  0.00    +0.000 A 
ATOM     26  C   UNL     1     -12.983   8.675 130.301  0.00  0.00    +0.000 A 
ATOM     27  C   UNL     1     -12.201   8.736 129.167  0.00  0.00    +0.000 A 
ATOM     28  C   UNL     1     -11.246   7.743 128.867  0.00  0.00    +0.000 A 
ATOM     29  C   UNL     1     -10.606   8.005 127.534  0.00  0.00    +0.000 C 
ENDBRANCH  22  23
ENDBRANCH   8  22
TORSDOF 6
ENDMDL
MODEL 9
REMARK VINA RESULT:      -7.3      4.568      9.201
REMARK  Name = CHEMBL590097
REMARK  9 active torsions:
REMARK  status: ('A' for Active; 'I' for Inactive)
REMARK    1  A    between atoms: C_1  and  O_2
REMARK    2  A    between atoms: O_2  and  C_3
REMARK    3  A    between atoms: C_3  and  C_4
REMARK    4  A    between atoms: C_11  and  O_12
REMARK    5  A    between atoms: O_12  and  C_13
REMARK    6  A    between atoms: C_18  and  C_19
REMARK    7  A    between atoms: N_21  and  C_22
REMARK    8  A    between atoms: C_25  and  O_26
REMARK    9  A    between atoms: O_26  and  C_27
REMARK                            x       y       z     vdW  Elec       q    Type
REMARK                         _______ _______ _______ _____ _____    ______ ____
ROOT
ATOM      1  C   UNL     1      -8.473   5.099 130.343  0.00  0.00    +0.000 A 
ATOM      2  N   UNL     1      -8.688   5.791 129.233  0.00  0.00    +0.000 NA
ATOM      3  N   UNL     1      -8.410   4.985 128.150  0.00  0.00    +0.000 NA
ATOM      4  C   UNL     1      -8.066   3.775 128.583  0.00  0.00    +0.000 A 
ATOM      5  N   UNL     1      -7.944   2.646 127.840  0.00  0.00    +0.000 N 
ATOM      6  C   UNL     1      -8.570   1.410 128.217  0.00  0.00    +0.000 C 
ATOM      7  C   UNL     1      -7.403   0.463 128.168  0.00  0.00    +0.000 C 
ATOM      8  C   UNL     1      -6.690   0.759 126.879  0.00  0.00    +0.000 C 
ATOM      9  C   UNL     1      -6.842   2.344 126.883  0.00  0.00    +0.000 C 
ATOM     10  N   UNL     1      -8.093   3.824 129.984  0.00  0.00    +0.000 N 
ENDROOT
BRANCH  10  11
ATOM     11  C   UNL     1      -7.742   2.796 130.882  0.00  0.00    +0.000 A 
ATOM     12  C   UNL     1      -6.408   2.473 131.107  0.00  0.00    +0.000 A 
ATOM     13  C   UNL     1      -6.116   1.486 132.043  0.00  0.00    +0.000 A 
ATOM     14  C   UNL     1      -7.161   0.864 132.718  0.00  0.00    +0.000 A 
ATOM     15  N   UNL     1      -8.457   1.182 132.502  0.00  0.00    +0.000 NA
ATOM     16  C   UNL     1      -8.727   2.136 131.583  0.00  0.00    +0.000 A 
BRANCH  14  17
ATOM     17  O   UNL     1      -7.002  -0.108 133.665  0.00  0.00    +0.000 OA
ATOM     18  C   UNL     1      -5.734  -0.745 133.705  0.00  0.00    +0.000 C 
ENDBRANCH  14  17
ENDBRANCH  10  11
BRANCH   1  19
ATOM     19  C   UNL     1      -8.564   5.603 131.748  0.00  0.00    +0.000 C 
BRANCH  19  21
ATOM     20  C   UNL     1     -10.806   6.248 132.120  0.00  0.00    +0.000 C 
ATOM     21  O   UNL     1      -9.490   6.693 131.790  0.00  0.00    +0.000 OA
ENDBRANCH  19  21
ENDBRANCH   1  19
BRANCH   8  22
ATOM     22  O   UNL     1      -7.382   0.103 125.774  0.00  0.00    +0.000 OA
BRANCH  22  23
ATOM     23  C   UNL     1      -7.029  -1.190 125.395  0.00  0.00    +0.000 A 
ATOM     24  C   UNL     1      -5.792  -1.304 124.723  0.00  0.00    +0.000 A 
ATOM     25  C   UNL     1      -5.404  -2.501 124.088  0.00  0.00    +0.000 A 
ATOM     26  C   UNL     1      -6.232  -3.613 124.111  0.00  0.00    +0.000 A 
ATOM     27  C   UNL     1      -7.447  -3.527 124.758  0.00  0.00    +0.000 A 
ATOM     28  C   UNL     1      -7.881  -2.332 125.368  0.00  0.00    +0.000 A 
ATOM     29  C   UNL     1      -9.271  -2.487 125.913  0.00  0.00    +0.000 C 
ENDBRANCH  22  23
ENDBRANCH   8  22
TORSDOF 6
ENDMDL
