MODEL 1
REMARK VINA RESULT:     -10.7      0.000      0.000
REMARK  Name = CHEMBL32187
REMARK  4 active torsions:
REMARK  status: ('A' for Active; 'I' for Inactive)
REMARK    1  A    between atoms: C_1  and  C_2
REMARK    2  A    between atoms: C_8  and  C_9
REMARK    3  A    between atoms: C_13  and  C_14
REMARK    4  A    between atoms: C_19  and  N_20
REMARK                            x       y       z     vdW  Elec       q    Type
REMARK                         _______ _______ _______ _____ _____    ______ ____
ROOT
ATOM      1  C   UNL     1      -3.842   5.796 132.807  0.00  0.00    +0.000 C 
ATOM      2  O   UNL     1      -3.293   4.860 132.230  0.00  0.00    +0.000 OA
ATOM      3  N   UNL     1      -3.117   6.871 133.285  0.00  0.00    +0.000 N 
ATOM      4  C   UNL     1      -2.330   7.668 132.353  0.00  0.00    +0.000 C 
ATOM      5  C   UNL     1      -0.916   7.862 132.860  0.00  0.00    +0.000 C 
ATOM      6  C   UNL     1      -0.910   8.418 134.299  0.00  0.00    +0.000 C 
ATOM      7  C   UNL     1      -1.740   7.513 135.223  0.00  0.00    +0.000 C 
ATOM      8  C   UNL     1      -3.140   7.265 134.688  0.00  0.00    +0.000 C 
ENDROOT
BRANCH   6   9
ATOM      9  N   UNL     1      -1.225   9.885 134.361  0.00  0.00    +0.000 N 
ATOM     10  C   UNL     1      -2.315  10.431 135.043  0.00  0.00    +0.000 C 
ATOM     11  O   UNL     1      -2.718  10.153 136.167  0.00  0.00    +0.000 OA
ATOM     12  O   UNL     1      -3.031  11.312 134.302  0.00  0.00    +0.000 OA
ATOM     13  C   UNL     1      -2.280  12.479 134.045  0.00  0.00    +0.000 C 
ATOM     14  C   UNL     1      -0.925  12.137 133.513  0.00  0.00    +0.000 A 
ATOM     15  C   UNL     1      -0.164  13.138 132.905  0.00  0.00    +0.000 A 
ATOM     16  C   UNL     1       1.108  12.847 132.432  0.00  0.00    +0.000 A 
ATOM     17  C   UNL     1       1.623  11.562 132.576  0.00  0.00    +0.000 A 
ATOM     18  C   UNL     1       0.866  10.558 133.183  0.00  0.00    +0.000 A 
ATOM     19  C   UNL     1      -0.420  10.831 133.654  0.00  0.00    +0.000 A 
ENDBRANCH   6   9
BRANCH   1  24
ATOM     20  C   UNL     1      -9.654   6.429 131.512  0.00  0.00    +0.000 A 
ATOM     21  C   UNL     1      -8.443   6.703 130.911  0.00  0.00    +0.000 A 
ATOM     22  C   UNL     1      -7.447   6.352 131.837  0.00  0.00    +0.000 A 
ATOM     23  C   UNL     1      -6.051   6.224 131.763  0.00  0.00    +0.000 A 
ATOM     24  C   UNL     1      -5.338   5.852 132.911  0.00  0.00    +0.000 A 
ATOM     25  C   UNL     1      -6.034   5.647 134.113  0.00  0.00    +0.000 A 
ATOM     26  C   UNL     1      -7.438   5.708 134.191  0.00  0.00    +0.000 A 
ATOM     27  C   UNL     1      -8.110   6.046 133.020  0.00  0.00    +0.000 A 
ATOM     28  O   UNL     1      -9.469   6.080 132.823  0.00  0.00    +0.000 OA
BRANCH  20  36
ATOM     29  C   UNL     1     -10.498   8.553 127.917  0.00  0.00    +0.000 C 
ATOM     30  C   UNL     1     -10.503   7.188 128.564  0.00  0.00    +0.000 C 
ATOM     31  O   UNL     1      -9.777   6.283 128.161  0.00  0.00    +0.000 OA
ATOM     32  N   UNL     1     -11.255   7.107 129.716  0.00  0.00    +0.000 N 
ATOM     33  C   UNL     1     -12.650   7.503 129.820  0.00  0.00    +0.000 C 
ATOM     34  C   UNL     1     -12.819   7.653 131.315  0.00  0.00    +0.000 C 
ATOM     35  C   UNL     1     -12.064   6.436 131.840  0.00  0.00    +0.000 C 
ATOM     36  C   UNL     1     -10.938   6.191 130.794  0.00  0.00    +0.000 C 
ENDBRANCH  20  36
ENDBRANCH   1  24
TORSDOF 3
ENDMDL
MODEL 2
REMARK VINA RESULT:     -10.6      6.983     10.406
REMARK  Name = CHEMBL32187
REMARK  4 active torsions:
REMARK  status: ('A' for Active; 'I' for Inactive)
REMARK    1  A    between atoms: C_1  and  C_2
REMARK    2  A    between atoms: C_8  and  C_9
REMARK    3  A    between atoms: C_13  and  C_14
REMARK    4  A    between atoms: C_19  and  N_20
REMARK                            x       y       z     vdW  Elec       q    Type
REMARK                         _______ _______ _______ _____ _____    ______ ____
ROOT
ATOM      1  C   UNL     1      -7.219   0.822 131.523  0.00  0.00    +0.000 C 
ATOM      2  O   UNL     1      -6.368   0.753 132.406  0.00  0.00    +0.000 OA
ATOM      3  N   UNL     1      -7.952   1.976 131.320  0.00  0.00    +0.000 N 
ATOM      4  C   UNL     1      -7.254   3.213 130.998  0.00  0.00    +0.000 C 
ATOM      5  C   UNL     1      -7.723   4.351 131.882  0.00  0.00    +0.000 C 
ATOM      6  C   UNL     1      -9.260   4.486 131.849  0.00  0.00    +0.000 C 
ATOM      7  C   UNL     1      -9.920   3.150 132.221  0.00  0.00    +0.000 C 
ATOM      8  C   UNL     1      -9.409   1.994 131.378  0.00  0.00    +0.000 C 
ENDROOT
BRANCH   6   9
ATOM      9  N   UNL     1      -9.762   5.141 130.595  0.00  0.00    +0.000 N 
ATOM     10  C   UNL     1      -9.292   4.854 129.311  0.00  0.00    +0.000 C 
ATOM     11  O   UNL     1      -9.070   3.754 128.817  0.00  0.00    +0.000 OA
ATOM     12  O   UNL     1      -8.980   5.958 128.589  0.00  0.00    +0.000 OA
ATOM     13  C   UNL     1     -10.141   6.697 128.276  0.00  0.00    +0.000 C 
ATOM     14  C   UNL     1     -10.970   6.936 129.499  0.00  0.00    +0.000 A 
ATOM     15  C   UNL     1     -11.974   7.904 129.457  0.00  0.00    +0.000 A 
ATOM     16  C   UNL     1     -12.773   8.119 130.571  0.00  0.00    +0.000 A 
ATOM     17  C   UNL     1     -12.576   7.359 131.721  0.00  0.00    +0.000 A 
ATOM     18  C   UNL     1     -11.573   6.389 131.767  0.00  0.00    +0.000 A 
ATOM     19  C   UNL     1     -10.753   6.168 130.658  0.00  0.00    +0.000 A 
ENDBRANCH   6   9
BRANCH   1  24
ATOM     20  C   UNL     1      -7.935  -2.386 126.518  0.00  0.00    +0.000 A 
ATOM     21  C   UNL     1      -7.957  -1.056 126.885  0.00  0.00    +0.000 A 
ATOM     22  C   UNL     1      -7.779  -1.021 128.278  0.00  0.00    +0.000 A 
ATOM     23  C   UNL     1      -7.533   0.006 129.202  0.00  0.00    +0.000 A 
ATOM     24  C   UNL     1      -7.411  -0.313 130.561  0.00  0.00    +0.000 A 
ATOM     25  C   UNL     1      -7.568  -1.648 130.967  0.00  0.00    +0.000 A 
ATOM     26  C   UNL     1      -7.750  -2.699 130.050  0.00  0.00    +0.000 A 
ATOM     27  C   UNL     1      -7.831  -2.343 128.707  0.00  0.00    +0.000 A 
ATOM     28  O   UNL     1      -7.915  -3.188 127.628  0.00  0.00    +0.000 OA
BRANCH  20  36
ATOM     29  C   UNL     1      -6.972   0.349 123.396  0.00  0.00    +0.000 C 
ATOM     30  C   UNL     1      -6.554  -0.936 124.073  0.00  0.00    +0.000 C 
ATOM     31  O   UNL     1      -5.483  -1.029 124.669  0.00  0.00    +0.000 OA
ATOM     32  N   UNL     1      -7.528  -1.909 124.098  0.00  0.00    +0.000 N 
ATOM     33  C   UNL     1      -8.239  -2.396 122.926  0.00  0.00    +0.000 C 
ATOM     34  C   UNL     1      -9.448  -3.056 123.549  0.00  0.00    +0.000 C 
ATOM     35  C   UNL     1      -8.831  -3.783 124.740  0.00  0.00    +0.000 C 
ATOM     36  C   UNL     1      -7.620  -2.898 125.154  0.00  0.00    +0.000 C 
ENDBRANCH  20  36
ENDBRANCH   1  24
TORSDOF 3
ENDMDL
MODEL 3
REMARK VINA RESULT:     -10.5      6.083      9.854
REMARK  Name = CHEMBL32187
REMARK  4 active torsions:
REMARK  status: ('A' for Active; 'I' for Inactive)
REMARK    1  A    between atoms: C_1  and  C_2
REMARK    2  A    between atoms: C_8  and  C_9
REMARK    3  A    between atoms: C_13  and  C_14
REMARK    4  A    between atoms: C_19  and  N_20
REMARK                            x       y       z     vdW  Elec       q    Type
REMARK                         _______ _______ _______ _____ _____    ______ ____
ROOT
ATOM      1  C   UNL     1      -7.118   3.264 132.470  0.00  0.00    +0.000 C 
ATOM      2  O   UNL     1      -6.240   3.655 133.236  0.00  0.00    +0.000 OA
ATOM      3  N   UNL     1      -7.964   4.152 131.833  0.00  0.00    +0.000 N 
ATOM      4  C   UNL     1      -7.397   5.168 130.957  0.00  0.00    +0.000 C 
ATOM      5  C   UNL     1      -7.948   6.541 131.284  0.00  0.00    +0.000 C 
ATOM      6  C   UNL     1      -9.491   6.533 131.298  0.00  0.00    +0.000 C 
ATOM      7  C   UNL     1     -10.010   5.453 132.259  0.00  0.00    +0.000 C 
ATOM      8  C   UNL     1      -9.413   4.086 131.974  0.00  0.00    +0.000 C 
ENDROOT
BRANCH   6   9
ATOM      9  N   UNL     1     -10.088   6.528 129.920  0.00  0.00    +0.000 N 
ATOM     10  C   UNL     1      -9.670   5.692 128.881  0.00  0.00    +0.000 C 
ATOM     11  O   UNL     1      -9.421   4.493 128.932  0.00  0.00    +0.000 OA
ATOM     12  O   UNL     1      -9.450   6.346 127.715  0.00  0.00    +0.000 OA
ATOM     13  C   UNL     1     -10.659   6.837 127.177  0.00  0.00    +0.000 C 
ATOM     14  C   UNL     1     -11.435   7.594 128.208  0.00  0.00    +0.000 A 
ATOM     15  C   UNL     1     -12.486   8.416 127.795  0.00  0.00    +0.000 A 
ATOM     16  C   UNL     1     -13.236   9.103 128.739  0.00  0.00    +0.000 A 
ATOM     17  C   UNL     1     -12.944   8.961 130.093  0.00  0.00    +0.000 A 
ATOM     18  C   UNL     1     -11.895   8.140 130.510  0.00  0.00    +0.000 A 
ATOM     19  C   UNL     1     -11.123   7.451 129.573  0.00  0.00    +0.000 A 
ENDBRANCH   6   9
BRANCH   1  24
ATOM     20  C   UNL     1      -7.740  -1.863 129.439  0.00  0.00    +0.000 A 
ATOM     21  C   UNL     1      -7.907  -0.514 129.201  0.00  0.00    +0.000 A 
ATOM     22  C   UNL     1      -7.646   0.144 130.414  0.00  0.00    +0.000 A 
ATOM     23  C   UNL     1      -7.473   1.489 130.774  0.00  0.00    +0.000 A 
ATOM     24  C   UNL     1      -7.226   1.810 132.116  0.00  0.00    +0.000 A 
ATOM     25  C   UNL     1      -7.187   0.780 133.070  0.00  0.00    +0.000 A 
ATOM     26  C   UNL     1      -7.294  -0.578 132.718  0.00  0.00    +0.000 A 
ATOM     27  C   UNL     1      -7.504  -0.855 131.371  0.00  0.00    +0.000 A 
ATOM     28  O   UNL     1      -7.549  -2.092 130.775  0.00  0.00    +0.000 OA
BRANCH  20  36
ATOM     29  C   UNL     1      -5.504  -0.805 125.970  0.00  0.00    +0.000 C 
ATOM     30  C   UNL     1      -5.645  -1.828 127.073  0.00  0.00    +0.000 C 
ATOM     31  O   UNL     1      -4.758  -2.001 127.905  0.00  0.00    +0.000 OA
ATOM     32  N   UNL     1      -6.890  -2.411 127.153  0.00  0.00    +0.000 N 
ATOM     33  C   UNL     1      -7.571  -3.060 126.043  0.00  0.00    +0.000 C 
ATOM     34  C   UNL     1      -9.002  -3.086 126.529  0.00  0.00    +0.000 C 
ATOM     35  C   UNL     1      -8.830  -3.485 127.991  0.00  0.00    +0.000 C 
ATOM     36  C   UNL     1      -7.451  -2.892 128.400  0.00  0.00    +0.000 C 
ENDBRANCH  20  36
ENDBRANCH   1  24
TORSDOF 3
ENDMDL
MODEL 4
REMARK VINA RESULT:     -10.2      5.401      9.677
REMARK  Name = CHEMBL32187
REMARK  4 active torsions:
REMARK  status: ('A' for Active; 'I' for Inactive)
REMARK    1  A    between atoms: C_1  and  C_2
REMARK    2  A    between atoms: C_8  and  C_9
REMARK    3  A    between atoms: C_13  and  C_14
REMARK    4  A    between atoms: C_19  and  N_20
REMARK                            x       y       z     vdW  Elec       q    Type
REMARK                         _______ _______ _______ _____ _____    ______ ____
ROOT
ATOM      1  C   UNL     1      -7.254   3.401 133.233  0.00  0.00    +0.000 C 
ATOM      2  O   UNL     1      -6.971   2.240 132.949  0.00  0.00    +0.000 OA
ATOM      3  N   UNL     1      -8.096   4.153 132.435  0.00  0.00    +0.000 N 
ATOM      4  C   UNL     1      -9.456   3.686 132.201  0.00  0.00    +0.000 C 
ATOM      5  C   UNL     1      -9.793   3.705 130.724  0.00  0.00    +0.000 C 
ATOM      6  C   UNL     1      -9.502   5.088 130.104  0.00  0.00    +0.000 C 
ATOM      7  C   UNL     1      -8.047   5.498 130.374  0.00  0.00    +0.000 C 
ATOM      8  C   UNL     1      -7.685   5.421 131.847  0.00  0.00    +0.000 C 
ENDROOT
BRANCH   6   9
ATOM      9  N   UNL     1     -10.547   6.112 130.443  0.00  0.00    +0.000 N 
ATOM     10  C   UNL     1     -11.008   6.372 131.736  0.00  0.00    +0.000 C 
ATOM     11  O   UNL     1     -10.347   6.500 132.761  0.00  0.00    +0.000 OA
ATOM     12  O   UNL     1     -12.359   6.398 131.834  0.00  0.00    +0.000 OA
ATOM     13  C   UNL     1     -12.892   7.508 131.146  0.00  0.00    +0.000 C 
ATOM     14  C   UNL     1     -12.342   7.590 129.757  0.00  0.00    +0.000 A 
ATOM     15  C   UNL     1     -12.977   8.415 128.825  0.00  0.00    +0.000 A 
ATOM     16  C   UNL     1     -12.464   8.528 127.541  0.00  0.00    +0.000 A 
ATOM     17  C   UNL     1     -11.314   7.826 127.190  0.00  0.00    +0.000 A 
ATOM     18  C   UNL     1     -10.676   7.001 128.119  0.00  0.00    +0.000 A 
ATOM     19  C   UNL     1     -11.185   6.868 129.412  0.00  0.00    +0.000 A 
ENDBRANCH   6   9
BRANCH   1  24
ATOM     20  C   UNL     1      -6.935   6.602 138.284  0.00  0.00    +0.000 A 
ATOM     21  C   UNL     1      -7.743   6.543 137.167  0.00  0.00    +0.000 A 
ATOM     22  C   UNL     1      -7.181   5.578 136.315  0.00  0.00    +0.000 A 
ATOM     23  C   UNL     1      -7.617   4.942 135.143  0.00  0.00    +0.000 A 
ATOM     24  C   UNL     1      -6.780   4.005 134.522  0.00  0.00    +0.000 A 
ATOM     25  C   UNL     1      -5.514   3.748 135.073  0.00  0.00    +0.000 A 
ATOM     26  C   UNL     1      -5.085   4.328 136.282  0.00  0.00    +0.000 A 
ATOM     27  C   UNL     1      -5.961   5.226 136.883  0.00  0.00    +0.000 A 
ATOM     28  O   UNL     1      -5.810   5.844 138.100  0.00  0.00    +0.000 OA
BRANCH  20  36
ATOM     29  C   UNL     1      -7.146  10.797 139.002  0.00  0.00    +0.000 C 
ATOM     30  C   UNL     1      -7.880   9.486 139.166  0.00  0.00    +0.000 C 
ATOM     31  O   UNL     1      -8.947   9.271 138.595  0.00  0.00    +0.000 OA
ATOM     32  N   UNL     1      -7.180   8.525 139.862  0.00  0.00    +0.000 N 
ATOM     33  C   UNL     1      -6.600   8.720 141.181  0.00  0.00    +0.000 C 
ATOM     34  C   UNL     1      -5.602   7.587 141.252  0.00  0.00    +0.000 C 
ATOM     35  C   UNL     1      -6.395   6.432 140.650  0.00  0.00    +0.000 C 
ATOM     36  C   UNL     1      -7.352   7.106 139.623  0.00  0.00    +0.000 C 
ENDBRANCH  20  36
ENDBRANCH   1  24
TORSDOF 3
ENDMDL
MODEL 5
REMARK VINA RESULT:     -10.2      7.298     11.598
REMARK  Name = CHEMBL32187
REMARK  4 active torsions:
REMARK  status: ('A' for Active; 'I' for Inactive)
REMARK    1  A    between atoms: C_1  and  C_2
REMARK    2  A    between atoms: C_8  and  C_9
REMARK    3  A    between atoms: C_13  and  C_14
REMARK    4  A    between atoms: C_19  and  N_20
REMARK                            x       y       z     vdW  Elec       q    Type
REMARK                         _______ _______ _______ _____ _____    ______ ____
ROOT
ATOM      1  C   UNL     1      -7.639  -1.158 131.523  0.00  0.00    +0.000 C 
ATOM      2  O   UNL     1      -7.585  -2.126 132.279  0.00  0.00    +0.000 OA
ATOM      3  N   UNL     1      -7.402  -1.290 130.168  0.00  0.00    +0.000 N 
ATOM      4  C   UNL     1      -8.245  -2.182 129.383  0.00  0.00    +0.000 C 
ATOM      5  C   UNL     1      -7.409  -3.114 128.530  0.00  0.00    +0.000 C 
ATOM      6  C   UNL     1      -6.389  -2.327 127.681  0.00  0.00    +0.000 C 
ATOM      7  C   UNL     1      -5.525  -1.430 128.581  0.00  0.00    +0.000 C 
ATOM      8  C   UNL     1      -6.360  -0.537 129.482  0.00  0.00    +0.000 C 
ENDROOT
BRANCH   6   9
ATOM      9  N   UNL     1      -7.012  -1.659 126.490  0.00  0.00    +0.000 N 
ATOM     10  C   UNL     1      -8.043  -0.718 126.562  0.00  0.00    +0.000 C 
ATOM     11  O   UNL     1      -8.144   0.234 127.327  0.00  0.00    +0.000 OA
ATOM     12  O   UNL     1      -9.071  -0.978 125.718  0.00  0.00    +0.000 OA
ATOM     13  C   UNL     1      -8.672  -0.817 124.374  0.00  0.00    +0.000 C 
ATOM     14  C   UNL     1      -7.406  -1.564 124.099  0.00  0.00    +0.000 A 
ATOM     15  C   UNL     1      -7.027  -1.790 122.774  0.00  0.00    +0.000 A 
ATOM     16  C   UNL     1      -5.841  -2.454 122.499  0.00  0.00    +0.000 A 
ATOM     17  C   UNL     1      -5.028  -2.882 123.544  0.00  0.00    +0.000 A 
ATOM     18  C   UNL     1      -5.402  -2.657 124.871  0.00  0.00    +0.000 A 
ATOM     19  C   UNL     1      -6.598  -2.000 125.165  0.00  0.00    +0.000 A 
ENDBRANCH   6   9
BRANCH   1  24
ATOM     20  C   UNL     1      -7.769   4.159 134.275  0.00  0.00    +0.000 A 
ATOM     21  C   UNL     1      -6.967   3.036 134.270  0.00  0.00    +0.000 A 
ATOM     22  C   UNL     1      -7.584   2.105 133.418  0.00  0.00    +0.000 A 
ATOM     23  C   UNL     1      -7.186   0.878 132.865  0.00  0.00    +0.000 A 
ATOM     24  C   UNL     1      -8.077   0.182 132.035  0.00  0.00    +0.000 A 
ATOM     25  C   UNL     1      -9.354   0.716 131.803  0.00  0.00    +0.000 A 
ATOM     26  C   UNL     1      -9.747   1.975 132.295  0.00  0.00    +0.000 A 
ATOM     27  C   UNL     1      -8.821   2.648 133.086  0.00  0.00    +0.000 A 
ATOM     28  O   UNL     1      -8.935   3.916 133.600  0.00  0.00    +0.000 OA
BRANCH  20  36
ATOM     29  C   UNL     1      -3.813   5.421 133.318  0.00  0.00    +0.000 C 
ATOM     30  C   UNL     1      -5.272   5.811 133.263  0.00  0.00    +0.000 C 
ATOM     31  O   UNL     1      -5.855   5.968 132.193  0.00  0.00    +0.000 OA
ATOM     32  N   UNL     1      -5.907   5.813 134.485  0.00  0.00    +0.000 N 
ATOM     33  C   UNL     1      -5.439   6.537 135.657  0.00  0.00    +0.000 C 
ATOM     34  C   UNL     1      -6.190   5.842 136.770  0.00  0.00    +0.000 C 
ATOM     35  C   UNL     1      -7.579   5.683 136.161  0.00  0.00    +0.000 C 
ATOM     36  C   UNL     1      -7.322   5.535 134.633  0.00  0.00    +0.000 C 
ENDBRANCH  20  36
ENDBRANCH   1  24
TORSDOF 3
ENDMDL
MODEL 6
REMARK VINA RESULT:     -10.1      7.242      9.865
REMARK  Name = CHEMBL32187
REMARK  4 active torsions:
REMARK  status: ('A' for Active; 'I' for Inactive)
REMARK    1  A    between atoms: C_1  and  C_2
REMARK    2  A    between atoms: C_8  and  C_9
REMARK    3  A    between atoms: C_13  and  C_14
REMARK    4  A    between atoms: C_19  and  N_20
REMARK                            x       y       z     vdW  Elec       q    Type
REMARK                         _______ _______ _______ _____ _____    ______ ____
ROOT
ATOM      1  C   UNL     1      -7.629  -0.490 132.389  0.00  0.00    +0.000 C 
ATOM      2  O   UNL     1      -7.450  -1.152 133.409  0.00  0.00    +0.000 OA
ATOM      3  N   UNL     1      -7.743   0.886 132.436  0.00  0.00    +0.000 N 
ATOM      4  C   UNL     1      -6.641   1.673 132.972  0.00  0.00    +0.000 C 
ATOM      5  C   UNL     1      -7.131   2.670 134.003  0.00  0.00    +0.000 C 
ATOM      6  C   UNL     1      -8.283   3.529 133.442  0.00  0.00    +0.000 C 
ATOM      7  C   UNL     1      -9.413   2.631 132.917  0.00  0.00    +0.000 C 
ATOM      8  C   UNL     1      -8.916   1.588 131.930  0.00  0.00    +0.000 C 
ENDROOT
BRANCH   6   9
ATOM      9  N   UNL     1      -7.809   4.602 132.504  0.00  0.00    +0.000 N 
ATOM     10  C   UNL     1      -6.469   4.947 132.312  0.00  0.00    +0.000 C 
ATOM     11  O   UNL     1      -5.510   4.197 132.165  0.00  0.00    +0.000 OA
ATOM     12  O   UNL     1      -6.237   6.280 132.385  0.00  0.00    +0.000 OA
ATOM     13  C   UNL     1      -6.832   6.954 131.297  0.00  0.00    +0.000 C 
ATOM     14  C   UNL     1      -8.265   6.554 131.139  0.00  0.00    +0.000 A 
ATOM     15  C   UNL     1      -9.101   7.333 130.337  0.00  0.00    +0.000 A 
ATOM     16  C   UNL     1     -10.425   6.961 130.154  0.00  0.00    +0.000 A 
ATOM     17  C   UNL     1     -10.911   5.807 130.762  0.00  0.00    +0.000 A 
ATOM     18  C   UNL     1     -10.078   5.024 131.564  0.00  0.00    +0.000 A 
ATOM     19  C   UNL     1      -8.746   5.391 131.768  0.00  0.00    +0.000 A 
ENDBRANCH   6   9
BRANCH   1  24
ATOM     20  C   UNL     1      -7.503  -1.448 126.479  0.00  0.00    +0.000 A 
ATOM     21  C   UNL     1      -7.674  -0.378 127.333  0.00  0.00    +0.000 A 
ATOM     22  C   UNL     1      -7.661  -0.897 128.637  0.00  0.00    +0.000 A 
ATOM     23  C   UNL     1      -7.607  -0.318 129.915  0.00  0.00    +0.000 A 
ATOM     24  C   UNL     1      -7.617  -1.151 131.042  0.00  0.00    +0.000 A 
ATOM     25  C   UNL     1      -7.712  -2.541 130.866  0.00  0.00    +0.000 A 
ATOM     26  C   UNL     1      -7.703  -3.142 129.593  0.00  0.00    +0.000 A 
ATOM     27  C   UNL     1      -7.657  -2.281 128.501  0.00  0.00    +0.000 A 
ATOM     28  O   UNL     1      -7.547  -2.626 127.176  0.00  0.00    +0.000 OA
BRANCH  20  36
ATOM     29  C   UNL     1      -9.602  -3.409 123.333  0.00  0.00    +0.000 C 
ATOM     30  C   UNL     1      -8.946  -2.113 123.747  0.00  0.00    +0.000 C 
ATOM     31  O   UNL     1      -9.594  -1.078 123.880  0.00  0.00    +0.000 OA
ATOM     32  N   UNL     1      -7.623  -2.236 124.110  0.00  0.00    +0.000 N 
ATOM     33  C   UNL     1      -6.594  -2.852 123.286  0.00  0.00    +0.000 C 
ATOM     34  C   UNL     1      -5.512  -3.136 124.302  0.00  0.00    +0.000 C 
ATOM     35  C   UNL     1      -5.518  -1.858 125.134  0.00  0.00    +0.000 C 
ATOM     36  C   UNL     1      -6.993  -1.363 125.082  0.00  0.00    +0.000 C 
ENDBRANCH  20  36
ENDBRANCH   1  24
TORSDOF 3
ENDMDL
MODEL 7
REMARK VINA RESULT:     -10.1      7.047      9.151
REMARK  Name = CHEMBL32187
REMARK  4 active torsions:
REMARK  status: ('A' for Active; 'I' for Inactive)
REMARK    1  A    between atoms: C_1  and  C_2
REMARK    2  A    between atoms: C_8  and  C_9
REMARK    3  A    between atoms: C_13  and  C_14
REMARK    4  A    between atoms: C_19  and  N_20
REMARK                            x       y       z     vdW  Elec       q    Type
REMARK                         _______ _______ _______ _____ _____    ______ ____
ROOT
ATOM      1  C   UNL     1      -7.589  -0.423 132.360  0.00  0.00    +0.000 C 
ATOM      2  O   UNL     1      -7.467  -1.162 133.335  0.00  0.00    +0.000 OA
ATOM      3  N   UNL     1      -7.580   0.952 132.495  0.00  0.00    +0.000 N 
ATOM      4  C   UNL     1      -6.410   1.601 133.070  0.00  0.00    +0.000 C 
ATOM      5  C   UNL     1      -6.806   2.571 134.165  0.00  0.00    +0.000 C 
ATOM      6  C   UNL     1      -7.878   3.564 133.669  0.00  0.00    +0.000 C 
ATOM      7  C   UNL     1      -9.085   2.804 133.099  0.00  0.00    +0.000 C 
ATOM      8  C   UNL     1      -8.686   1.787 132.044  0.00  0.00    +0.000 C 
ENDROOT
BRANCH   6   9
ATOM      9  N   UNL     1      -7.312   4.647 132.797  0.00  0.00    +0.000 N 
ATOM     10  C   UNL     1      -7.879   5.067 131.591  0.00  0.00    +0.000 C 
ATOM     11  O   UNL     1      -9.059   5.295 131.351  0.00  0.00    +0.000 OA
ATOM     12  O   UNL     1      -6.989   5.141 130.572  0.00  0.00    +0.000 OA
ATOM     13  C   UNL     1      -6.058   6.178 130.791  0.00  0.00    +0.000 C 
ATOM     14  C   UNL     1      -5.465   6.085 132.161  0.00  0.00    +0.000 A 
ATOM     15  C   UNL     1      -4.310   6.814 132.450  0.00  0.00    +0.000 A 
ATOM     16  C   UNL     1      -3.763   6.763 133.724  0.00  0.00    +0.000 A 
ATOM     17  C   UNL     1      -4.375   5.996 134.712  0.00  0.00    +0.000 A 
ATOM     18  C   UNL     1      -5.531   5.266 134.427  0.00  0.00    +0.000 A 
ATOM     19  C   UNL     1      -6.088   5.297 133.147  0.00  0.00    +0.000 A 
ENDBRANCH   6   9
BRANCH   1  24
ATOM     20  C   UNL     1      -7.536  -1.016 126.402  0.00  0.00    +0.000 A 
ATOM     21  C   UNL     1      -7.598   0.011 127.321  0.00  0.00    +0.000 A 
ATOM     22  C   UNL     1      -7.645  -0.587 128.590  0.00  0.00    +0.000 A 
ATOM     23  C   UNL     1      -7.537  -0.099 129.902  0.00  0.00    +0.000 A 
ATOM     24  C   UNL     1      -7.640  -0.996 130.975  0.00  0.00    +0.000 A 
ATOM     25  C   UNL     1      -7.880  -2.354 130.711  0.00  0.00    +0.000 A 
ATOM     26  C   UNL     1      -7.928  -2.871 129.403  0.00  0.00    +0.000 A 
ATOM     27  C   UNL     1      -7.786  -1.953 128.367  0.00  0.00    +0.000 A 
ATOM     28  O   UNL     1      -7.707  -2.224 127.023  0.00  0.00    +0.000 OA
BRANCH  20  36
ATOM     29  C   UNL     1      -9.420  -3.159 123.237  0.00  0.00    +0.000 C 
ATOM     30  C   UNL     1      -8.877  -1.811 123.653  0.00  0.00    +0.000 C 
ATOM     31  O   UNL     1      -9.610  -0.831 123.768  0.00  0.00    +0.000 OA
ATOM     32  N   UNL     1      -7.554  -1.824 124.036  0.00  0.00    +0.000 N 
ATOM     33  C   UNL     1      -6.467  -2.358 123.232  0.00  0.00    +0.000 C 
ATOM     34  C   UNL     1      -5.381  -2.548 124.266  0.00  0.00    +0.000 C 
ATOM     35  C   UNL     1      -5.504  -1.270 125.089  0.00  0.00    +0.000 C 
ATOM     36  C   UNL     1      -7.013  -0.897 125.011  0.00  0.00    +0.000 C 
ENDBRANCH  20  36
ENDBRANCH   1  24
TORSDOF 3
ENDMDL
MODEL 8
REMARK VINA RESULT:      -9.9      7.392      9.093
REMARK  Name = CHEMBL32187
REMARK  4 active torsions:
REMARK  status: ('A' for Active; 'I' for Inactive)
REMARK    1  A    between atoms: C_1  and  C_2
REMARK    2  A    between atoms: C_8  and  C_9
REMARK    3  A    between atoms: C_13  and  C_14
REMARK    4  A    between atoms: C_19  and  N_20
REMARK                            x       y       z     vdW  Elec       q    Type
REMARK                         _______ _______ _______ _____ _____    ______ ____
ROOT
ATOM      1  C   UNL     1      -5.560  -1.641 131.504  0.00  0.00    +0.000 C 
ATOM      2  O   UNL     1      -4.942  -2.501 132.127  0.00  0.00    +0.000 OA
ATOM      3  N   UNL     1      -5.439  -0.300 131.815  0.00  0.00    +0.000 N 
ATOM      4  C   UNL     1      -4.127   0.330 131.744  0.00  0.00    +0.000 C 
ATOM      5  C   UNL     1      -3.827   1.110 133.008  0.00  0.00    +0.000 C 
ATOM      6  C   UNL     1      -4.965   2.098 133.337  0.00  0.00    +0.000 C 
ATOM      7  C   UNL     1      -6.308   1.356 133.416  0.00  0.00    +0.000 C 
ATOM      8  C   UNL     1      -6.586   0.523 132.177  0.00  0.00    +0.000 C 
ENDROOT
BRANCH   6   9
ATOM      9  N   UNL     1      -4.943   3.325 132.471  0.00  0.00    +0.000 N 
ATOM     10  C   UNL     1      -6.060   3.851 131.818  0.00  0.00    +0.000 C 
ATOM     11  O   UNL     1      -7.189   4.016 132.267  0.00  0.00    +0.000 OA
ATOM     12  O   UNL     1      -5.843   4.124 130.509  0.00  0.00    +0.000 OA
ATOM     13  C   UNL     1      -4.934   5.193 130.362  0.00  0.00    +0.000 C 
ATOM     14  C   UNL     1      -3.708   4.971 131.189  0.00  0.00    +0.000 A 
ATOM     15  C   UNL     1      -2.572   5.744 130.937  0.00  0.00    +0.000 A 
ATOM     16  C   UNL     1      -1.435   5.573 131.713  0.00  0.00    +0.000 A 
ATOM     17  C   UNL     1      -1.435   4.640 132.746  0.00  0.00    +0.000 A 
ATOM     18  C   UNL     1      -2.569   3.866 133.002  0.00  0.00    +0.000 A 
ATOM     19  C   UNL     1      -3.718   4.017 132.223  0.00  0.00    +0.000 A 
ENDBRANCH   6   9
BRANCH   1  24
ATOM     20  C   UNL     1      -7.735  -2.006 125.936  0.00  0.00    +0.000 A 
ATOM     21  C   UNL     1      -6.855  -1.205 126.634  0.00  0.00    +0.000 A 
ATOM     22  C   UNL     1      -6.870  -1.653 127.964  0.00  0.00    +0.000 A 
ATOM     23  C   UNL     1      -6.081  -1.380 129.093  0.00  0.00    +0.000 A 
ATOM     24  C   UNL     1      -6.382  -2.015 130.306  0.00  0.00    +0.000 A 
ATOM     25  C   UNL     1      -7.483  -2.884 130.369  0.00  0.00    +0.000 A 
ATOM     26  C   UNL     1      -8.245  -3.219 129.234  0.00  0.00    +0.000 A 
ATOM     27  C   UNL     1      -7.891  -2.594 128.042  0.00  0.00    +0.000 A 
ATOM     28  O   UNL     1      -8.419  -2.824 126.796  0.00  0.00    +0.000 OA
BRANCH  20  36
ATOM     29  C   UNL     1      -9.614   0.804 123.343  0.00  0.00    +0.000 C 
ATOM     30  C   UNL     1      -8.358  -0.004 123.572  0.00  0.00    +0.000 C 
ATOM     31  O   UNL     1      -7.277   0.538 123.794  0.00  0.00    +0.000 OA
ATOM     32  N   UNL     1      -8.564  -1.362 123.668  0.00  0.00    +0.000 N 
ATOM     33  C   UNL     1      -9.268  -2.162 122.678  0.00  0.00    +0.000 C 
ATOM     34  C   UNL     1      -9.604  -3.407 123.467  0.00  0.00    +0.000 C 
ATOM     35  C   UNL     1      -8.311  -3.649 124.238  0.00  0.00    +0.000 C 
ATOM     36  C   UNL     1      -7.717  -2.228 124.463  0.00  0.00    +0.000 C 
ENDBRANCH  20  36
ENDBRANCH   1  24
TORSDOF 3
ENDMDL
MODEL 9
REMARK VINA RESULT:      -9.9      6.354      7.876
REMARK  Name = CHEMBL32187
REMARK  4 active torsions:
REMARK  status: ('A' for Active; 'I' for Inactive)
REMARK    1  A    between atoms: C_1  and  C_2
REMARK    2  A    between atoms: C_8  and  C_9
REMARK    3  A    between atoms: C_13  and  C_14
REMARK    4  A    between atoms: C_19  and  N_20
REMARK                            x       y       z     vdW  Elec       q    Type
REMARK                         _______ _______ _______ _____ _____    ______ ____
ROOT
ATOM      1  C   UNL     1      -7.646   2.719 131.544  0.00  0.00    +0.000 C 
ATOM      2  O   UNL     1      -8.180   2.280 132.559  0.00  0.00    +0.000 OA
ATOM      3  N   UNL     1      -6.788   3.801 131.592  0.00  0.00    +0.000 N 
ATOM      4  C   UNL     1      -5.584   3.715 132.408  0.00  0.00    +0.000 C 
ATOM      5  C   UNL     1      -5.444   4.929 133.304  0.00  0.00    +0.000 C 
ATOM      6  C   UNL     1      -5.544   6.237 132.491  0.00  0.00    +0.000 C 
ATOM      7  C   UNL     1      -6.847   6.261 131.678  0.00  0.00    +0.000 C 
ATOM      8  C   UNL     1      -7.022   5.017 130.824  0.00  0.00    +0.000 C 
ENDROOT
BRANCH   6   9
ATOM      9  N   UNL     1      -4.288   6.549 131.730  0.00  0.00    +0.000 N 
ATOM     10  C   UNL     1      -4.235   6.770 130.351  0.00  0.00    +0.000 C 
ATOM     11  O   UNL     1      -4.989   7.452 129.667  0.00  0.00    +0.000 OA
ATOM     12  O   UNL     1      -3.265   6.059 129.726  0.00  0.00    +0.000 OA
ATOM     13  C   UNL     1      -1.984   6.513 130.107  0.00  0.00    +0.000 C 
ATOM     14  C   UNL     1      -1.867   6.597 131.596  0.00  0.00    +0.000 A 
ATOM     15  C   UNL     1      -0.600   6.715 132.170  0.00  0.00    +0.000 A 
ATOM     16  C   UNL     1      -0.473   6.825 133.547  0.00  0.00    +0.000 A 
ATOM     17  C   UNL     1      -1.611   6.829 134.349  0.00  0.00    +0.000 A 
ATOM     18  C   UNL     1      -2.881   6.712 133.780  0.00  0.00    +0.000 A 
ATOM     19  C   UNL     1      -3.025   6.589 132.396  0.00  0.00    +0.000 A 
ENDBRANCH   6   9
BRANCH   1  24
ATOM     20  C   UNL     1      -7.237  -1.209 127.042  0.00  0.00    +0.000 A 
ATOM     21  C   UNL     1      -6.583  -0.951 128.229  0.00  0.00    +0.000 A 
ATOM     22  C   UNL     1      -7.174   0.201 128.772  0.00  0.00    +0.000 A 
ATOM     23  C   UNL     1      -7.084   0.849 130.014  0.00  0.00    +0.000 A 
ATOM     24  C   UNL     1      -7.825   2.020 130.228  0.00  0.00    +0.000 A 
ATOM     25  C   UNL     1      -8.614   2.531 129.185  0.00  0.00    +0.000 A 
ATOM     26  C   UNL     1      -8.766   1.862 127.957  0.00  0.00    +0.000 A 
ATOM     27  C   UNL     1      -8.040   0.685 127.797  0.00  0.00    +0.000 A 
ATOM     28  O   UNL     1      -8.092  -0.185 126.736  0.00  0.00    +0.000 OA
BRANCH  20  36
ATOM     29  C   UNL     1      -6.655  -1.454 122.828  0.00  0.00    +0.000 C 
ATOM     30  C   UNL     1      -6.261  -2.055 124.158  0.00  0.00    +0.000 C 
ATOM     31  O   UNL     1      -5.105  -1.997 124.571  0.00  0.00    +0.000 OA
ATOM     32  N   UNL     1      -7.319  -2.513 124.911  0.00  0.00    +0.000 N 
ATOM     33  C   UNL     1      -8.325  -3.450 124.437  0.00  0.00    +0.000 C 
ATOM     34  C   UNL     1      -9.439  -3.240 125.437  0.00  0.00    +0.000 C 
ATOM     35  C   UNL     1      -8.670  -3.153 126.751  0.00  0.00    +0.000 C 
ATOM     36  C   UNL     1      -7.297  -2.533 126.360  0.00  0.00    +0.000 C 
ENDBRANCH  20  36
ENDBRANCH   1  24
TORSDOF 3
ENDMDL
