MODEL 1
REMARK VINA RESULT:     -11.2      0.000      0.000
REMARK  Name = CHEMBL1790729
REMARK  26 active torsions:
REMARK  status: ('A' for Active; 'I' for Inactive)
REMARK    1  A    between atoms: C_1  and  C_2
REMARK    2  A    between atoms: C_2  and  C_3
REMARK    3  A    between atoms: C_3  and  C_4
REMARK    4  A    between atoms: C_3  and  C_5
REMARK    5  A    between atoms: C_9  and  C_10
REMARK    6  A    between atoms: C_13  and  O_14
REMARK    7  A    between atoms: C_20  and  O_21
REMARK    8  A    between atoms: C_26  and  C_27
REMARK    9  A    between atoms: C_33  and  C_34
REMARK   10  A    between atoms: N_36  and  C_37
REMARK   11  A    between atoms: C_37  and  C_38
REMARK   12  A    between atoms: C_37  and  C_70
REMARK   13  A    between atoms: C_38  and  C_39
REMARK   14  A    between atoms: C_39  and  C_40
REMARK   15  A    between atoms: C_40  and  C_41
REMARK   16  A    between atoms: C_41  and  N_42
REMARK   17  A    between atoms: C_43  and  C_45
REMARK   18  A    between atoms: C_58  and  O_59
REMARK   19  A    between atoms: C_65  and  O_66
REMARK   20  A    between atoms: N_72  and  C_73
REMARK   21  A    between atoms: C_73  and  N_74
REMARK   22  A    between atoms: C_78  and  C_79
REMARK   23  A    between atoms: C_79  and  C_80
REMARK   24  A    between atoms: C_86  and  C_87
REMARK   25  A    between atoms: C_87  and  C_88
REMARK   26  A    between atoms: C_87  and  O_89
REMARK                            x       y       z     vdW  Elec       q    Type
REMARK                         _______ _______ _______ _____ _____    ______ ____
ROOT
ATOM      1  C   UNL     1      -5.597   4.816 130.293  0.00  0.00    +0.000 C 
ATOM      2  O   UNL     1      -5.027   5.046 129.214  0.00  0.00    +0.000 OA
ATOM      3  N   UNL     1      -7.174   5.104 130.444  0.00  0.00    +0.000 N 
ATOM      4  C   UNL     1      -8.129   5.246 131.681  0.00  0.00    +0.000 C 
ATOM      5  C   UNL     1      -9.451   4.225 131.572  0.00  0.00    +0.000 C 
ATOM      6  C   UNL     1      -9.620   4.361 130.101  0.00  0.00    +0.000 C 
ATOM      7  C   UNL     1      -8.102   4.566 129.387  0.00  0.00    +0.000 C 
ENDROOT
BRANCH   1  21
ATOM      8  C   UNL     1      -5.327   8.143 137.476  0.00  0.00    +0.000 C 
ATOM      9  N   UNL     1      -3.351   8.888 137.098  0.00  0.00    +0.000 N 
ATOM     10  C   UNL     1      -1.572   9.687 136.565  0.00  0.00    +0.000 C 
ATOM     11  O   UNL     1      -0.337   9.512 137.233  0.00  0.00    +0.000 OA
ATOM     12  C   UNL     1      -0.248  10.648 135.181  0.00  0.00    +0.000 C 
ATOM     13  N   UNL     1       0.510  10.107 133.689  0.00  0.00    +0.000 N 
ATOM     14  C   UNL     1       0.492   8.783 133.348  0.00  0.00    +0.000 C 
ATOM     15  O   UNL     1       0.725   8.361 132.222  0.00  0.00    +0.000 OA
ATOM     16  C   UNL     1      -0.033   7.850 134.419  0.00  0.00    +0.000 C 
ATOM     17  C   UNL     1      -1.448   7.424 134.340  0.00  0.00    +0.000 C 
ATOM     18  S   UNL     1      -0.937   6.306 133.219  0.00  0.00    +0.000 S 
ATOM     19  S   UNL     1      -2.519   5.162 133.740  0.00  0.00    +0.000 S 
ATOM     20  C   UNL     1      -3.358   3.721 131.716  0.00  0.00    +0.000 C 
ATOM     21  C   UNL     1      -4.745   3.491 131.167  0.00  0.00    +0.000 C 
ATOM     22  N   UNL     1      -5.323   3.003 132.406  0.00  0.00    +0.000 N 
ATOM     23  C   UNL     1      -4.734   3.671 133.466  0.00  0.00    +0.000 C 
ATOM     24  O   UNL     1      -3.844   3.061 134.085  0.00  0.00    +0.000 OA
ATOM     25  C   UNL     1      -4.869   5.229 133.794  0.00  0.00    +0.000 C 
ATOM     26  N   UNL     1      -5.853   6.139 134.325  0.00  0.00    +0.000 N 
ATOM     27  C   UNL     1      -6.547   6.037 135.472  0.00  0.00    +0.000 C 
ATOM     28  O   UNL     1      -7.565   6.713 135.518  0.00  0.00    +0.000 OA
ATOM     29  C   UNL     1      -6.098   5.071 136.561  0.00  0.00    +0.000 C 
ATOM     30  N   UNL     1      -5.717   5.577 137.840  0.00  0.00    +0.000 N 
ATOM     31  C   UNL     1      -5.730   6.804 138.412  0.00  0.00    +0.000 C 
ATOM     32  O   UNL     1      -6.305   6.827 139.514  0.00  0.00    +0.000 OA
ATOM     33  H   UNL     1      -2.406   9.170 137.763  0.00  0.00    +0.000 HD
ATOM     34  H   UNL     1       0.886  10.668 132.852  0.00  0.00    +0.000 HD
ATOM     35  H   UNL     1      -5.141   2.003 132.515  0.00  0.00    +0.000 HD
ATOM     36  H   UNL     1      -6.312   6.795 133.741  0.00  0.00    +0.000 HD
ATOM     37  H   UNL     1      -4.746   5.457 137.863  0.00  0.00    +0.000 HD
BRANCH  12  38
ATOM     38  C   UNL     1      -1.365  11.449 134.817  0.00  0.00    +0.000 A 
ATOM     39  C   UNL     1      -1.898  10.724 133.739  0.00  0.00    +0.000 A 
ATOM     40  C   UNL     1      -1.916  11.441 132.573  0.00  0.00    +0.000 A 
ATOM     41  C   UNL     1      -1.488  12.782 132.591  0.00  0.00    +0.000 A 
ATOM     42  C   UNL     1      -0.910  13.378 133.706  0.00  0.00    +0.000 A 
ATOM     43  C   UNL     1      -0.922  12.751 134.900  0.00  0.00    +0.000 A 
BRANCH  41  44
ATOM     44  O   UNL     1      -1.512  13.587 131.502  0.00  0.00    +0.000 OA
ATOM     45  H   UNL     1      -0.646  13.998 131.398  0.00  0.00    +0.000 HD
ENDBRANCH  41  44
ENDBRANCH  12  38
BRANCH   8  46
ATOM     46  C   UNL     1      -7.558   7.732 137.758  0.00  0.00    +0.000 C 
ATOM     47  C   UNL     1      -8.836   6.269 138.223  0.00  0.00    +0.000 C 
BRANCH  46  49
ATOM     48  C   UNL     1      -9.543   9.704 138.230  0.00  0.00    +0.000 C 
ATOM     49  C   UNL     1      -9.531   8.338 137.656  0.00  0.00    +0.000 C 
ENDBRANCH  46  49
ENDBRANCH   8  46
BRANCH  29  50
ATOM     50  C   UNL     1      -4.995   4.171 136.101  0.00  0.00    +0.000 C 
ATOM     51  C   UNL     1      -3.763   3.892 136.808  0.00  0.00    +0.000 C 
BRANCH  50  52
ATOM     52  O   UNL     1      -5.692   2.971 136.108  0.00  0.00    +0.000 OA
ATOM     53  H   UNL     1      -6.608   2.719 136.363  0.00  0.00    +0.000 HD
ENDBRANCH  50  52
ENDBRANCH  29  50
BRANCH  16  54
ATOM     54  O   UNL     1      -0.450   8.477 135.487  0.00  0.00    +0.000 OA
ATOM     55  H   UNL     1       0.074   9.275 135.325  0.00  0.00    +0.000 HD
ENDBRANCH  16  54
BRANCH  25  56
ATOM     56  C   UNL     1      -4.240   5.432 132.418  0.00  0.00    +0.000 C 
BRANCH  56  57
ATOM     57  C   UNL     1      -3.850   7.073 131.240  0.00  0.00    +0.000 C 
ATOM     58  N   UNL     1      -2.449   6.420 130.178  0.00  0.00    +0.000 N 
ATOM     59  O   UNL     1      -4.534   8.036 130.946  0.00  0.00    +0.000 OA
ATOM     60  H   UNL     1      -1.996   5.485 130.772  0.00  0.00    +0.000 HD
ATOM     61  H   UNL     1      -1.827   6.679 129.499  0.00  0.00    +0.000 HD
ENDBRANCH  56  57
ENDBRANCH  25  56
ENDBRANCH   1  21
BRANCH   7  62
ATOM     62  C   UNL     1      -7.845   3.415 128.323  0.00  0.00    +0.000 C 
ATOM     63  O   UNL     1      -7.380   2.373 128.800  0.00  0.00    +0.000 OA
ATOM     64  N   UNL     1      -7.834   3.638 126.927  0.00  0.00    +0.000 N 
ATOM     65  H   UNL     1      -7.641   4.534 126.643  0.00  0.00    +0.000 HD
BRANCH  64  66
ATOM     66  C   UNL     1      -7.275   2.804 125.784  0.00  0.00    +0.000 C 
BRANCH  66  67
ATOM     67  C   UNL     1      -6.447   3.165 124.468  0.00  0.00    +0.000 C 
ATOM     68  O   UNL     1      -5.263   3.478 124.651  0.00  0.00    +0.000 OA
ATOM     69  N   UNL     1      -6.598   3.995 123.418  0.00  0.00    +0.000 N 
ATOM     70  H   UNL     1      -6.196   4.769 123.926  0.00  0.00    +0.000 HD
BRANCH  69  71
ATOM     71  C   UNL     1      -5.764   3.827 122.220  0.00  0.00    +0.000 C 
BRANCH  71  72
ATOM     72  N   UNL     1      -4.888   4.959 122.115  0.00  0.00    +0.000 NA
ATOM     73  H   UNL     1      -5.389   5.772 122.461  0.00  0.00    +0.000 HD
ATOM     74  H   UNL     1      -4.709   5.133 121.123  0.00  0.00    +0.000 HD
ENDBRANCH  71  72
ENDBRANCH  69  71
ENDBRANCH  66  67
BRANCH  66  75
ATOM     75  C   UNL     1      -8.560   2.605 125.116  0.00  0.00    +0.000 C 
BRANCH  75  76
ATOM     76  C   UNL     1      -9.018   1.218 125.298  0.00  0.00    +0.000 C 
BRANCH  76  77
ATOM     77  C   UNL     1      -9.027   0.528 124.007  0.00  0.00    +0.000 C 
BRANCH  77  78
ATOM     78  C   UNL     1      -9.012  -0.973 124.239  0.00  0.00    +0.000 C 
BRANCH  78  79
ATOM     79  N   UNL     1      -8.980  -1.264 125.711  0.00  0.00    +0.000 N 
ATOM     80  C   UNL     1      -8.234  -2.326 126.267  0.00  0.00    +0.000 C 
ATOM     81  O   UNL     1      -7.608  -3.017 125.444  0.00  0.00    +0.000 OA
ATOM     82  H   UNL     1      -9.534  -0.637 126.265  0.00  0.00    +0.000 HD
BRANCH  80  83
ATOM     83  C   UNL     1      -8.064  -2.739 127.849  0.00  0.00    +0.000 A 
ATOM     84  C   UNL     1      -6.843  -2.913 128.224  0.00  0.00    +0.000 A 
ATOM     85  C   UNL     1      -6.692  -3.801 129.432  0.00  0.00    +0.000 A 
ATOM     86  C   UNL     1      -5.689  -3.485 130.041  0.00  0.00    +0.000 A 
ATOM     87  C   UNL     1      -6.853  -3.436 130.476  0.00  0.00    +0.000 A 
ATOM     88  C   UNL     1      -8.364  -3.001 129.213  0.00  0.00    +0.000 A 
ATOM     89  C   UNL     1      -5.861  -3.572 132.121  0.00  0.00    +0.000 C 
ATOM     90  O   UNL     1      -4.469  -2.874 131.601  0.00  0.00    +0.000 OA
ATOM     91  C   UNL     1      -4.448  -2.961 130.253  0.00  0.00    +0.000 C 
ATOM     92  O   UNL     1      -3.968  -2.535 129.217  0.00  0.00    +0.000 OA
ATOM     93  C   UNL     1      -5.248  -4.356 133.684  0.00  0.00    +0.000 A 
ATOM     94  C   UNL     1      -4.795  -5.656 134.159  0.00  0.00    +0.000 A 
ATOM     95  C   UNL     1      -5.020  -6.142 135.550  0.00  0.00    +0.000 A 
ATOM     96  C   UNL     1      -5.549  -5.297 136.518  0.00  0.00    +0.000 A 
ATOM     97  C   UNL     1      -5.709  -3.966 136.175  0.00  0.00    +0.000 A 
ATOM     98  C   UNL     1      -5.455  -3.505 134.838  0.00  0.00    +0.000 A 
ATOM     99  O   UNL     1      -5.550  -2.135 134.681  0.00  0.00    +0.000 OA
ATOM    100  C   UNL     1      -6.320  -1.755 133.636  0.00  0.00    +0.000 A 
ATOM    101  C   UNL     1      -6.513  -0.426 133.330  0.00  0.00    +0.000 A 
ATOM    102  C   UNL     1      -7.279  -0.029 132.234  0.00  0.00    +0.000 A 
ATOM    103  C   UNL     1      -7.995  -0.960 131.550  0.00  0.00    +0.000 A 
ATOM    104  C   UNL     1      -7.981  -2.230 132.068  0.00  0.00    +0.000 A 
ATOM    105  C   UNL     1      -6.856  -2.638 132.773  0.00  0.00    +0.000 A 
BRANCH 102 106
ATOM    106  O   UNL     1      -7.446   1.261 131.855  0.00  0.00    +0.000 OA
ATOM    107  H   UNL     1      -6.936   1.453 131.055  0.00  0.00    +0.000 HD
ENDBRANCH 102 106
BRANCH  96 108
ATOM    108  O   UNL     1      -5.918  -5.663 137.784  0.00  0.00    +0.000 OA
ATOM    109  H   UNL     1      -6.756  -6.152 137.818  0.00  0.00    +0.000 HD
ENDBRANCH  96 108
ENDBRANCH  80  83
ENDBRANCH  78  79
ENDBRANCH  77  78
ENDBRANCH  76  77
ENDBRANCH  75  76
ENDBRANCH  66  75
ENDBRANCH  64  66
ENDBRANCH   7  62
TORSDOF 23
ENDMDL
MODEL 2
REMARK VINA RESULT:     -11.1      1.776      2.410
REMARK  Name = CHEMBL1790729
REMARK  26 active torsions:
REMARK  status: ('A' for Active; 'I' for Inactive)
REMARK    1  A    between atoms: C_1  and  C_2
REMARK    2  A    between atoms: C_2  and  C_3
REMARK    3  A    between atoms: C_3  and  C_4
REMARK    4  A    between atoms: C_3  and  C_5
REMARK    5  A    between atoms: C_9  and  C_10
REMARK    6  A    between atoms: C_13  and  O_14
REMARK    7  A    between atoms: C_20  and  O_21
REMARK    8  A    between atoms: C_26  and  C_27
REMARK    9  A    between atoms: C_33  and  C_34
REMARK   10  A    between atoms: N_36  and  C_37
REMARK   11  A    between atoms: C_37  and  C_38
REMARK   12  A    between atoms: C_37  and  C_70
REMARK   13  A    between atoms: C_38  and  C_39
REMARK   14  A    between atoms: C_39  and  C_40
REMARK   15  A    between atoms: C_40  and  C_41
REMARK   16  A    between atoms: C_41  and  N_42
REMARK   17  A    between atoms: C_43  and  C_45
REMARK   18  A    between atoms: C_58  and  O_59
REMARK   19  A    between atoms: C_65  and  O_66
REMARK   20  A    between atoms: N_72  and  C_73
REMARK   21  A    between atoms: C_73  and  N_74
REMARK   22  A    between atoms: C_78  and  C_79
REMARK   23  A    between atoms: C_79  and  C_80
REMARK   24  A    between atoms: C_86  and  C_87
REMARK   25  A    between atoms: C_87  and  C_88
REMARK   26  A    between atoms: C_87  and  O_89
REMARK                            x       y       z     vdW  Elec       q    Type
REMARK                         _______ _______ _______ _____ _____    ______ ____
ROOT
ATOM      1  C   UNL     1      -5.515   4.525 130.467  0.00  0.00    +0.000 C 
ATOM      2  O   UNL     1      -4.971   4.675 129.360  0.00  0.00    +0.000 OA
ATOM      3  N   UNL     1      -7.090   4.817 130.633  0.00  0.00    +0.000 N 
ATOM      4  C   UNL     1      -8.016   5.049 131.878  0.00  0.00    +0.000 C 
ATOM      5  C   UNL     1      -9.334   4.017 131.879  0.00  0.00    +0.000 C 
ATOM      6  C   UNL     1      -9.539   4.040 130.406  0.00  0.00    +0.000 C 
ATOM      7  C   UNL     1      -8.039   4.197 129.642  0.00  0.00    +0.000 C 
ENDROOT
BRANCH   1  21
ATOM      8  C   UNL     1      -5.391   8.249 137.456  0.00  0.00    +0.000 C 
ATOM      9  N   UNL     1      -3.432   9.026 137.050  0.00  0.00    +0.000 N 
ATOM     10  C   UNL     1      -1.671   9.843 136.484  0.00  0.00    +0.000 C 
ATOM     11  O   UNL     1      -0.437   9.738 137.170  0.00  0.00    +0.000 OA
ATOM     12  C   UNL     1      -0.363  10.761 135.059  0.00  0.00    +0.000 C 
ATOM     13  N   UNL     1       0.421  10.159 133.603  0.00  0.00    +0.000 N 
ATOM     14  C   UNL     1       0.441   8.819 133.336  0.00  0.00    +0.000 C 
ATOM     15  O   UNL     1       0.694   8.342 132.237  0.00  0.00    +0.000 OA
ATOM     16  C   UNL     1      -0.067   7.932 134.454  0.00  0.00    +0.000 C 
ATOM     17  C   UNL     1      -1.470   7.465 134.389  0.00  0.00    +0.000 C 
ATOM     18  S   UNL     1      -0.919   6.301 133.335  0.00  0.00    +0.000 S 
ATOM     19  S   UNL     1      -2.474   5.144 133.909  0.00  0.00    +0.000 S 
ATOM     20  C   UNL     1      -3.259   3.572 131.962  0.00  0.00    +0.000 C 
ATOM     21  C   UNL     1      -4.634   3.274 131.418  0.00  0.00    +0.000 C 
ATOM     22  N   UNL     1      -5.210   2.839 132.679  0.00  0.00    +0.000 N 
ATOM     23  C   UNL     1      -4.646   3.581 133.703  0.00  0.00    +0.000 C 
ATOM     24  O   UNL     1      -3.746   3.031 134.362  0.00  0.00    +0.000 OA
ATOM     25  C   UNL     1      -4.826   5.150 133.944  0.00  0.00    +0.000 C 
ATOM     26  N   UNL     1      -5.838   6.062 134.417  0.00  0.00    +0.000 N 
ATOM     27  C   UNL     1      -6.538   6.004 135.564  0.00  0.00    +0.000 C 
ATOM     28  O   UNL     1      -7.574   6.654 135.566  0.00  0.00    +0.000 OA
ATOM     29  C   UNL     1      -6.072   5.112 136.708  0.00  0.00    +0.000 C 
ATOM     30  N   UNL     1      -5.715   5.699 137.959  0.00  0.00    +0.000 N 
ATOM     31  C   UNL     1      -5.766   6.955 138.463  0.00  0.00    +0.000 C 
ATOM     32  O   UNL     1      -6.350   7.022 139.557  0.00  0.00    +0.000 OA
ATOM     33  H   UNL     1      -2.500   9.370 137.704  0.00  0.00    +0.000 HD
ATOM     34  H   UNL     1       0.789  10.684 132.739  0.00  0.00    +0.000 HD
ATOM     35  H   UNL     1      -5.001   1.852 132.844  0.00  0.00    +0.000 HD
ATOM     36  H   UNL     1      -6.310   6.672 133.795  0.00  0.00    +0.000 HD
ATOM     37  H   UNL     1      -4.742   5.606 137.995  0.00  0.00    +0.000 HD
BRANCH  12  38
ATOM     38  C   UNL     1      -1.498  11.511 134.643  0.00  0.00    +0.000 A 
ATOM     39  C   UNL     1      -1.882  10.827 133.478  0.00  0.00    +0.000 A 
ATOM     40  C   UNL     1      -1.849  11.619 132.362  0.00  0.00    +0.000 A 
ATOM     41  C   UNL     1      -1.521  12.980 132.502  0.00  0.00    +0.000 A 
ATOM     42  C   UNL     1      -1.086  13.535 133.700  0.00  0.00    +0.000 A 
ATOM     43  C   UNL     1      -1.158  12.829 134.847  0.00  0.00    +0.000 A 
BRANCH  41  44
ATOM     44  O   UNL     1      -1.507  13.854 131.467  0.00  0.00    +0.000 OA
ATOM     45  H   UNL     1      -0.853  13.563 130.821  0.00  0.00    +0.000 HD
ENDBRANCH  41  44
ENDBRANCH  12  38
BRANCH   8  46
ATOM     46  C   UNL     1      -7.612   7.795 137.746  0.00  0.00    +0.000 C 
ATOM     47  C   UNL     1      -8.854   6.327 138.286  0.00  0.00    +0.000 C 
BRANCH  46  49
ATOM     48  C   UNL     1      -9.695   9.639 138.298  0.00  0.00    +0.000 C 
ATOM     49  C   UNL     1      -9.600   8.339 137.595  0.00  0.00    +0.000 C 
ENDBRANCH  46  49
ENDBRANCH   8  46
BRANCH  29  50
ATOM     50  C   UNL     1      -4.942   4.218 136.305  0.00  0.00    +0.000 C 
ATOM     51  C   UNL     1      -3.700   4.027 137.025  0.00  0.00    +0.000 C 
BRANCH  50  52
ATOM     52  O   UNL     1      -5.600   3.000 136.396  0.00  0.00    +0.000 OA
ATOM     53  H   UNL     1      -5.340   2.072 136.198  0.00  0.00    +0.000 HD
ENDBRANCH  50  52
ENDBRANCH  29  50
BRANCH  16  54
ATOM     54  O   UNL     1      -0.509   8.606 135.483  0.00  0.00    +0.000 OA
ATOM     55  H   UNL     1       0.204   8.329 136.077  0.00  0.00    +0.000 HD
ENDBRANCH  16  54
BRANCH  25  56
ATOM     56  C   UNL     1      -4.192   5.294 132.563  0.00  0.00    +0.000 C 
BRANCH  56  57
ATOM     57  C   UNL     1      -3.839   6.878 131.297  0.00  0.00    +0.000 C 
ATOM     58  N   UNL     1      -2.450   6.184 130.244  0.00  0.00    +0.000 N 
ATOM     59  O   UNL     1      -4.538   7.818 130.968  0.00  0.00    +0.000 OA
ATOM     60  H   UNL     1      -1.977   5.284 130.876  0.00  0.00    +0.000 HD
ATOM     61  H   UNL     1      -1.844   6.414 129.541  0.00  0.00    +0.000 HD
ENDBRANCH  56  57
ENDBRANCH  25  56
ENDBRANCH   1  21
BRANCH   7  62
ATOM     62  C   UNL     1      -7.800   2.969 128.664  0.00  0.00    +0.000 C 
ATOM     63  O   UNL     1      -7.186   2.023 129.170  0.00  0.00    +0.000 OA
ATOM     64  N   UNL     1      -7.974   3.050 127.263  0.00  0.00    +0.000 N 
ATOM     65  H   UNL     1      -7.900   3.924 126.876  0.00  0.00    +0.000 HD
BRANCH  64  66
ATOM     66  C   UNL     1      -7.475   2.153 126.139  0.00  0.00    +0.000 C 
BRANCH  66  67
ATOM     67  C   UNL     1      -7.279   2.371 124.569  0.00  0.00    +0.000 C 
ATOM     68  O   UNL     1      -6.884   1.380 123.939  0.00  0.00    +0.000 OA
ATOM     69  N   UNL     1      -6.629   3.247 123.780  0.00  0.00    +0.000 N 
ATOM     70  H   UNL     1      -5.767   2.725 123.851  0.00  0.00    +0.000 HD
BRANCH  69  71
ATOM     71  C   UNL     1      -6.937   3.314 122.345  0.00  0.00    +0.000 C 
BRANCH  71  72
ATOM     72  N   UNL     1      -8.352   3.494 122.191  0.00  0.00    +0.000 NA
ATOM     73  H   UNL     1      -8.568   3.422 121.202  0.00  0.00    +0.000 HD
ATOM     74  H   UNL     1      -8.584   4.451 122.467  0.00  0.00    +0.000 HD
ENDBRANCH  71  72
ENDBRANCH  69  71
ENDBRANCH  66  67
BRANCH  66  75
ATOM     75  C   UNL     1      -8.701   1.362 126.039  0.00  0.00    +0.000 C 
BRANCH  75  76
ATOM     76  C   UNL     1      -8.461  -0.008 126.521  0.00  0.00    +0.000 C 
BRANCH  76  77
ATOM     77  C   UNL     1      -9.118  -0.967 125.632  0.00  0.00    +0.000 C 
BRANCH  77  78
ATOM     78  C   UNL     1      -9.004  -2.361 126.223  0.00  0.00    +0.000 C 
BRANCH  78  79
ATOM     79  N   UNL     1      -7.827  -2.430 127.150  0.00  0.00    +0.000 N 
ATOM     80  C   UNL     1      -7.849  -3.149 128.365  0.00  0.00    +0.000 C 
ATOM     81  O   UNL     1      -8.924  -3.718 128.622  0.00  0.00    +0.000 OA
ATOM     82  H   UNL     1      -7.023  -1.922 126.831  0.00  0.00    +0.000 HD
BRANCH  80  83
ATOM     83  C   UNL     1      -6.634  -3.355 129.455  0.00  0.00    +0.000 A 
ATOM     84  C   UNL     1      -6.316  -2.286 130.102  0.00  0.00    +0.000 A 
ATOM     85  C   UNL     1      -4.912  -2.296 130.651  0.00  0.00    +0.000 A 
ATOM     86  C   UNL     1      -4.867  -1.607 131.651  0.00  0.00    +0.000 A 
ATOM     87  C   UNL     1      -4.635  -2.828 131.593  0.00  0.00    +0.000 A 
ATOM     88  C   UNL     1      -5.653  -3.968 130.279  0.00  0.00    +0.000 A 
ATOM     89  C   UNL     1      -3.638  -2.346 133.170  0.00  0.00    +0.000 C 
ATOM     90  O   UNL     1      -4.546  -1.055 133.622  0.00  0.00    +0.000 OA
ATOM     91  C   UNL     1      -5.220  -0.628 132.532  0.00  0.00    +0.000 C 
ATOM     92  O   UNL     1      -6.160   0.022 132.113  0.00  0.00    +0.000 OA
ATOM     93  C   UNL     1      -2.138  -2.051 134.216  0.00  0.00    +0.000 A 
ATOM     94  C   UNL     1      -0.806  -1.477 134.092  0.00  0.00    +0.000 A 
ATOM     95  C   UNL     1       0.375  -1.978 134.851  0.00  0.00    +0.000 A 
ATOM     96  C   UNL     1       0.222  -2.938 135.845  0.00  0.00    +0.000 A 
ATOM     97  C   UNL     1      -1.072  -3.283 136.195  0.00  0.00    +0.000 A 
ATOM     98  C   UNL     1      -2.202  -2.765 135.475  0.00  0.00    +0.000 A 
ATOM     99  O   UNL     1      -3.427  -3.113 136.014  0.00  0.00    +0.000 OA
ATOM    100  C   UNL     1      -4.300  -3.614 135.110  0.00  0.00    +0.000 A 
ATOM    101  C   UNL     1      -5.571  -4.001 135.476  0.00  0.00    +0.000 A 
ATOM    102  C   UNL     1      -6.487  -4.487 134.542  0.00  0.00    +0.000 A 
ATOM    103  C   UNL     1      -6.070  -4.751 133.276  0.00  0.00    +0.000 A 
ATOM    104  C   UNL     1      -4.726  -4.604 133.041  0.00  0.00    +0.000 A 
ATOM    105  C   UNL     1      -4.028  -3.668 133.793  0.00  0.00    +0.000 A 
BRANCH 102 106
ATOM    106  O   UNL     1      -7.765  -4.820 134.840  0.00  0.00    +0.000 OA
ATOM    107  H   UNL     1      -8.104  -4.273 135.563  0.00  0.00    +0.000 HD
ENDBRANCH 102 106
BRANCH  96 108
ATOM    108  O   UNL     1       1.237  -3.564 136.516  0.00  0.00    +0.000 OA
ATOM    109  H   UNL     1       1.518  -3.096 137.319  0.00  0.00    +0.000 HD
ENDBRANCH  96 108
ENDBRANCH  80  83
ENDBRANCH  78  79
ENDBRANCH  77  78
ENDBRANCH  76  77
ENDBRANCH  75  76
ENDBRANCH  66  75
ENDBRANCH  64  66
ENDBRANCH   7  62
TORSDOF 23
ENDMDL
MODEL 3
REMARK VINA RESULT:     -10.6      3.600     13.959
REMARK  Name = CHEMBL1790729
REMARK  26 active torsions:
REMARK  status: ('A' for Active; 'I' for Inactive)
REMARK    1  A    between atoms: C_1  and  C_2
REMARK    2  A    between atoms: C_2  and  C_3
REMARK    3  A    between atoms: C_3  and  C_4
REMARK    4  A    between atoms: C_3  and  C_5
REMARK    5  A    between atoms: C_9  and  C_10
REMARK    6  A    between atoms: C_13  and  O_14
REMARK    7  A    between atoms: C_20  and  O_21
REMARK    8  A    between atoms: C_26  and  C_27
REMARK    9  A    between atoms: C_33  and  C_34
REMARK   10  A    between atoms: N_36  and  C_37
REMARK   11  A    between atoms: C_37  and  C_38
REMARK   12  A    between atoms: C_37  and  C_70
REMARK   13  A    between atoms: C_38  and  C_39
REMARK   14  A    between atoms: C_39  and  C_40
REMARK   15  A    between atoms: C_40  and  C_41
REMARK   16  A    between atoms: C_41  and  N_42
REMARK   17  A    between atoms: C_43  and  C_45
REMARK   18  A    between atoms: C_58  and  O_59
REMARK   19  A    between atoms: C_65  and  O_66
REMARK   20  A    between atoms: N_72  and  C_73
REMARK   21  A    between atoms: C_73  and  N_74
REMARK   22  A    between atoms: C_78  and  C_79
REMARK   23  A    between atoms: C_79  and  C_80
REMARK   24  A    between atoms: C_86  and  C_87
REMARK   25  A    between atoms: C_87  and  C_88
REMARK   26  A    between atoms: C_87  and  O_89
REMARK                            x       y       z     vdW  Elec       q    Type
REMARK                         _______ _______ _______ _____ _____    ______ ____
ROOT
ATOM      1  C   UNL     1      -4.653   5.167 129.772  0.00  0.00    +0.000 C 
ATOM      2  O   UNL     1      -4.450   6.086 128.960  0.00  0.00    +0.000 OA
ATOM      3  N   UNL     1      -3.432   4.584 130.644  0.00  0.00    +0.000 N 
ATOM      4  C   UNL     1      -3.238   3.273 131.484  0.00  0.00    +0.000 C 
ATOM      5  C   UNL     1      -2.749   3.599 133.051  0.00  0.00    +0.000 C 
ATOM      6  C   UNL     1      -1.876   4.749 132.695  0.00  0.00    +0.000 C 
ATOM      7  C   UNL     1      -2.543   5.559 131.369  0.00  0.00    +0.000 C 
ENDROOT
BRANCH   1  21
ATOM      8  C   UNL     1      -5.963  -2.609 130.522  0.00  0.00    +0.000 C 
ATOM      9  N   UNL     1      -6.868  -2.682 128.577  0.00  0.00    +0.000 N 
ATOM     10  C   UNL     1      -7.535  -2.664 126.669  0.00  0.00    +0.000 C 
ATOM     11  O   UNL     1      -8.812  -3.078 126.221  0.00  0.00    +0.000 OA
ATOM     12  C   UNL     1      -7.435  -2.058 124.617  0.00  0.00    +0.000 C 
ATOM     13  N   UNL     1      -7.683  -0.509 123.821  0.00  0.00    +0.000 N 
ATOM     14  C   UNL     1      -8.246   0.533 124.503  0.00  0.00    +0.000 C 
ATOM     15  O   UNL     1      -8.190   1.701 124.139  0.00  0.00    +0.000 OA
ATOM     16  C   UNL     1      -8.795   0.186 125.871  0.00  0.00    +0.000 C 
ATOM     17  C   UNL     1      -7.947   0.461 127.052  0.00  0.00    +0.000 C 
ATOM     18  S   UNL     1      -8.474   2.035 126.929  0.00  0.00    +0.000 S 
ATOM     19  S   UNL     1      -8.134   2.231 128.911  0.00  0.00    +0.000 S 
ATOM     20  C   UNL     1      -7.472   4.694 129.522  0.00  0.00    +0.000 C 
ATOM     21  C   UNL     1      -6.350   5.241 130.370  0.00  0.00    +0.000 C 
ATOM     22  N   UNL     1      -6.687   4.498 131.572  0.00  0.00    +0.000 N 
ATOM     23  C   UNL     1      -7.191   3.262 131.203  0.00  0.00    +0.000 C 
ATOM     24  O   UNL     1      -8.427   3.130 131.234  0.00  0.00    +0.000 OA
ATOM     25  C   UNL     1      -6.384   2.090 130.476  0.00  0.00    +0.000 C 
ATOM     26  N   UNL     1      -5.381   1.107 130.800  0.00  0.00    +0.000 N 
ATOM     27  C   UNL     1      -5.387   0.213 131.805  0.00  0.00    +0.000 C 
ATOM     28  O   UNL     1      -4.289  -0.241 132.095  0.00  0.00    +0.000 OA
ATOM     29  C   UNL     1      -6.680  -0.106 132.544  0.00  0.00    +0.000 C 
ATOM     30  N   UNL     1      -7.206  -1.433 132.506  0.00  0.00    +0.000 N 
ATOM     31  C   UNL     1      -6.765  -2.609 132.000  0.00  0.00    +0.000 C 
ATOM     32  O   UNL     1      -6.774  -3.535 132.829  0.00  0.00    +0.000 OA
ATOM     33  H   UNL     1      -7.682  -3.363 128.043  0.00  0.00    +0.000 HD
ATOM     34  H   UNL     1      -7.320  -0.141 122.877  0.00  0.00    +0.000 HD
ATOM     35  H   UNL     1      -7.406   4.991 132.106  0.00  0.00    +0.000 HD
ATOM     36  H   UNL     1      -4.451   1.193 130.466  0.00  0.00    +0.000 HD
ATOM     37  H   UNL     1      -7.997  -1.358 131.936  0.00  0.00    +0.000 HD
BRANCH  12  38
ATOM     38  C   UNL     1      -6.030  -2.251 124.728  0.00  0.00    +0.000 A 
ATOM     39  C   UNL     1      -5.593  -1.914 123.437  0.00  0.00    +0.000 A 
ATOM     40  C   UNL     1      -4.959  -2.948 122.803  0.00  0.00    +0.000 A 
ATOM     41  C   UNL     1      -4.760  -4.155 123.501  0.00  0.00    +0.000 A 
ATOM     42  C   UNL     1      -5.302  -4.402 124.756  0.00  0.00    +0.000 A 
ATOM     43  C   UNL     1      -5.879  -3.407 125.461  0.00  0.00    +0.000 A 
BRANCH  41  44
ATOM     44  O   UNL     1      -4.103  -5.218 122.978  0.00  0.00    +0.000 OA
ATOM     45  H   UNL     1      -3.488  -4.906 122.304  0.00  0.00    +0.000 HD
ENDBRANCH  41  44
ENDBRANCH  12  38
BRANCH   8  46
ATOM     46  C   UNL     1      -4.651  -2.657 132.392  0.00  0.00    +0.000 C 
ATOM     47  C   UNL     1      -3.373  -3.831 133.381  0.00  0.00    +0.000 C 
BRANCH  46  49
ATOM     48  C   UNL     1      -5.056  -2.149 135.154  0.00  0.00    +0.000 C 
ATOM     49  C   UNL     1      -4.004  -1.814 134.165  0.00  0.00    +0.000 C 
ENDBRANCH  46  49
ENDBRANCH   8  46
BRANCH  29  50
ATOM     50  C   UNL     1      -7.794   0.817 132.163  0.00  0.00    +0.000 C 
ATOM     51  C   UNL     1      -9.153   0.434 131.838  0.00  0.00    +0.000 C 
BRANCH  50  52
ATOM     52  O   UNL     1      -7.895   1.522 133.353  0.00  0.00    +0.000 OA
ATOM     53  H   UNL     1      -7.235   1.873 133.993  0.00  0.00    +0.000 HD
ENDBRANCH  50  52
ENDBRANCH  29  50
BRANCH  16  54
ATOM     54  O   UNL     1      -8.581  -1.058 126.209  0.00  0.00    +0.000 OA
ATOM     55  H   UNL     1      -8.102  -0.842 127.023  0.00  0.00    +0.000 HD
ENDBRANCH  16  54
BRANCH  25  56
ATOM     56  C   UNL     1      -6.182   3.111 129.359  0.00  0.00    +0.000 C 
BRANCH  56  57
ATOM     57  C   UNL     1      -5.101   3.137 127.608  0.00  0.00    +0.000 C 
ATOM     58  N   UNL     1      -3.647   2.048 128.075  0.00  0.00    +0.000 N 
ATOM     59  O   UNL     1      -5.428   3.379 126.461  0.00  0.00    +0.000 OA
ATOM     60  H   UNL     1      -3.613   2.041 129.272  0.00  0.00    +0.000 HD
ATOM     61  H   UNL     1      -2.815   1.710 127.745  0.00  0.00    +0.000 HD
ENDBRANCH  56  57
ENDBRANCH  25  56
ENDBRANCH   1  21
BRANCH   7  62
ATOM     62  C   UNL     1      -2.824   7.076 131.748  0.00  0.00    +0.000 C 
ATOM     63  O   UNL     1      -2.809   7.854 130.787  0.00  0.00    +0.000 OA
ATOM     64  N   UNL     1      -2.780   7.564 133.074  0.00  0.00    +0.000 N 
ATOM     65  H   UNL     1      -2.248   7.061 133.693  0.00  0.00    +0.000 HD
BRANCH  64  66
ATOM     66  C   UNL     1      -2.658   8.982 133.615  0.00  0.00    +0.000 C 
BRANCH  66  67
ATOM     67  C   UNL     1      -1.892  10.287 133.105  0.00  0.00    +0.000 C 
ATOM     68  O   UNL     1      -1.569  11.094 133.987  0.00  0.00    +0.000 OA
ATOM     69  N   UNL     1      -2.103  11.242 132.180  0.00  0.00    +0.000 N 
ATOM     70  H   UNL     1      -2.672  11.782 132.816  0.00  0.00    +0.000 HD
BRANCH  69  71
ATOM     71  C   UNL     1      -1.005  12.131 131.776  0.00  0.00    +0.000 C 
BRANCH  71  72
ATOM     72  N   UNL     1      -1.563  13.251 131.073  0.00  0.00    +0.000 NA
ATOM     73  H   UNL     1      -1.098  14.090 131.408  0.00  0.00    +0.000 HD
ATOM     74  H   UNL     1      -2.546  13.340 131.342  0.00  0.00    +0.000 HD
ENDBRANCH  71  72
ENDBRANCH  69  71
ENDBRANCH  66  67
BRANCH  66  75
ATOM     75  C   UNL     1      -1.711   8.644 134.676  0.00  0.00    +0.000 C 
BRANCH  75  76
ATOM     76  C   UNL     1      -2.170   7.452 135.406  0.00  0.00    +0.000 C 
BRANCH  76  77
ATOM     77  C   UNL     1      -1.183   7.084 136.423  0.00  0.00    +0.000 C 
BRANCH  77  78
ATOM     78  C   UNL     1      -1.885   6.880 137.754  0.00  0.00    +0.000 C 
BRANCH  78  79
ATOM     79  N   UNL     1      -2.661   8.111 138.119  0.00  0.00    +0.000 N 
ATOM     80  C   UNL     1      -3.977   8.065 138.628  0.00  0.00    +0.000 C 
ATOM     81  O   UNL     1      -4.457   6.925 138.744  0.00  0.00    +0.000 OA
ATOM     82  H   UNL     1      -2.161   8.969 137.971  0.00  0.00    +0.000 HD
BRANCH  80  83
ATOM     83  C   UNL     1      -4.930   9.314 139.113  0.00  0.00    +0.000 A 
ATOM     84  C   UNL     1      -6.164   9.209 138.755  0.00  0.00    +0.000 A 
ATOM     85  C   UNL     1      -6.895  10.526 138.681  0.00  0.00    +0.000 A 
ATOM     86  C   UNL     1      -8.077  10.342 138.900  0.00  0.00    +0.000 A 
ATOM     87  C   UNL     1      -7.306  11.041 139.583  0.00  0.00    +0.000 A 
ATOM     88  C   UNL     1      -5.372  10.499 139.759  0.00  0.00    +0.000 A 
ATOM     89  C   UNL     1      -9.003  11.840 140.023  0.00  0.00    +0.000 C 
ATOM     90  O   UNL     1      -9.942  10.515 139.784  0.00  0.00    +0.000 OA
ATOM     91  C   UNL     1      -9.261   9.672 138.978  0.00  0.00    +0.000 C 
ATOM     92  O   UNL     1      -9.147   8.529 138.572  0.00  0.00    +0.000 OA
ATOM     93  C   UNL     1     -10.315  13.147 140.059  0.00  0.00    +0.000 A 
ATOM     94  C   UNL     1     -10.915  14.129 139.166  0.00  0.00    +0.000 A 
ATOM     95  C   UNL     1     -11.430  15.449 139.629  0.00  0.00    +0.000 A 
ATOM     96  C   UNL     1     -11.500  15.745 140.986  0.00  0.00    +0.000 A 
ATOM     97  C   UNL     1     -11.220  14.718 141.871  0.00  0.00    +0.000 A 
ATOM     98  C   UNL     1     -10.757  13.439 141.407  0.00  0.00    +0.000 A 
ATOM     99  O   UNL     1     -10.631  12.486 142.400  0.00  0.00    +0.000 OA
ATOM    100  C   UNL     1      -9.441  11.842 142.393  0.00  0.00    +0.000 A 
ATOM    101  C   UNL     1      -9.152  10.854 143.309  0.00  0.00    +0.000 A 
ATOM    102  C   UNL     1      -7.940  10.164 143.285  0.00  0.00    +0.000 A 
ATOM    103  C   UNL     1      -6.950  10.586 142.456  0.00  0.00    +0.000 A 
ATOM    104  C   UNL     1      -7.196  11.744 141.763  0.00  0.00    +0.000 A 
ATOM    105  C   UNL     1      -8.513  12.046 141.439  0.00  0.00    +0.000 A 
BRANCH 102 106
ATOM    106  O   UNL     1      -7.635   9.143 144.121  0.00  0.00    +0.000 OA
ATOM    107  H   UNL     1      -7.853   9.370 145.036  0.00  0.00    +0.000 HD
ENDBRANCH 102 106
BRANCH  96 108
ATOM    108  O   UNL     1     -11.830  16.959 141.524  0.00  0.00    +0.000 OA
ATOM    109  H   UNL     1     -11.786  17.690 140.886  0.00  0.00    +0.000 HD
ENDBRANCH  96 108
ENDBRANCH  80  83
ENDBRANCH  78  79
ENDBRANCH  77  78
ENDBRANCH  76  77
ENDBRANCH  75  76
ENDBRANCH  66  75
ENDBRANCH  64  66
ENDBRANCH   7  62
TORSDOF 23
ENDMDL
MODEL 4
REMARK VINA RESULT:     -10.4      4.224     10.020
REMARK  Name = CHEMBL1790729
REMARK  26 active torsions:
REMARK  status: ('A' for Active; 'I' for Inactive)
REMARK    1  A    between atoms: C_1  and  C_2
REMARK    2  A    between atoms: C_2  and  C_3
REMARK    3  A    between atoms: C_3  and  C_4
REMARK    4  A    between atoms: C_3  and  C_5
REMARK    5  A    between atoms: C_9  and  C_10
REMARK    6  A    between atoms: C_13  and  O_14
REMARK    7  A    between atoms: C_20  and  O_21
REMARK    8  A    between atoms: C_26  and  C_27
REMARK    9  A    between atoms: C_33  and  C_34
REMARK   10  A    between atoms: N_36  and  C_37
REMARK   11  A    between atoms: C_37  and  C_38
REMARK   12  A    between atoms: C_37  and  C_70
REMARK   13  A    between atoms: C_38  and  C_39
REMARK   14  A    between atoms: C_39  and  C_40
REMARK   15  A    between atoms: C_40  and  C_41
REMARK   16  A    between atoms: C_41  and  N_42
REMARK   17  A    between atoms: C_43  and  C_45
REMARK   18  A    between atoms: C_58  and  O_59
REMARK   19  A    between atoms: C_65  and  O_66
REMARK   20  A    between atoms: N_72  and  C_73
REMARK   21  A    between atoms: C_73  and  N_74
REMARK   22  A    between atoms: C_78  and  C_79
REMARK   23  A    between atoms: C_79  and  C_80
REMARK   24  A    between atoms: C_86  and  C_87
REMARK   25  A    between atoms: C_87  and  C_88
REMARK   26  A    between atoms: C_87  and  O_89
REMARK                            x       y       z     vdW  Elec       q    Type
REMARK                         _______ _______ _______ _____ _____    ______ ____
ROOT
ATOM      1  C   UNL     1      -5.065  -0.848 131.746  0.00  0.00    +0.000 C 
ATOM      2  O   UNL     1      -4.065  -0.435 131.135  0.00  0.00    +0.000 OA
ATOM      3  N   UNL     1      -6.296   0.148 132.036  0.00  0.00    +0.000 N 
ATOM      4  C   UNL     1      -7.522   0.089 133.014  0.00  0.00    +0.000 C 
ATOM      5  C   UNL     1      -8.974   0.309 132.211  0.00  0.00    +0.000 C 
ATOM      6  C   UNL     1      -8.457   1.315 131.246  0.00  0.00    +0.000 C 
ATOM      7  C   UNL     1      -6.842   0.960 130.892  0.00  0.00    +0.000 C 
ENDROOT
BRANCH   1  21
ATOM      8  C   UNL     1      -5.651  -3.171 139.295  0.00  0.00    +0.000 C 
ATOM      9  N   UNL     1      -3.555  -3.629 139.356  0.00  0.00    +0.000 N 
ATOM     10  C   UNL     1      -1.546  -3.854 139.351  0.00  0.00    +0.000 C 
ATOM     11  O   UNL     1      -0.832  -5.040 139.645  0.00  0.00    +0.000 OA
ATOM     12  C   UNL     1       0.443  -3.237 138.849  0.00  0.00    +0.000 C 
ATOM     13  N   UNL     1       1.304  -3.125 137.319  0.00  0.00    +0.000 N 
ATOM     14  C   UNL     1       0.785  -3.701 136.194  0.00  0.00    +0.000 C 
ATOM     15  O   UNL     1       1.149  -3.434 135.056  0.00  0.00    +0.000 OA
ATOM     16  C   UNL     1      -0.433  -4.573 136.420  0.00  0.00    +0.000 C 
ATOM     17  C   UNL     1      -1.768  -3.980 136.185  0.00  0.00    +0.000 C 
ATOM     18  S   UNL     1      -1.500  -4.284 134.571  0.00  0.00    +0.000 S 
ATOM     19  S   UNL     1      -3.505  -4.367 134.326  0.00  0.00    +0.000 S 
ATOM     20  C   UNL     1      -4.201  -3.579 131.923  0.00  0.00    +0.000 C 
ATOM     21  C   UNL     1      -5.268  -2.616 131.464  0.00  0.00    +0.000 C 
ATOM     22  N   UNL     1      -6.378  -3.292 132.113  0.00  0.00    +0.000 N 
ATOM     23  C   UNL     1      -5.930  -3.840 133.303  0.00  0.00    +0.000 C 
ATOM     24  O   UNL     1      -5.686  -5.059 133.299  0.00  0.00    +0.000 OA
ATOM     25  C   UNL     1      -5.423  -3.032 134.585  0.00  0.00    +0.000 C 
ATOM     26  N   UNL     1      -5.982  -2.244 135.655  0.00  0.00    +0.000 N 
ATOM     27  C   UNL     1      -6.976  -2.573 136.498  0.00  0.00    +0.000 C 
ATOM     28  O   UNL     1      -7.513  -1.625 137.054  0.00  0.00    +0.000 OA
ATOM     29  C   UNL     1      -7.414  -4.025 136.644  0.00  0.00    +0.000 C 
ATOM     30  N   UNL     1      -7.285  -4.677 137.907  0.00  0.00    +0.000 N 
ATOM     31  C   UNL     1      -6.912  -4.274 139.145  0.00  0.00    +0.000 C 
ATOM     32  O   UNL     1      -7.736  -4.570 140.027  0.00  0.00    +0.000 OA
ATOM     33  H   UNL     1      -2.865  -4.379 139.969  0.00  0.00    +0.000 HD
ATOM     34  H   UNL     1       2.149  -2.523 137.034  0.00  0.00    +0.000 HD
ATOM     35  H   UNL     1      -6.729  -4.048 131.523  0.00  0.00    +0.000 HD
ATOM     36  H   UNL     1      -5.862  -1.260 135.684  0.00  0.00    +0.000 HD
ATOM     37  H   UNL     1      -6.551  -5.310 137.773  0.00  0.00    +0.000 HD
BRANCH  12  38
ATOM     38  C   UNL     1       0.018  -1.922 139.187  0.00  0.00    +0.000 A 
ATOM     39  C   UNL     1       0.272  -1.224 137.996  0.00  0.00    +0.000 A 
ATOM     40  C   UNL     1       1.167  -0.201 138.160  0.00  0.00    +0.000 A 
ATOM     41  C   UNL     1       1.657   0.075 139.450  0.00  0.00    +0.000 A 
ATOM     42  C   UNL     1       1.390  -0.732 140.550  0.00  0.00    +0.000 A 
ATOM     43  C   UNL     1       0.468  -1.713 140.472  0.00  0.00    +0.000 A 
BRANCH  41  44
ATOM     44  O   UNL     1       2.507   1.093 139.723  0.00  0.00    +0.000 OA
ATOM     45  H   UNL     1       2.612   1.166 140.679  0.00  0.00    +0.000 HD
ENDBRANCH  41  44
ENDBRANCH  12  38
BRANCH   8  46
ATOM     46  C   UNL     1      -7.768  -2.317 139.402  0.00  0.00    +0.000 C 
ATOM     47  C   UNL     1      -9.662  -2.763 138.954  0.00  0.00    +0.000 C 
BRANCH  46  49
ATOM     48  C   UNL     1      -8.292   0.174 140.654  0.00  0.00    +0.000 C 
ATOM     49  C   UNL     1      -9.068  -0.763 139.809  0.00  0.00    +0.000 C 
ENDBRANCH  46  49
ENDBRANCH   8  46
BRANCH  29  50
ATOM     50  C   UNL     1      -6.776  -4.914 135.625  0.00  0.00    +0.000 C 
ATOM     51  C   UNL     1      -6.077  -6.156 135.886  0.00  0.00    +0.000 C 
BRANCH  50  52
ATOM     52  O   UNL     1      -7.919  -5.286 134.931  0.00  0.00    +0.000 OA
ATOM     53  H   UNL     1      -8.493  -6.084 134.946  0.00  0.00    +0.000 HD
ENDBRANCH  50  52
ENDBRANCH  29  50
BRANCH  16  54
ATOM     54  O   UNL     1      -0.834  -4.582 137.664  0.00  0.00    +0.000 OA
ATOM     55  H   UNL     1      -1.745  -4.327 137.459  0.00  0.00    +0.000 HD
ENDBRANCH  16  54
BRANCH  25  56
ATOM     56  C   UNL     1      -4.360  -2.474 133.642  0.00  0.00    +0.000 C 
BRANCH  56  57
ATOM     57  C   UNL     1      -2.836  -1.106 133.836  0.00  0.00    +0.000 C 
ATOM     58  N   UNL     1      -3.567   0.059 135.111  0.00  0.00    +0.000 N 
ATOM     59  O   UNL     1      -1.647  -1.182 133.588  0.00  0.00    +0.000 OA
ATOM     60  H   UNL     1      -4.750  -0.123 135.082  0.00  0.00    +0.000 HD
ATOM     61  H   UNL     1      -3.397   0.876 135.579  0.00  0.00    +0.000 HD
ENDBRANCH  56  57
ENDBRANCH  25  56
ENDBRANCH   1  21
BRANCH   7  62
ATOM     62  C   UNL     1      -6.669   0.728 129.330  0.00  0.00    +0.000 C 
ATOM     63  O   UNL     1      -6.537   1.765 128.670  0.00  0.00    +0.000 OA
ATOM     64  N   UNL     1      -6.956  -0.501 128.693  0.00  0.00    +0.000 N 
ATOM     65  H   UNL     1      -7.574  -1.078 129.145  0.00  0.00    +0.000 HD
BRANCH  64  66
ATOM     66  C   UNL     1      -7.204  -0.836 127.230  0.00  0.00    +0.000 C 
BRANCH  66  67
ATOM     67  C   UNL     1      -7.854  -2.093 126.489  0.00  0.00    +0.000 C 
ATOM     68  O   UNL     1      -8.190  -3.031 127.225  0.00  0.00    +0.000 OA
ATOM     69  N   UNL     1      -7.524  -2.898 125.462  0.00  0.00    +0.000 N 
ATOM     70  H   UNL     1      -6.969  -3.492 126.060  0.00  0.00    +0.000 HD
BRANCH  69  71
ATOM     71  C   UNL     1      -8.536  -3.774 124.857  0.00  0.00    +0.000 C 
BRANCH  71  72
ATOM     72  N   UNL     1      -9.732  -3.010 124.648  0.00  0.00    +0.000 NA
ATOM     73  H   UNL     1      -9.464  -2.120 124.240  0.00  0.00    +0.000 HD
ATOM     74  H   UNL     1     -10.139  -2.796 125.562  0.00  0.00    +0.000 HD
ENDBRANCH  71  72
ENDBRANCH  69  71
ENDBRANCH  66  67
BRANCH  66  75
ATOM     75  C   UNL     1      -5.814  -1.173 126.927  0.00  0.00    +0.000 C 
BRANCH  75  76
ATOM     76  C   UNL     1      -5.217  -0.140 126.066  0.00  0.00    +0.000 C 
BRANCH  76  77
ATOM     77  C   UNL     1      -6.274   0.594 125.369  0.00  0.00    +0.000 C 
BRANCH  77  78
ATOM     78  C   UNL     1      -5.825   2.026 125.139  0.00  0.00    +0.000 C 
BRANCH  78  79
ATOM     79  N   UNL     1      -4.987   2.492 126.293  0.00  0.00    +0.000 N 
ATOM     80  C   UNL     1      -4.702   3.854 126.534  0.00  0.00    +0.000 C 
ATOM     81  O   UNL     1      -5.189   4.647 125.710  0.00  0.00    +0.000 OA
ATOM     82  H   UNL     1      -4.648   1.751 126.879  0.00  0.00    +0.000 HD
BRANCH  80  83
ATOM     83  C   UNL     1      -3.845   4.517 127.771  0.00  0.00    +0.000 A 
ATOM     84  C   UNL     1      -4.488   5.411 128.442  0.00  0.00    +0.000 A 
ATOM     85  C   UNL     1      -3.600   6.391 129.165  0.00  0.00    +0.000 A 
ATOM     86  C   UNL     1      -4.175   6.799 130.156  0.00  0.00    +0.000 A 
ATOM     87  C   UNL     1      -3.109   6.158 130.141  0.00  0.00    +0.000 A 
ATOM     88  C   UNL     1      -2.816   4.758 128.720  0.00  0.00    +0.000 A 
ATOM     89  C   UNL     1      -2.953   7.077 131.826  0.00  0.00    +0.000 C 
ATOM     90  O   UNL     1      -4.555   7.233 132.145  0.00  0.00    +0.000 OA
ATOM     91  C   UNL     1      -5.218   7.117 130.974  0.00  0.00    +0.000 C 
ATOM     92  O   UNL     1      -6.286   6.895 130.431  0.00  0.00    +0.000 OA
ATOM     93  C   UNL     1      -2.274   8.290 133.052  0.00  0.00    +0.000 A 
ATOM     94  C   UNL     1      -1.805   9.668 133.092  0.00  0.00    +0.000 A 
ATOM     95  C   UNL     1      -0.720  10.137 134.000  0.00  0.00    +0.000 A 
ATOM     96  C   UNL     1      -0.202   9.294 134.977  0.00  0.00    +0.000 A 
ATOM     97  C   UNL     1      -0.836   8.078 135.162  0.00  0.00    +0.000 A 
ATOM     98  C   UNL     1      -1.904   7.654 134.299  0.00  0.00    +0.000 A 
ATOM     99  O   UNL     1      -2.508   6.471 134.681  0.00  0.00    +0.000 OA
ATOM    100  C   UNL     1      -2.631   5.571 133.680  0.00  0.00    +0.000 A 
ATOM    101  C   UNL     1      -3.220   4.342 133.885  0.00  0.00    +0.000 A 
ATOM    102  C   UNL     1      -3.379   3.423 132.848  0.00  0.00    +0.000 A 
ATOM    103  C   UNL     1      -2.789   3.664 131.647  0.00  0.00    +0.000 A 
ATOM    104  C   UNL     1      -1.985   4.774 131.584  0.00  0.00    +0.000 A 
ATOM    105  C   UNL     1      -2.287   5.850 132.409  0.00  0.00    +0.000 A 
BRANCH 102 106
ATOM    106  O   UNL     1      -4.008   2.231 132.984  0.00  0.00    +0.000 OA
ATOM    107  H   UNL     1      -4.538   2.212 133.793  0.00  0.00    +0.000 HD
ENDBRANCH 102 106
BRANCH  96 108
ATOM    108  O   UNL     1       0.874   9.565 135.778  0.00  0.00    +0.000 OA
ATOM    109  H   UNL     1       0.629   9.867 136.667  0.00  0.00    +0.000 HD
ENDBRANCH  96 108
ENDBRANCH  80  83
ENDBRANCH  78  79
ENDBRANCH  77  78
ENDBRANCH  76  77
ENDBRANCH  75  76
ENDBRANCH  66  75
ENDBRANCH  64  66
ENDBRANCH   7  62
TORSDOF 23
ENDMDL
MODEL 5
REMARK VINA RESULT:     -10.3      2.845     10.160
REMARK  Name = CHEMBL1790729
REMARK  26 active torsions:
REMARK  status: ('A' for Active; 'I' for Inactive)
REMARK    1  A    between atoms: C_1  and  C_2
REMARK    2  A    between atoms: C_2  and  C_3
REMARK    3  A    between atoms: C_3  and  C_4
REMARK    4  A    between atoms: C_3  and  C_5
REMARK    5  A    between atoms: C_9  and  C_10
REMARK    6  A    between atoms: C_13  and  O_14
REMARK    7  A    between atoms: C_20  and  O_21
REMARK    8  A    between atoms: C_26  and  C_27
REMARK    9  A    between atoms: C_33  and  C_34
REMARK   10  A    between atoms: N_36  and  C_37
REMARK   11  A    between atoms: C_37  and  C_38
REMARK   12  A    between atoms: C_37  and  C_70
REMARK   13  A    between atoms: C_38  and  C_39
REMARK   14  A    between atoms: C_39  and  C_40
REMARK   15  A    between atoms: C_40  and  C_41
REMARK   16  A    between atoms: C_41  and  N_42
REMARK   17  A    between atoms: C_43  and  C_45
REMARK   18  A    between atoms: C_58  and  O_59
REMARK   19  A    between atoms: C_65  and  O_66
REMARK   20  A    between atoms: N_72  and  C_73
REMARK   21  A    between atoms: C_73  and  N_74
REMARK   22  A    between atoms: C_78  and  C_79
REMARK   23  A    between atoms: C_79  and  C_80
REMARK   24  A    between atoms: C_86  and  C_87
REMARK   25  A    between atoms: C_87  and  C_88
REMARK   26  A    between atoms: C_87  and  O_89
REMARK                            x       y       z     vdW  Elec       q    Type
REMARK                         _______ _______ _______ _____ _____    ______ ____
ROOT
ATOM      1  C   UNL     1      -6.695   4.199 131.677  0.00  0.00    +0.000 C 
ATOM      2  O   UNL     1      -6.916   5.419 131.611  0.00  0.00    +0.000 OA
ATOM      3  N   UNL     1      -7.819   3.153 131.193  0.00  0.00    +0.000 N 
ATOM      4  C   UNL     1      -8.028   1.614 131.421  0.00  0.00    +0.000 C 
ATOM      5  C   UNL     1      -8.216   0.787 129.978  0.00  0.00    +0.000 C 
ATOM      6  C   UNL     1      -8.994   1.857 129.297  0.00  0.00    +0.000 C 
ATOM      7  C   UNL     1      -8.458   3.364 129.847  0.00  0.00    +0.000 C 
ENDROOT
BRANCH   1  21
ATOM      8  C   UNL     1      -6.103  -1.642 136.995  0.00  0.00    +0.000 C 
ATOM      9  N   UNL     1      -5.526  -0.246 138.519  0.00  0.00    +0.000 N 
ATOM     10  C   UNL     1      -5.167   1.176 139.911  0.00  0.00    +0.000 C 
ATOM     11  O   UNL     1      -4.026   1.269 140.743  0.00  0.00    +0.000 OA
ATOM     12  C   UNL     1      -5.523   3.075 140.835  0.00  0.00    +0.000 C 
ATOM     13  N   UNL     1      -5.242   4.729 140.304  0.00  0.00    +0.000 N 
ATOM     14  C   UNL     1      -4.474   4.976 139.201  0.00  0.00    +0.000 C 
ATOM     15  O   UNL     1      -4.463   6.041 138.597  0.00  0.00    +0.000 OA
ATOM     16  C   UNL     1      -3.757   3.768 138.632  0.00  0.00    +0.000 C 
ATOM     17  C   UNL     1      -4.376   3.067 137.485  0.00  0.00    +0.000 C 
ATOM     18  S   UNL     1      -3.713   4.262 136.535  0.00  0.00    +0.000 S 
ATOM     19  S   UNL     1      -3.717   2.947 135.000  0.00  0.00    +0.000 S 
ATOM     20  C   UNL     1      -4.014   4.172 132.700  0.00  0.00    +0.000 C 
ATOM     21  C   UNL     1      -4.926   3.887 131.533  0.00  0.00    +0.000 C 
ATOM     22  N   UNL     1      -4.485   2.520 131.321  0.00  0.00    +0.000 N 
ATOM     23  C   UNL     1      -4.177   1.957 132.548  0.00  0.00    +0.000 C 
ATOM     24  O   UNL     1      -2.972   1.896 132.849  0.00  0.00    +0.000 OA
ATOM     25  C   UNL     1      -5.206   1.644 133.730  0.00  0.00    +0.000 C 
ATOM     26  N   UNL     1      -6.243   0.690 134.034  0.00  0.00    +0.000 N 
ATOM     27  C   UNL     1      -6.174  -0.653 134.002  0.00  0.00    +0.000 C 
ATOM     28  O   UNL     1      -7.254  -1.221 133.931  0.00  0.00    +0.000 OA
ATOM     29  C   UNL     1      -4.821  -1.354 133.972  0.00  0.00    +0.000 C 
ATOM     30  N   UNL     1      -4.450  -2.217 135.046  0.00  0.00    +0.000 N 
ATOM     31  C   UNL     1      -5.084  -2.679 136.149  0.00  0.00    +0.000 C 
ATOM     32  O   UNL     1      -5.043  -3.916 136.259  0.00  0.00    +0.000 OA
ATOM     33  H   UNL     1      -4.881  -0.294 139.517  0.00  0.00    +0.000 HD
ATOM     34  H   UNL     1      -5.708   5.650 140.607  0.00  0.00    +0.000 HD
ATOM     35  H   UNL     1      -3.644   2.503 130.740  0.00  0.00    +0.000 HD
ATOM     36  H   UNL     1      -7.199   0.952 134.026  0.00  0.00    +0.000 HD
ATOM     37  H   UNL     1      -3.754  -1.720 135.520  0.00  0.00    +0.000 HD
BRANCH  12  38
ATOM     38  C   UNL     1      -6.906   2.803 140.642  0.00  0.00    +0.000 A 
ATOM     39  C   UNL     1      -7.479   4.065 140.864  0.00  0.00    +0.000 A 
ATOM     40  C   UNL     1      -8.364   4.071 141.908  0.00  0.00    +0.000 A 
ATOM     41  C   UNL     1      -8.645   2.861 142.570  0.00  0.00    +0.000 A 
ATOM     42  C   UNL     1      -7.961   1.680 142.310  0.00  0.00    +0.000 A 
ATOM     43  C   UNL     1      -7.126   1.589 141.254  0.00  0.00    +0.000 A 
BRANCH  41  44
ATOM     44  O   UNL     1      -9.539   2.755 143.581  0.00  0.00    +0.000 OA
ATOM     45  H   UNL     1      -9.899   1.860 143.588  0.00  0.00    +0.000 HD
ENDBRANCH  41  44
ENDBRANCH  12  38
BRANCH   8  46
ATOM     46  C   UNL     1      -7.105  -3.085 135.532  0.00  0.00    +0.000 C 
ATOM     47  C   UNL     1      -8.598  -4.406 135.408  0.00  0.00    +0.000 C 
BRANCH  46  49
ATOM     48  C   UNL     1      -6.000  -4.940 133.692  0.00  0.00    +0.000 C 
ATOM     49  C   UNL     1      -7.175  -4.036 133.699  0.00  0.00    +0.000 C 
ENDBRANCH  46  49
ENDBRANCH   8  46
BRANCH  29  50
ATOM     50  C   UNL     1      -3.691  -0.395 133.769  0.00  0.00    +0.000 C 
ATOM     51  C   UNL     1      -2.467  -0.336 134.542  0.00  0.00    +0.000 C 
BRANCH  50  52
ATOM     52  O   UNL     1      -3.295  -0.806 132.504  0.00  0.00    +0.000 OA
ATOM     53  H   UNL     1      -3.378  -1.651 132.008  0.00  0.00    +0.000 HD
ENDBRANCH  50  52
ENDBRANCH  29  50
BRANCH  16  54
ATOM     54  O   UNL     1      -4.045   2.659 139.258  0.00  0.00    +0.000 OA
ATOM     55  H   UNL     1      -4.907   2.963 139.576  0.00  0.00    +0.000 HD
ENDBRANCH  16  54
BRANCH  25  56
ATOM     56  C   UNL     1      -5.472   3.146 133.710  0.00  0.00    +0.000 C 
BRANCH  56  57
ATOM     57  C   UNL     1      -6.813   4.385 134.660  0.00  0.00    +0.000 C 
ATOM     58  N   UNL     1      -5.933   6.036 134.513  0.00  0.00    +0.000 N 
ATOM     59  O   UNL     1      -8.004   4.267 134.880  0.00  0.00    +0.000 OA
ATOM     60  H   UNL     1      -4.783   5.777 134.308  0.00  0.00    +0.000 HD
ATOM     61  H   UNL     1      -5.997   6.955 134.769  0.00  0.00    +0.000 HD
ENDBRANCH  56  57
ENDBRANCH  25  56
ENDBRANCH   1  21
BRANCH   7  62
ATOM     62  C   UNL     1      -7.944   4.234 128.622  0.00  0.00    +0.000 C 
ATOM     63  O   UNL     1      -8.702   5.154 128.294  0.00  0.00    +0.000 OA
ATOM     64  N   UNL     1      -6.891   3.827 127.770  0.00  0.00    +0.000 N 
ATOM     65  H   UNL     1      -6.725   2.884 127.723  0.00  0.00    +0.000 HD
BRANCH  64  66
ATOM     66  C   UNL     1      -6.488   4.300 126.381  0.00  0.00    +0.000 C 
BRANCH  66  67
ATOM     67  C   UNL     1      -6.856   3.807 124.907  0.00  0.00    +0.000 C 
ATOM     68  O   UNL     1      -6.128   4.240 124.003  0.00  0.00    +0.000 OA
ATOM     69  N   UNL     1      -7.957   3.783 124.133  0.00  0.00    +0.000 N 
ATOM     70  H   UNL     1      -7.798   4.728 123.816  0.00  0.00    +0.000 HD
BRANCH  69  71
ATOM     71  C   UNL     1      -7.987   2.955 122.920  0.00  0.00    +0.000 C 
BRANCH  71  72
ATOM     72  N   UNL     1      -8.465   3.759 121.833  0.00  0.00    +0.000 NA
ATOM     73  H   UNL     1      -8.268   3.262 120.969  0.00  0.00    +0.000 HD
ATOM     74  H   UNL     1      -7.911   4.618 121.802  0.00  0.00    +0.000 HD
ENDBRANCH  71  72
ENDBRANCH  69  71
ENDBRANCH  66  67
BRANCH  66  75
ATOM     75  C   UNL     1      -5.150   3.711 126.418  0.00  0.00    +0.000 C 
BRANCH  75  76
ATOM     76  C   UNL     1      -4.685   3.592 127.809  0.00  0.00    +0.000 C 
BRANCH  76  77
ATOM     77  C   UNL     1      -3.286   3.166 127.828  0.00  0.00    +0.000 C 
BRANCH  77  78
ATOM     78  C   UNL     1      -2.389   4.387 127.939  0.00  0.00    +0.000 C 
BRANCH  78  79
ATOM     79  N   UNL     1      -2.692   5.133 129.206  0.00  0.00    +0.000 N 
ATOM     80  C   UNL     1      -2.444   6.514 129.361  0.00  0.00    +0.000 C 
ATOM     81  O   UNL     1      -1.944   7.073 128.370  0.00  0.00    +0.000 OA
ATOM     82  H   UNL     1      -3.086   4.563 129.932  0.00  0.00    +0.000 HD
BRANCH  80  83
ATOM     83  C   UNL     1      -2.762   7.471 130.659  0.00  0.00    +0.000 A 
ATOM     84  C   UNL     1      -2.097   7.164 131.720  0.00  0.00    +0.000 A 
ATOM     85  C   UNL     1      -2.746   7.615 133.003  0.00  0.00    +0.000 A 
ATOM     86  C   UNL     1      -1.887   7.813 133.841  0.00  0.00    +0.000 A 
ATOM     87  C   UNL     1      -2.672   8.663 133.383  0.00  0.00    +0.000 A 
ATOM     88  C   UNL     1      -3.269   8.528 131.462  0.00  0.00    +0.000 A 
ATOM     89  C   UNL     1      -2.238   9.453 135.086  0.00  0.00    +0.000 C 
ATOM     90  O   UNL     1      -0.745   8.795 135.263  0.00  0.00    +0.000 OA
ATOM     91  C   UNL     1      -0.683   7.702 134.471  0.00  0.00    +0.000 C 
ATOM     92  O   UNL     1       0.037   6.900 133.904  0.00  0.00    +0.000 OA
ATOM     93  C   UNL     1      -2.528  10.032 136.821  0.00  0.00    +0.000 A 
ATOM     94  C   UNL     1      -3.215   9.593 138.028  0.00  0.00    +0.000 A 
ATOM     95  C   UNL     1      -3.838  10.533 139.003  0.00  0.00    +0.000 A 
ATOM     96  C   UNL     1      -3.654  11.906 138.878  0.00  0.00    +0.000 A 
ATOM     97  C   UNL     1      -2.757  12.338 137.918  0.00  0.00    +0.000 A 
ATOM     98  C   UNL     1      -2.138  11.415 137.006  0.00  0.00    +0.000 A 
ATOM     99  O   UNL     1      -1.183  11.983 136.183  0.00  0.00    +0.000 OA
ATOM    100  C   UNL     1      -1.338  11.678 134.874  0.00  0.00    +0.000 A 
ATOM    101  C   UNL     1      -0.468  12.153 133.917  0.00  0.00    +0.000 A 
ATOM    102  C   UNL     1      -0.604  11.816 132.571  0.00  0.00    +0.000 A 
ATOM    103  C   UNL     1      -1.714  11.147 132.160  0.00  0.00    +0.000 A 
ATOM    104  C   UNL     1      -2.679  10.940 133.113  0.00  0.00    +0.000 A 
ATOM    105  C   UNL     1      -2.277  10.819 134.437  0.00  0.00    +0.000 A 
BRANCH 102 106
ATOM    106  O   UNL     1       0.261  12.203 131.603  0.00  0.00    +0.000 OA
ATOM    107  H   UNL     1      -0.153  12.844 131.008  0.00  0.00    +0.000 HD
ENDBRANCH 102 106
BRANCH  96 108
ATOM    108  O   UNL     1      -4.275  12.867 139.629  0.00  0.00    +0.000 OA
ATOM    109  H   UNL     1      -4.263  13.747 139.218  0.00  0.00    +0.000 HD
ENDBRANCH  96 108
ENDBRANCH  80  83
ENDBRANCH  78  79
ENDBRANCH  77  78
ENDBRANCH  76  77
ENDBRANCH  75  76
ENDBRANCH  66  75
ENDBRANCH  64  66
ENDBRANCH   7  62
TORSDOF 23
ENDMDL
MODEL 6
REMARK VINA RESULT:     -10.3      4.351      9.720
REMARK  Name = CHEMBL1790729
REMARK  26 active torsions:
REMARK  status: ('A' for Active; 'I' for Inactive)
REMARK    1  A    between atoms: C_1  and  C_2
REMARK    2  A    between atoms: C_2  and  C_3
REMARK    3  A    between atoms: C_3  and  C_4
REMARK    4  A    between atoms: C_3  and  C_5
REMARK    5  A    between atoms: C_9  and  C_10
REMARK    6  A    between atoms: C_13  and  O_14
REMARK    7  A    between atoms: C_20  and  O_21
REMARK    8  A    between atoms: C_26  and  C_27
REMARK    9  A    between atoms: C_33  and  C_34
REMARK   10  A    between atoms: N_36  and  C_37
REMARK   11  A    between atoms: C_37  and  C_38
REMARK   12  A    between atoms: C_37  and  C_70
REMARK   13  A    between atoms: C_38  and  C_39
REMARK   14  A    between atoms: C_39  and  C_40
REMARK   15  A    between atoms: C_40  and  C_41
REMARK   16  A    between atoms: C_41  and  N_42
REMARK   17  A    between atoms: C_43  and  C_45
REMARK   18  A    between atoms: C_58  and  O_59
REMARK   19  A    between atoms: C_65  and  O_66
REMARK   20  A    between atoms: N_72  and  C_73
REMARK   21  A    between atoms: C_73  and  N_74
REMARK   22  A    between atoms: C_78  and  C_79
REMARK   23  A    between atoms: C_79  and  C_80
REMARK   24  A    between atoms: C_86  and  C_87
REMARK   25  A    between atoms: C_87  and  C_88
REMARK   26  A    between atoms: C_87  and  O_89
REMARK                            x       y       z     vdW  Elec       q    Type
REMARK                         _______ _______ _______ _____ _____    ______ ____
ROOT
ATOM      1  C   UNL     1      -4.958  -1.583 131.533  0.00  0.00    +0.000 C 
ATOM      2  O   UNL     1      -3.900  -1.287 130.952  0.00  0.00    +0.000 OA
ATOM      3  N   UNL     1      -6.167  -0.521 131.587  0.00  0.00    +0.000 N 
ATOM      4  C   UNL     1      -7.463  -0.409 132.465  0.00  0.00    +0.000 C 
ATOM      5  C   UNL     1      -8.843  -0.261 131.528  0.00  0.00    +0.000 C 
ATOM      6  C   UNL     1      -8.216   0.586 130.478  0.00  0.00    +0.000 C 
ATOM      7  C   UNL     1      -6.595   0.140 130.304  0.00  0.00    +0.000 C 
ENDROOT
BRANCH   1  21
ATOM      8  C   UNL     1      -5.733  -2.887 139.307  0.00  0.00    +0.000 C 
ATOM      9  N   UNL     1      -3.653  -3.390 139.468  0.00  0.00    +0.000 N 
ATOM     10  C   UNL     1      -1.651  -3.668 139.531  0.00  0.00    +0.000 C 
ATOM     11  O   UNL     1      -0.978  -4.824 139.991  0.00  0.00    +0.000 OA
ATOM     12  C   UNL     1       0.362  -3.176 138.994  0.00  0.00    +0.000 C 
ATOM     13  N   UNL     1       1.251  -3.287 137.479  0.00  0.00    +0.000 N 
ATOM     14  C   UNL     1       0.733  -3.990 136.428  0.00  0.00    +0.000 C 
ATOM     15  O   UNL     1       1.123  -3.884 135.272  0.00  0.00    +0.000 OA
ATOM     16  C   UNL     1      -0.514  -4.792 136.741  0.00  0.00    +0.000 C 
ATOM     17  C   UNL     1      -1.827  -4.199 136.405  0.00  0.00    +0.000 C 
ATOM     18  S   UNL     1      -1.542  -4.717 134.850  0.00  0.00    +0.000 S 
ATOM     19  S   UNL     1      -3.544  -4.778 134.578  0.00  0.00    +0.000 S 
ATOM     20  C   UNL     1      -4.178  -4.290 132.080  0.00  0.00    +0.000 C 
ATOM     21  C   UNL     1      -5.208  -3.366 131.479  0.00  0.00    +0.000 C 
ATOM     22  N   UNL     1      -6.348  -3.921 132.188  0.00  0.00    +0.000 N 
ATOM     23  C   UNL     1      -5.935  -4.322 133.447  0.00  0.00    +0.000 C 
ATOM     24  O   UNL     1      -5.728  -5.538 133.607  0.00  0.00    +0.000 OA
ATOM     25  C   UNL     1      -5.426  -3.368 134.623  0.00  0.00    +0.000 C 
ATOM     26  N   UNL     1      -5.978  -2.432 135.571  0.00  0.00    +0.000 N 
ATOM     27  C   UNL     1      -6.995  -2.622 136.430  0.00  0.00    +0.000 C 
ATOM     28  O   UNL     1      -7.513  -1.595 136.847  0.00  0.00    +0.000 OA
ATOM     29  C   UNL     1      -7.478  -4.030 136.754  0.00  0.00    +0.000 C 
ATOM     30  N   UNL     1      -7.388  -4.516 138.093  0.00  0.00    +0.000 N 
ATOM     31  C   UNL     1      -7.024  -3.965 139.276  0.00  0.00    +0.000 C 
ATOM     32  O   UNL     1      -7.870  -4.121 140.173  0.00  0.00    +0.000 OA
ATOM     33  H   UNL     1      -2.995  -4.071 140.187  0.00  0.00    +0.000 HD
ATOM     34  H   UNL     1       2.118  -2.751 137.135  0.00  0.00    +0.000 HD
ATOM     35  H   UNL     1      -6.712  -4.739 131.694  0.00  0.00    +0.000 HD
ATOM     36  H   UNL     1      -5.830  -1.457 135.475  0.00  0.00    +0.000 HD
ATOM     37  H   UNL     1      -6.672  -5.180 138.057  0.00  0.00    +0.000 HD
BRANCH  12  38
ATOM     38  C   UNL     1      -0.029  -1.817 139.150  0.00  0.00    +0.000 A 
ATOM     39  C   UNL     1       0.196  -1.305 137.862  0.00  0.00    +0.000 A 
ATOM     40  C   UNL     1       1.113  -0.288 137.848  0.00  0.00    +0.000 A 
ATOM     41  C   UNL     1       1.651   0.162 139.068  0.00  0.00    +0.000 A 
ATOM     42  C   UNL     1       1.408  -0.471 140.281  0.00  0.00    +0.000 A 
ATOM     43  C   UNL     1       0.468  -1.434 140.376  0.00  0.00    +0.000 A 
BRANCH  41  44
ATOM     44  O   UNL     1       2.527   1.190 139.162  0.00  0.00    +0.000 OA
ATOM     45  H   UNL     1       3.311   0.891 139.638  0.00  0.00    +0.000 HD
ENDBRANCH  41  44
ENDBRANCH  12  38
BRANCH   8  46
ATOM     46  C   UNL     1      -7.825  -1.968 139.260  0.00  0.00    +0.000 C 
ATOM     47  C   UNL     1      -8.923  -0.525 140.098  0.00  0.00    +0.000 C 
BRANCH  46  49
ATOM     48  C   UNL     1     -10.403  -3.153 139.242  0.00  0.00    +0.000 C 
ATOM     49  C   UNL     1      -9.783  -1.971 138.597  0.00  0.00    +0.000 C 
ENDBRANCH  46  49
ENDBRANCH   8  46
BRANCH  29  50
ATOM     50  C   UNL     1      -6.851  -5.062 135.872  0.00  0.00    +0.000 C 
ATOM     51  C   UNL     1      -6.179  -6.269 136.306  0.00  0.00    +0.000 C 
BRANCH  50  52
ATOM     52  O   UNL     1      -7.995  -5.502 135.222  0.00  0.00    +0.000 OA
ATOM     53  H   UNL     1      -8.900  -5.737 135.527  0.00  0.00    +0.000 HD
ENDBRANCH  50  52
ENDBRANCH  29  50
BRANCH  16  54
ATOM     54  O   UNL     1      -0.934  -4.629 137.967  0.00  0.00    +0.000 OA
ATOM     55  H   UNL     1      -0.326  -3.902 138.168  0.00  0.00    +0.000 HD
ENDBRANCH  16  54
BRANCH  25  56
ATOM     56  C   UNL     1      -4.332  -2.967 133.637  0.00  0.00    +0.000 C 
BRANCH  56  57
ATOM     57  C   UNL     1      -2.820  -1.571 133.651  0.00  0.00    +0.000 C 
ATOM     58  N   UNL     1      -3.637  -0.175 134.599  0.00  0.00    +0.000 N 
ATOM     59  O   UNL     1      -1.616  -1.685 133.510  0.00  0.00    +0.000 OA
ATOM     60  H   UNL     1      -4.816  -0.372 134.523  0.00  0.00    +0.000 HD
ATOM     61  H   UNL     1      -3.498   0.723 134.897  0.00  0.00    +0.000 HD
ENDBRANCH  56  57
ENDBRANCH  25  56
ENDBRANCH   1  21
BRANCH   7  62
ATOM     62  C   UNL     1      -6.316  -0.311 128.807  0.00  0.00    +0.000 C 
ATOM     63  O   UNL     1      -5.484   0.381 128.210  0.00  0.00    +0.000 OA
ATOM     64  N   UNL     1      -7.152  -1.206 128.099  0.00  0.00    +0.000 N 
ATOM     65  H   UNL     1      -8.060  -1.267 128.401  0.00  0.00    +0.000 HD
BRANCH  64  66
ATOM     66  C   UNL     1      -7.284  -1.485 126.609  0.00  0.00    +0.000 C 
BRANCH  66  67
ATOM     67  C   UNL     1      -6.243  -1.925 125.481  0.00  0.00    +0.000 C 
ATOM     68  O   UNL     1      -5.263  -1.181 125.340  0.00  0.00    +0.000 OA
ATOM     69  N   UNL     1      -6.299  -2.249 124.175  0.00  0.00    +0.000 N 
ATOM     70  H   UNL     1      -6.246  -1.281 123.896  0.00  0.00    +0.000 HD
BRANCH  69  71
ATOM     71  C   UNL     1      -5.157  -2.913 123.531  0.00  0.00    +0.000 C 
BRANCH  71  72
ATOM     72  N   UNL     1      -4.826  -4.086 124.288  0.00  0.00    +0.000 NA
ATOM     73  H   UNL     1      -4.849  -3.836 125.272  0.00  0.00    +0.000 HD
ATOM     74  H   UNL     1      -3.858  -4.340 124.078  0.00  0.00    +0.000 HD
ENDBRANCH  71  72
ENDBRANCH  69  71
ENDBRANCH  66  67
BRANCH  66  75
ATOM     75  C   UNL     1      -7.366  -0.080 126.211  0.00  0.00    +0.000 C 
BRANCH  75  76
ATOM     76  C   UNL     1      -8.774   0.329 126.084  0.00  0.00    +0.000 C 
BRANCH  76  77
ATOM     77  C   UNL     1      -9.013   1.534 126.880  0.00  0.00    +0.000 C 
BRANCH  77  78
ATOM     78  C   UNL     1      -7.847   2.491 126.705  0.00  0.00    +0.000 C 
BRANCH  78  79
ATOM     79  N   UNL     1      -7.424   3.033 128.039  0.00  0.00    +0.000 N 
ATOM     80  C   UNL     1      -7.864   4.280 128.534  0.00  0.00    +0.000 C 
ATOM     81  O   UNL     1      -8.624   4.909 127.778  0.00  0.00    +0.000 OA
ATOM     82  H   UNL     1      -6.803   2.431 128.547  0.00  0.00    +0.000 HD
BRANCH  80  83
ATOM     83  C   UNL     1      -7.528   4.981 129.983  0.00  0.00    +0.000 A 
ATOM     84  C   UNL     1      -8.247   4.548 130.961  0.00  0.00    +0.000 A 
ATOM     85  C   UNL     1      -8.365   5.516 132.111  0.00  0.00    +0.000 A 
ATOM     86  C   UNL     1      -8.532   4.895 133.143  0.00  0.00    +0.000 A 
ATOM     87  C   UNL     1      -7.568   5.637 132.885  0.00  0.00    +0.000 A 
ATOM     88  C   UNL     1      -6.896   5.762 130.988  0.00  0.00    +0.000 A 
ATOM     89  C   UNL     1      -7.553   5.685 134.810  0.00  0.00    +0.000 C 
ATOM     90  O   UNL     1      -8.228   4.213 135.076  0.00  0.00    +0.000 OA
ATOM     91  C   UNL     1      -8.897   3.862 133.955  0.00  0.00    +0.000 C 
ATOM     92  O   UNL     1      -9.394   2.953 133.314  0.00  0.00    +0.000 OA
ATOM     93  C   UNL     1      -7.741   6.420 136.500  0.00  0.00    +0.000 A 
ATOM     94  C   UNL     1      -8.638   7.317 137.216  0.00  0.00    +0.000 A 
ATOM     95  C   UNL     1      -8.183   8.238 138.297  0.00  0.00    +0.000 A 
ATOM     96  C   UNL     1      -6.882   8.170 138.783  0.00  0.00    +0.000 A 
ATOM     97  C   UNL     1      -6.093   7.126 138.333  0.00  0.00    +0.000 A 
ATOM     98  C   UNL     1      -6.559   6.225 137.314  0.00  0.00    +0.000 A 
ATOM     99  O   UNL     1      -5.704   5.170 137.054  0.00  0.00    +0.000 OA
ATOM    100  C   UNL     1      -5.440   4.991 135.740  0.00  0.00    +0.000 A 
ATOM    101  C   UNL     1      -4.615   3.978 135.303  0.00  0.00    +0.000 A 
ATOM    102  C   UNL     1      -4.366   3.767 133.947  0.00  0.00    +0.000 A 
ATOM    103  C   UNL     1      -4.802   4.681 133.041  0.00  0.00    +0.000 A 
ATOM    104  C   UNL     1      -5.382   5.812 133.556  0.00  0.00    +0.000 A 
ATOM    105  C   UNL     1      -6.041   5.712 134.776  0.00  0.00    +0.000 A 
BRANCH 102 106
ATOM    106  O   UNL     1      -3.615   2.748 133.465  0.00  0.00    +0.000 OA
ATOM    107  H   UNL     1      -3.498   2.830 132.508  0.00  0.00    +0.000 HD
ENDBRANCH 102 106
BRANCH  96 108
ATOM    108  O   UNL     1      -6.315   9.040 139.674  0.00  0.00    +0.000 OA
ATOM    109  H   UNL     1      -5.623   9.599 139.284  0.00  0.00    +0.000 HD
ENDBRANCH  96 108
ENDBRANCH  80  83
ENDBRANCH  78  79
ENDBRANCH  77  78
ENDBRANCH  76  77
ENDBRANCH  75  76
ENDBRANCH  66  75
ENDBRANCH  64  66
ENDBRANCH   7  62
TORSDOF 23
ENDMDL
MODEL 7
REMARK VINA RESULT:     -10.2      2.924      6.063
REMARK  Name = CHEMBL1790729
REMARK  26 active torsions:
REMARK  status: ('A' for Active; 'I' for Inactive)
REMARK    1  A    between atoms: C_1  and  C_2
REMARK    2  A    between atoms: C_2  and  C_3
REMARK    3  A    between atoms: C_3  and  C_4
REMARK    4  A    between atoms: C_3  and  C_5
REMARK    5  A    between atoms: C_9  and  C_10
REMARK    6  A    between atoms: C_13  and  O_14
REMARK    7  A    between atoms: C_20  and  O_21
REMARK    8  A    between atoms: C_26  and  C_27
REMARK    9  A    between atoms: C_33  and  C_34
REMARK   10  A    between atoms: N_36  and  C_37
REMARK   11  A    between atoms: C_37  and  C_38
REMARK   12  A    between atoms: C_37  and  C_70
REMARK   13  A    between atoms: C_38  and  C_39
REMARK   14  A    between atoms: C_39  and  C_40
REMARK   15  A    between atoms: C_40  and  C_41
REMARK   16  A    between atoms: C_41  and  N_42
REMARK   17  A    between atoms: C_43  and  C_45
REMARK   18  A    between atoms: C_58  and  O_59
REMARK   19  A    between atoms: C_65  and  O_66
REMARK   20  A    between atoms: N_72  and  C_73
REMARK   21  A    between atoms: C_73  and  N_74
REMARK   22  A    between atoms: C_78  and  C_79
REMARK   23  A    between atoms: C_79  and  C_80
REMARK   24  A    between atoms: C_86  and  C_87
REMARK   25  A    between atoms: C_87  and  C_88
REMARK   26  A    between atoms: C_87  and  O_89
REMARK                            x       y       z     vdW  Elec       q    Type
REMARK                         _______ _______ _______ _____ _____    ______ ____
ROOT
ATOM      1  C   UNL     1      -5.726   1.563 126.692  0.00  0.00    +0.000 C 
ATOM      2  O   UNL     1      -4.684   1.040 126.263  0.00  0.00    +0.000 OA
ATOM      3  N   UNL     1      -6.465   2.703 125.828  0.00  0.00    +0.000 N 
ATOM      4  C   UNL     1      -7.558   3.776 126.172  0.00  0.00    +0.000 C 
ATOM      5  C   UNL     1      -8.865   3.694 125.130  0.00  0.00    +0.000 C 
ATOM      6  C   UNL     1      -8.066   3.369 123.918  0.00  0.00    +0.000 C 
ATOM      7  C   UNL     1      -6.733   2.434 124.371  0.00  0.00    +0.000 C 
ENDROOT
BRANCH   1  21
ATOM      8  C   UNL     1      -8.744   6.759 131.852  0.00  0.00    +0.000 C 
ATOM      9  N   UNL     1      -7.102   6.435 133.196  0.00  0.00    +0.000 N 
ATOM     10  C   UNL     1      -5.424   6.183 134.296  0.00  0.00    +0.000 C 
ATOM     11  O   UNL     1      -5.359   5.759 135.644  0.00  0.00    +0.000 OA
ATOM     12  C   UNL     1      -3.307   5.959 134.524  0.00  0.00    +0.000 C 
ATOM     13  N   UNL     1      -2.193   4.669 134.087  0.00  0.00    +0.000 N 
ATOM     14  C   UNL     1      -2.671   3.445 133.711  0.00  0.00    +0.000 C 
ATOM     15  O   UNL     1      -2.008   2.600 133.123  0.00  0.00    +0.000 OA
ATOM     16  C   UNL     1      -4.163   3.253 133.895  0.00  0.00    +0.000 C 
ATOM     17  C   UNL     1      -5.040   3.453 132.721  0.00  0.00    +0.000 C 
ATOM     18  S   UNL     1      -4.611   1.909 132.272  0.00  0.00    +0.000 S 
ATOM     19  S   UNL     1      -6.366   1.785 131.276  0.00  0.00    +0.000 S 
ATOM     20  C   UNL     1      -6.163   0.214 129.186  0.00  0.00    +0.000 C 
ATOM     21  C   UNL     1      -6.602   0.402 127.755  0.00  0.00    +0.000 C 
ATOM     22  N   UNL     1      -7.999   0.665 128.054  0.00  0.00    +0.000 N 
ATOM     23  C   UNL     1      -8.075   1.353 129.253  0.00  0.00    +0.000 C 
ATOM     24  O   UNL     1      -8.379   0.689 130.259  0.00  0.00    +0.000 OA
ATOM     25  C   UNL     1      -7.540   2.833 129.530  0.00  0.00    +0.000 C 
ATOM     26  N   UNL     1      -7.911   4.191 129.219  0.00  0.00    +0.000 N 
ATOM     27  C   UNL     1      -9.098   4.793 129.413  0.00  0.00    +0.000 C 
ATOM     28  O   UNL     1      -9.279   5.799 128.742  0.00  0.00    +0.000 OA
ATOM     29  C   UNL     1     -10.133   4.177 130.346  0.00  0.00    +0.000 C 
ATOM     30  N   UNL     1     -10.549   4.892 131.509  0.00  0.00    +0.000 N 
ATOM     31  C   UNL     1     -10.296   6.129 131.998  0.00  0.00    +0.000 C 
ATOM     32  O   UNL     1     -11.326   6.771 132.267  0.00  0.00    +0.000 OA
ATOM     33  H   UNL     1      -6.936   6.513 134.371  0.00  0.00    +0.000 HD
ATOM     34  H   UNL     1      -1.134   4.692 133.899  0.00  0.00    +0.000 HD
ATOM     35  H   UNL     1      -8.513  -0.213 128.153  0.00  0.00    +0.000 HD
ATOM     36  H   UNL     1      -7.393   4.728 128.568  0.00  0.00    +0.000 HD
ATOM     37  H   UNL     1     -10.145   4.396 132.249  0.00  0.00    +0.000 HD
BRANCH  12  38
ATOM     38  C   UNL     1      -3.189   6.968 133.527  0.00  0.00    +0.000 A 
ATOM     39  C   UNL     1      -2.312   6.365 132.612  0.00  0.00    +0.000 A 
ATOM     40  C   UNL     1      -1.153   7.073 132.441  0.00  0.00    +0.000 A 
ATOM     41  C   UNL     1      -1.000   8.301 133.111  0.00  0.00    +0.000 A 
ATOM     42  C   UNL     1      -1.908   8.768 134.053  0.00  0.00    +0.000 A 
ATOM     43  C   UNL     1      -3.098   8.155 134.221  0.00  0.00    +0.000 A 
BRANCH  41  44
ATOM     44  O   UNL     1       0.087   9.097 132.970  0.00  0.00    +0.000 OA
ATOM     45  H   UNL     1       0.782   8.784 133.563  0.00  0.00    +0.000 HD
ENDBRANCH  41  44
ENDBRANCH  12  38
BRANCH   8  46
ATOM     46  C   UNL     1     -10.269   7.436 130.291  0.00  0.00    +0.000 C 
ATOM     47  C   UNL     1     -10.401   8.384 128.537  0.00  0.00    +0.000 C 
BRANCH  46  49
ATOM     48  C   UNL     1     -12.615   6.354 129.120  0.00  0.00    +0.000 C 
ATOM     49  C   UNL     1     -12.223   7.676 129.662  0.00  0.00    +0.000 C 
ENDBRANCH  46  49
ENDBRANCH   8  46
BRANCH  29  50
ATOM     50  C   UNL     1      -9.745   2.803 130.793  0.00  0.00    +0.000 C 
ATOM     51  C   UNL     1      -9.613   2.351 132.163  0.00  0.00    +0.000 C 
BRANCH  50  52
ATOM     52  O   UNL     1     -10.834   2.106 130.290  0.00  0.00    +0.000 OA
ATOM     53  H   UNL     1     -11.350   2.165 129.454  0.00  0.00    +0.000 HD
ENDBRANCH  50  52
ENDBRANCH  29  50
BRANCH  16  54
ATOM     54  O   UNL     1      -4.769   4.325 134.329  0.00  0.00    +0.000 OA
ATOM     55  H   UNL     1      -4.175   4.944 133.880  0.00  0.00    +0.000 HD
ENDBRANCH  16  54
BRANCH  25  56
ATOM     56  C   UNL     1      -6.177   2.262 129.151  0.00  0.00    +0.000 C 
BRANCH  56  57
ATOM     57  C   UNL     1      -4.301   3.066 128.886  0.00  0.00    +0.000 C 
ATOM     58  N   UNL     1      -4.600   4.841 129.414  0.00  0.00    +0.000 N 
ATOM     59  O   UNL     1      -3.201   2.548 128.836  0.00  0.00    +0.000 OA
ATOM     60  H   UNL     1      -5.782   5.012 129.334  0.00  0.00    +0.000 HD
ATOM     61  H   UNL     1      -4.173   5.694 129.483  0.00  0.00    +0.000 HD
ENDBRANCH  56  57
ENDBRANCH  25  56
ENDBRANCH   1  21
BRANCH   7  62
ATOM     62  C   UNL     1      -6.759   1.046 123.600  0.00  0.00    +0.000 C 
ATOM     63  O   UNL     1      -7.602   0.977 122.699  0.00  0.00    +0.000 OA
ATOM     64  N   UNL     1      -6.120  -0.120 124.082  0.00  0.00    +0.000 N 
ATOM     65  H   UNL     1      -5.967  -0.160 125.028  0.00  0.00    +0.000 HD
BRANCH  64  66
ATOM     66  C   UNL     1      -6.306  -1.586 123.719  0.00  0.00    +0.000 C 
BRANCH  66  67
ATOM     67  C   UNL     1      -7.584  -2.540 123.635  0.00  0.00    +0.000 C 
ATOM     68  O   UNL     1      -7.343  -3.755 123.619  0.00  0.00    +0.000 OA
ATOM     69  N   UNL     1      -8.666  -2.652 122.842  0.00  0.00    +0.000 N 
ATOM     70  H   UNL     1      -8.161  -3.212 122.171  0.00  0.00    +0.000 HD
BRANCH  69  71
ATOM     71  C   UNL     1      -9.808  -3.474 123.266  0.00  0.00    +0.000 C 
BRANCH  71  72
ATOM     72  N   UNL     1      -9.967  -3.333 124.685  0.00  0.00    +0.000 NA
ATOM     73  H   UNL     1      -9.717  -4.218 125.114  0.00  0.00    +0.000 HD
ATOM     74  H   UNL     1     -10.960  -3.188 124.882  0.00  0.00    +0.000 HD
ENDBRANCH  71  72
ENDBRANCH  69  71
ENDBRANCH  66  67
BRANCH  66  75
ATOM     75  C   UNL     1      -5.800  -2.108 124.987  0.00  0.00    +0.000 C 
BRANCH  75  76
ATOM     76  C   UNL     1      -6.851  -2.052 126.015  0.00  0.00    +0.000 C 
BRANCH  76  77
ATOM     77  C   UNL     1      -6.578  -3.043 127.057  0.00  0.00    +0.000 C 
BRANCH  77  78
ATOM     78  C   UNL     1      -7.877  -3.418 127.748  0.00  0.00    +0.000 C 
BRANCH  78  79
ATOM     79  N   UNL     1      -7.975  -2.716 129.071  0.00  0.00    +0.000 N 
ATOM     80  C   UNL     1      -7.286  -3.152 130.224  0.00  0.00    +0.000 C 
ATOM     81  O   UNL     1      -6.594  -4.173 130.069  0.00  0.00    +0.000 OA
ATOM     82  H   UNL     1      -8.573  -1.911 129.064  0.00  0.00    +0.000 HD
BRANCH  80  83
ATOM     83  C   UNL     1      -7.257  -2.468 131.718  0.00  0.00    +0.000 A 
ATOM     84  C   UNL     1      -7.432  -3.301 132.687  0.00  0.00    +0.000 A 
ATOM     85  C   UNL     1      -7.960  -2.671 133.950  0.00  0.00    +0.000 A 
ATOM     86  C   UNL     1      -7.581  -3.315 134.909  0.00  0.00    +0.000 A 
ATOM     87  C   UNL     1      -7.307  -2.125 134.673  0.00  0.00    +0.000 A 
ATOM     88  C   UNL     1      -7.103  -1.516 132.762  0.00  0.00    +0.000 A 
ATOM     89  C   UNL     1      -7.072  -2.176 136.585  0.00  0.00    +0.000 C 
ATOM     90  O   UNL     1      -6.676  -3.763 136.718  0.00  0.00    +0.000 OA
ATOM     91  C   UNL     1      -7.136  -4.393 135.615  0.00  0.00    +0.000 C 
ATOM     92  O   UNL     1      -7.059  -5.381 134.907  0.00  0.00    +0.000 OA
ATOM     93  C   UNL     1      -7.444  -1.799 138.360  0.00  0.00    +0.000 A 
ATOM     94  C   UNL     1      -8.598  -1.682 139.241  0.00  0.00    +0.000 A 
ATOM     95  C   UNL     1      -8.657  -0.733 140.389  0.00  0.00    +0.000 A 
ATOM     96  C   UNL     1      -7.531  -0.011 140.769  0.00  0.00    +0.000 A 
ATOM     97  C   UNL     1      -6.338  -0.325 140.141  0.00  0.00    +0.000 A 
ATOM     98  C   UNL     1      -6.292  -1.267 139.057  0.00  0.00    +0.000 A 
ATOM     99  O   UNL     1      -5.016  -1.558 138.611  0.00  0.00    +0.000 OA
ATOM    100  C   UNL     1      -4.872  -1.470 137.269  0.00  0.00    +0.000 A 
ATOM    101  C   UNL     1      -3.667  -1.737 136.656  0.00  0.00    +0.000 A 
ATOM    102  C   UNL     1      -3.522  -1.680 135.270  0.00  0.00    +0.000 A 
ATOM    103  C   UNL     1      -4.536  -1.184 134.514  0.00  0.00    +0.000 A 
ATOM    104  C   UNL     1      -5.609  -0.677 135.202  0.00  0.00    +0.000 A 
ATOM    105  C   UNL     1      -5.906  -1.222 136.445  0.00  0.00    +0.000 A 
BRANCH 102 106
ATOM    106  O   UNL     1      -2.378  -1.996 134.616  0.00  0.00    +0.000 OA
ATOM    107  H   UNL     1      -1.939  -2.749 135.036  0.00  0.00    +0.000 HD
ENDBRANCH 102 106
BRANCH  96 108
ATOM    108  O   UNL     1      -7.496   0.977 141.716  0.00  0.00    +0.000 OA
ATOM    109  H   UNL     1      -7.580   1.871 141.346  0.00  0.00    +0.000 HD
ENDBRANCH  96 108
ENDBRANCH  80  83
ENDBRANCH  78  79
ENDBRANCH  77  78
ENDBRANCH  76  77
ENDBRANCH  75  76
ENDBRANCH  66  75
ENDBRANCH  64  66
ENDBRANCH   7  62
TORSDOF 23
ENDMDL
MODEL 8
REMARK VINA RESULT:     -10.0      3.222     11.192
REMARK  Name = CHEMBL1790729
REMARK  26 active torsions:
REMARK  status: ('A' for Active; 'I' for Inactive)
REMARK    1  A    between atoms: C_1  and  C_2
REMARK    2  A    between atoms: C_2  and  C_3
REMARK    3  A    between atoms: C_3  and  C_4
REMARK    4  A    between atoms: C_3  and  C_5
REMARK    5  A    between atoms: C_9  and  C_10
REMARK    6  A    between atoms: C_13  and  O_14
REMARK    7  A    between atoms: C_20  and  O_21
REMARK    8  A    between atoms: C_26  and  C_27
REMARK    9  A    between atoms: C_33  and  C_34
REMARK   10  A    between atoms: N_36  and  C_37
REMARK   11  A    between atoms: C_37  and  C_38
REMARK   12  A    between atoms: C_37  and  C_70
REMARK   13  A    between atoms: C_38  and  C_39
REMARK   14  A    between atoms: C_39  and  C_40
REMARK   15  A    between atoms: C_40  and  C_41
REMARK   16  A    between atoms: C_41  and  N_42
REMARK   17  A    between atoms: C_43  and  C_45
REMARK   18  A    between atoms: C_58  and  O_59
REMARK   19  A    between atoms: C_65  and  O_66
REMARK   20  A    between atoms: N_72  and  C_73
REMARK   21  A    between atoms: C_73  and  N_74
REMARK   22  A    between atoms: C_78  and  C_79
REMARK   23  A    between atoms: C_79  and  C_80
REMARK   24  A    between atoms: C_86  and  C_87
REMARK   25  A    between atoms: C_87  and  C_88
REMARK   26  A    between atoms: C_87  and  O_89
REMARK                            x       y       z     vdW  Elec       q    Type
REMARK                         _______ _______ _______ _____ _____    ______ ____
ROOT
ATOM      1  C   UNL     1      -4.656   5.190 129.901  0.00  0.00    +0.000 C 
ATOM      2  O   UNL     1      -4.396   6.037 129.030  0.00  0.00    +0.000 OA
ATOM      3  N   UNL     1      -3.488   4.648 130.867  0.00  0.00    +0.000 N 
ATOM      4  C   UNL     1      -3.365   3.403 131.814  0.00  0.00    +0.000 C 
ATOM      5  C   UNL     1      -2.930   3.840 133.370  0.00  0.00    +0.000 C 
ATOM      6  C   UNL     1      -2.012   4.937 132.963  0.00  0.00    +0.000 C 
ATOM      7  C   UNL     1      -2.602   5.655 131.551  0.00  0.00    +0.000 C 
ENDROOT
BRANCH   1  21
ATOM      8  C   UNL     1      -6.340  -2.499 130.783  0.00  0.00    +0.000 C 
ATOM      9  N   UNL     1      -7.160  -2.585 128.802  0.00  0.00    +0.000 N 
ATOM     10  C   UNL     1      -7.741  -2.590 126.865  0.00  0.00    +0.000 C 
ATOM     11  O   UNL     1      -9.013  -2.961 126.370  0.00  0.00    +0.000 OA
ATOM     12  C   UNL     1      -7.523  -2.044 124.806  0.00  0.00    +0.000 C 
ATOM     13  N   UNL     1      -7.667  -0.507 123.961  0.00  0.00    +0.000 N 
ATOM     14  C   UNL     1      -8.213   0.576 124.591  0.00  0.00    +0.000 C 
ATOM     15  O   UNL     1      -8.090   1.730 124.201  0.00  0.00    +0.000 OA
ATOM     16  C   UNL     1      -8.837   0.289 125.941  0.00  0.00    +0.000 C 
ATOM     17  C   UNL     1      -8.031   0.559 127.152  0.00  0.00    +0.000 C 
ATOM     18  S   UNL     1      -8.483   2.150 126.966  0.00  0.00    +0.000 S 
ATOM     19  S   UNL     1      -8.222   2.385 128.956  0.00  0.00    +0.000 S 
ATOM     20  C   UNL     1      -7.480   4.833 129.536  0.00  0.00    +0.000 C 
ATOM     21  C   UNL     1      -6.374   5.353 130.420  0.00  0.00    +0.000 C 
ATOM     22  N   UNL     1      -6.796   4.657 131.623  0.00  0.00    +0.000 N 
ATOM     23  C   UNL     1      -7.337   3.435 131.263  0.00  0.00    +0.000 C 
ATOM     24  O   UNL     1      -8.578   3.357 131.240  0.00  0.00    +0.000 OA
ATOM     25  C   UNL     1      -6.551   2.210 130.602  0.00  0.00    +0.000 C 
ATOM     26  N   UNL     1      -5.607   1.194 130.995  0.00  0.00    +0.000 N 
ATOM     27  C   UNL     1      -5.697   0.328 132.021  0.00  0.00    +0.000 C 
ATOM     28  O   UNL     1      -4.635  -0.164 132.372  0.00  0.00    +0.000 OA
ATOM     29  C   UNL     1      -7.035   0.084 132.708  0.00  0.00    +0.000 C 
ATOM     30  N   UNL     1      -7.616  -1.219 132.679  0.00  0.00    +0.000 N 
ATOM     31  C   UNL     1      -7.206  -2.426 132.223  0.00  0.00    +0.000 C 
ATOM     32  O   UNL     1      -7.292  -3.328 133.073  0.00  0.00    +0.000 OA
ATOM     33  H   UNL     1      -7.979  -3.246 128.247  0.00  0.00    +0.000 HD
ATOM     34  H   UNL     1      -7.246  -0.180 123.026  0.00  0.00    +0.000 HD
ATOM     35  H   UNL     1      -7.515   5.195 132.112  0.00  0.00    +0.000 HD
ATOM     36  H   UNL     1      -4.661   1.231 130.702  0.00  0.00    +0.000 HD
ATOM     37  H   UNL     1      -8.377  -1.125 132.072  0.00  0.00    +0.000 HD
BRANCH  12  38
ATOM     38  C   UNL     1      -6.134  -2.294 124.984  0.00  0.00    +0.000 A 
ATOM     39  C   UNL     1      -5.594  -1.768 123.800  0.00  0.00    +0.000 A 
ATOM     40  C   UNL     1      -4.933  -2.707 123.055  0.00  0.00    +0.000 A 
ATOM     41  C   UNL     1      -4.808  -4.015 123.562  0.00  0.00    +0.000 A 
ATOM     42  C   UNL     1      -5.449  -4.443 124.718  0.00  0.00    +0.000 A 
ATOM     43  C   UNL     1      -6.060  -3.556 125.531  0.00  0.00    +0.000 A 
BRANCH  41  44
ATOM     44  O   UNL     1      -4.133  -5.000 122.923  0.00  0.00    +0.000 OA
ATOM     45  H   UNL     1      -4.683  -5.343 122.208  0.00  0.00    +0.000 HD
ENDBRANCH  41  44
ENDBRANCH  12  38
BRANCH   8  46
ATOM     46  C   UNL     1      -5.115  -2.554 132.712  0.00  0.00    +0.000 C 
ATOM     47  C   UNL     1      -3.230  -2.556 133.372  0.00  0.00    +0.000 C 
BRANCH  46  49
ATOM     48  C   UNL     1      -5.380  -1.405 135.292  0.00  0.00    +0.000 C 
ATOM     49  C   UNL     1      -4.993  -2.735 134.767  0.00  0.00    +0.000 C 
ENDBRANCH  46  49
ENDBRANCH   8  46
BRANCH  29  50
ATOM     50  C   UNL     1      -8.089   1.044 132.254  0.00  0.00    +0.000 C 
ATOM     51  C   UNL     1      -9.439   0.708 131.850  0.00  0.00    +0.000 C 
BRANCH  50  52
ATOM     52  O   UNL     1      -8.236   1.763 133.432  0.00  0.00    +0.000 OA
ATOM     53  H   UNL     1      -8.943   2.348 133.786  0.00  0.00    +0.000 HD
ENDBRANCH  50  52
ENDBRANCH  29  50
BRANCH  16  54
ATOM     54  O   UNL     1      -8.693  -0.953 126.319  0.00  0.00    +0.000 OA
ATOM     55  H   UNL     1      -8.517  -0.739 127.247  0.00  0.00    +0.000 HD
ENDBRANCH  16  54
BRANCH  25  56
ATOM     56  C   UNL     1      -6.255   3.191 129.470  0.00  0.00    +0.000 C 
BRANCH  56  57
ATOM     57  C   UNL     1      -5.169   3.094 127.725  0.00  0.00    +0.000 C 
ATOM     58  N   UNL     1      -4.529   1.333 127.806  0.00  0.00    +0.000 N 
ATOM     59  O   UNL     1      -5.226   3.751 126.702  0.00  0.00    +0.000 OA
ATOM     60  H   UNL     1      -4.607   1.008 128.955  0.00  0.00    +0.000 HD
ATOM     61  H   UNL     1      -3.965   0.709 127.351  0.00  0.00    +0.000 HD
ENDBRANCH  56  57
ENDBRANCH  25  56
ENDBRANCH   1  21
BRANCH   7  62
ATOM     62  C   UNL     1      -2.856   7.204 131.798  0.00  0.00    +0.000 C 
ATOM     63  O   UNL     1      -2.838   7.895 130.773  0.00  0.00    +0.000 OA
ATOM     64  N   UNL     1      -2.792   7.805 133.076  0.00  0.00    +0.000 N 
ATOM     65  H   UNL     1      -2.263   7.349 133.733  0.00  0.00    +0.000 HD
BRANCH  64  66
ATOM     66  C   UNL     1      -2.644   9.262 133.491  0.00  0.00    +0.000 C 
BRANCH  66  67
ATOM     67  C   UNL     1      -1.800  10.486 132.908  0.00  0.00    +0.000 C 
ATOM     68  O   UNL     1      -0.910  10.921 133.650  0.00  0.00    +0.000 OA
ATOM     69  N   UNL     1      -2.073  11.692 132.375  0.00  0.00    +0.000 N 
ATOM     70  H   UNL     1      -2.131  12.121 133.287  0.00  0.00    +0.000 HD
BRANCH  69  71
ATOM     71  C   UNL     1      -1.029  12.432 131.654  0.00  0.00    +0.000 C 
BRANCH  71  72
ATOM     72  N   UNL     1      -1.545  13.725 131.306  0.00  0.00    +0.000 NA
ATOM     73  H   UNL     1      -2.264  13.963 131.983  0.00  0.00    +0.000 HD
ATOM     74  H   UNL     1      -2.016  13.648 130.401  0.00  0.00    +0.000 HD
ENDBRANCH  71  72
ENDBRANCH  69  71
ENDBRANCH  66  67
BRANCH  66  75
ATOM     75  C   UNL     1      -1.768   8.993 134.631  0.00  0.00    +0.000 C 
BRANCH  75  76
ATOM     76  C   UNL     1      -2.549   8.445 135.752  0.00  0.00    +0.000 C 
BRANCH  76  77
ATOM     77  C   UNL     1      -3.405   9.489 136.315  0.00  0.00    +0.000 C 
BRANCH  77  78
ATOM     78  C   UNL     1      -4.585   8.845 137.021  0.00  0.00    +0.000 C 
BRANCH  78  79
ATOM     79  N   UNL     1      -4.556   7.359 136.818  0.00  0.00    +0.000 N 
ATOM     80  C   UNL     1      -4.618   6.438 137.886  0.00  0.00    +0.000 C 
ATOM     81  O   UNL     1      -4.687   6.947 139.018  0.00  0.00    +0.000 OA
ATOM     82  H   UNL     1      -4.491   7.078 135.857  0.00  0.00    +0.000 HD
BRANCH  80  83
ATOM     83  C   UNL     1      -4.642   4.795 137.820  0.00  0.00    +0.000 A 
ATOM     84  C   UNL     1      -3.516   4.236 138.103  0.00  0.00    +0.000 A 
ATOM     85  C   UNL     1      -3.354   2.854 137.523  0.00  0.00    +0.000 A 
ATOM     86  C   UNL     1      -2.615   2.203 138.235  0.00  0.00    +0.000 A 
ATOM     87  C   UNL     1      -3.807   1.945 137.990  0.00  0.00    +0.000 A 
ATOM     88  C   UNL     1      -5.109   3.458 137.710  0.00  0.00    +0.000 A 
ATOM     89  C   UNL     1      -3.147   0.194 138.450  0.00  0.00    +0.000 C 
ATOM     90  O   UNL     1      -1.935   0.668 139.450  0.00  0.00    +0.000 OA
ATOM     91  C   UNL     1      -1.634   1.950 139.149  0.00  0.00    +0.000 C 
ATOM     92  O   UNL     1      -1.106   2.982 139.523  0.00  0.00    +0.000 OA
ATOM     93  C   UNL     1      -2.647  -1.568 138.172  0.00  0.00    +0.000 A 
ATOM     94  C   UNL     1      -1.946  -2.369 137.179  0.00  0.00    +0.000 A 
ATOM     95  C   UNL     1      -2.285  -3.791 136.887  0.00  0.00    +0.000 A 
ATOM     96  C   UNL     1      -3.205  -4.475 137.675  0.00  0.00    +0.000 A 
ATOM     97  C   UNL     1      -3.664  -3.833 138.811  0.00  0.00    +0.000 A 
ATOM     98  C   UNL     1      -3.300  -2.472 139.096  0.00  0.00    +0.000 A 
ATOM     99  O   UNL     1      -3.745  -2.010 140.321  0.00  0.00    +0.000 OA
ATOM    100  C   UNL     1      -4.377  -0.816 140.259  0.00  0.00    +0.000 A 
ATOM    101  C   UNL     1      -4.874  -0.205 141.390  0.00  0.00    +0.000 A 
ATOM    102  C   UNL     1      -5.498   1.041 141.337  0.00  0.00    +0.000 A 
ATOM    103  C   UNL     1      -5.780   1.593 140.127  0.00  0.00    +0.000 A 
ATOM    104  C   UNL     1      -5.509   0.814 139.031  0.00  0.00    +0.000 A 
ATOM    105  C   UNL     1      -4.469  -0.103 139.121  0.00  0.00    +0.000 A 
BRANCH 102 106
ATOM    106  O   UNL     1      -5.945   1.711 142.426  0.00  0.00    +0.000 OA
ATOM    107  H   UNL     1      -5.376   2.469 142.621  0.00  0.00    +0.000 HD
ENDBRANCH 102 106
BRANCH  96 108
ATOM    108  O   UNL     1      -3.689  -5.732 137.430  0.00  0.00    +0.000 OA
ATOM    109  H   UNL     1      -4.200  -6.101 138.170  0.00  0.00    +0.000 HD
ENDBRANCH  96 108
ENDBRANCH  80  83
ENDBRANCH  78  79
ENDBRANCH  77  78
ENDBRANCH  76  77
ENDBRANCH  75  76
ENDBRANCH  66  75
ENDBRANCH  64  66
ENDBRANCH   7  62
TORSDOF 23
ENDMDL
MODEL 9
REMARK VINA RESULT:     -10.0      2.865      5.835
REMARK  Name = CHEMBL1790729
REMARK  26 active torsions:
REMARK  status: ('A' for Active; 'I' for Inactive)
REMARK    1  A    between atoms: C_1  and  C_2
REMARK    2  A    between atoms: C_2  and  C_3
REMARK    3  A    between atoms: C_3  and  C_4
REMARK    4  A    between atoms: C_3  and  C_5
REMARK    5  A    between atoms: C_9  and  C_10
REMARK    6  A    between atoms: C_13  and  O_14
REMARK    7  A    between atoms: C_20  and  O_21
REMARK    8  A    between atoms: C_26  and  C_27
REMARK    9  A    between atoms: C_33  and  C_34
REMARK   10  A    between atoms: N_36  and  C_37
REMARK   11  A    between atoms: C_37  and  C_38
REMARK   12  A    between atoms: C_37  and  C_70
REMARK   13  A    between atoms: C_38  and  C_39
REMARK   14  A    between atoms: C_39  and  C_40
REMARK   15  A    between atoms: C_40  and  C_41
REMARK   16  A    between atoms: C_41  and  N_42
REMARK   17  A    between atoms: C_43  and  C_45
REMARK   18  A    between atoms: C_58  and  O_59
REMARK   19  A    between atoms: C_65  and  O_66
REMARK   20  A    between atoms: N_72  and  C_73
REMARK   21  A    between atoms: C_73  and  N_74
REMARK   22  A    between atoms: C_78  and  C_79
REMARK   23  A    between atoms: C_79  and  C_80
REMARK   24  A    between atoms: C_86  and  C_87
REMARK   25  A    between atoms: C_87  and  C_88
REMARK   26  A    between atoms: C_87  and  O_89
REMARK                            x       y       z     vdW  Elec       q    Type
REMARK                         _______ _______ _______ _____ _____    ______ ____
ROOT
ATOM      1  C   UNL     1      -5.349   2.104 126.422  0.00  0.00    +0.000 C 
ATOM      2  O   UNL     1      -4.268   1.686 125.975  0.00  0.00    +0.000 OA
ATOM      3  N   UNL     1      -6.148   3.261 125.637  0.00  0.00    +0.000 N 
ATOM      4  C   UNL     1      -7.314   4.229 126.043  0.00  0.00    +0.000 C 
ATOM      5  C   UNL     1      -8.596   4.150 124.969  0.00  0.00    +0.000 C 
ATOM      6  C   UNL     1      -7.756   3.979 123.753  0.00  0.00    +0.000 C 
ATOM      7  C   UNL     1      -6.372   3.097 124.158  0.00  0.00    +0.000 C 
ENDROOT
BRANCH   1  21
ATOM      8  C   UNL     1      -8.820   6.653 131.899  0.00  0.00    +0.000 C 
ATOM      9  N   UNL     1      -7.188   6.331 133.254  0.00  0.00    +0.000 N 
ATOM     10  C   UNL     1      -5.519   6.105 134.373  0.00  0.00    +0.000 C 
ATOM     11  O   UNL     1      -5.452   5.578 135.685  0.00  0.00    +0.000 OA
ATOM     12  C   UNL     1      -3.396   6.005 134.636  0.00  0.00    +0.000 C 
ATOM     13  N   UNL     1      -2.188   4.831 134.128  0.00  0.00    +0.000 N 
ATOM     14  C   UNL     1      -2.574   3.612 133.644  0.00  0.00    +0.000 C 
ATOM     15  O   UNL     1      -1.843   2.864 133.008  0.00  0.00    +0.000 OA
ATOM     16  C   UNL     1      -4.052   3.307 133.774  0.00  0.00    +0.000 C 
ATOM     17  C   UNL     1      -4.917   3.542 132.597  0.00  0.00    +0.000 C 
ATOM     18  S   UNL     1      -4.374   2.072 132.038  0.00  0.00    +0.000 S 
ATOM     19  S   UNL     1      -6.095   1.911 130.992  0.00  0.00    +0.000 S 
ATOM     20  C   UNL     1      -5.743   0.531 128.789  0.00  0.00    +0.000 C 
ATOM     21  C   UNL     1      -6.165   0.805 127.367  0.00  0.00    +0.000 C 
ATOM     22  N   UNL     1      -7.582   0.948 127.650  0.00  0.00    +0.000 N 
ATOM     23  C   UNL     1      -7.730   1.531 128.897  0.00  0.00    +0.000 C 
ATOM     24  O   UNL     1      -8.008   0.769 129.840  0.00  0.00    +0.000 OA
ATOM     25  C   UNL     1      -7.304   3.016 129.304  0.00  0.00    +0.000 C 
ATOM     26  N   UNL     1      -7.761   4.367 129.092  0.00  0.00    +0.000 N 
ATOM     27  C   UNL     1      -8.990   4.871 129.303  0.00  0.00    +0.000 C 
ATOM     28  O   UNL     1      -9.225   5.914 128.709  0.00  0.00    +0.000 OA
ATOM     29  C   UNL     1      -9.998   4.113 130.158  0.00  0.00    +0.000 C 
ATOM     30  N   UNL     1     -10.486   4.703 131.363  0.00  0.00    +0.000 N 
ATOM     31  C   UNL     1     -10.329   5.910 131.955  0.00  0.00    +0.000 C 
ATOM     32  O   UNL     1     -11.405   6.459 132.247  0.00  0.00    +0.000 OA
ATOM     33  H   UNL     1      -7.051   6.326 134.435  0.00  0.00    +0.000 HD
ATOM     34  H   UNL     1      -1.130   4.940 133.970  0.00  0.00    +0.000 HD
ATOM     35  H   UNL     1      -8.037   0.033 127.666  0.00  0.00    +0.000 HD
ATOM     36  H   UNL     1      -7.267   4.989 128.499  0.00  0.00    +0.000 HD
ATOM     37  H   UNL     1     -10.064   4.178 132.071  0.00  0.00    +0.000 HD
BRANCH  12  38
ATOM     38  C   UNL     1      -3.328   7.096 133.727  0.00  0.00    +0.000 A 
ATOM     39  C   UNL     1      -2.568   6.549 132.680  0.00  0.00    +0.000 A 
ATOM     40  C   UNL     1      -1.400   7.228 132.461  0.00  0.00    +0.000 A 
ATOM     41  C   UNL     1      -1.131   8.384 133.218  0.00  0.00    +0.000 A 
ATOM     42  C   UNL     1      -1.925   8.794 134.283  0.00  0.00    +0.000 A 
ATOM     43  C   UNL     1      -3.120   8.210 134.510  0.00  0.00    +0.000 A 
BRANCH  41  44
ATOM     44  O   UNL     1      -0.027   9.149 133.044  0.00  0.00    +0.000 OA
ATOM     45  H   UNL     1       0.711   8.747 133.517  0.00  0.00    +0.000 HD
ENDBRANCH  41  44
ENDBRANCH  12  38
BRANCH   8  46
ATOM     46  C   UNL     1     -10.356   7.350 130.357  0.00  0.00    +0.000 C 
ATOM     47  C   UNL     1     -10.507   8.362 128.641  0.00  0.00    +0.000 C 
BRANCH  46  49
ATOM     48  C   UNL     1     -12.659   6.264 129.106  0.00  0.00    +0.000 C 
ATOM     49  C   UNL     1     -12.313   7.564 129.728  0.00  0.00    +0.000 C 
ENDBRANCH  46  49
ENDBRANCH   8  46
BRANCH  29  50
ATOM     50  C   UNL     1      -9.526   2.737 130.504  0.00  0.00    +0.000 C 
ATOM     51  C   UNL     1      -9.606   2.103 131.804  0.00  0.00    +0.000 C 
BRANCH  50  52
ATOM     52  O   UNL     1     -10.393   2.012 129.698  0.00  0.00    +0.000 OA
ATOM     53  H   UNL     1     -10.280   1.510 128.860  0.00  0.00    +0.000 HD
ENDBRANCH  50  52
ENDBRANCH  29  50
BRANCH  16  54
ATOM     54  O   UNL     1      -4.739   4.298 134.276  0.00  0.00    +0.000 OA
ATOM     55  H   UNL     1      -4.204   4.371 135.080  0.00  0.00    +0.000 HD
ENDBRANCH  16  54
BRANCH  25  56
ATOM     56  C   UNL     1      -5.897   2.570 128.916  0.00  0.00    +0.000 C 
BRANCH  56  57
ATOM     57  C   UNL     1      -4.078   3.519 128.752  0.00  0.00    +0.000 C 
ATOM     58  N   UNL     1      -4.503   5.216 129.428  0.00  0.00    +0.000 N 
ATOM     59  O   UNL     1      -2.944   3.082 128.675  0.00  0.00    +0.000 OA
ATOM     60  H   UNL     1      -5.693   5.314 129.344  0.00  0.00    +0.000 HD
ATOM     61  H   UNL     1      -4.136   6.087 129.578  0.00  0.00    +0.000 HD
ENDBRANCH  56  57
ENDBRANCH  25  56
ENDBRANCH   1  21
BRANCH   7  62
ATOM     62  C   UNL     1      -6.293   1.778 123.276  0.00  0.00    +0.000 C 
ATOM     63  O   UNL     1      -6.329   1.976 122.056  0.00  0.00    +0.000 OA
ATOM     64  N   UNL     1      -6.487   0.481 123.804  0.00  0.00    +0.000 N 
ATOM     65  H   UNL     1      -7.000   0.424 124.612  0.00  0.00    +0.000 HD
BRANCH  64  66
ATOM     66  C   UNL     1      -6.807  -0.840 123.119  0.00  0.00    +0.000 C 
BRANCH  66  67
ATOM     67  C   UNL     1      -7.909  -1.967 123.375  0.00  0.00    +0.000 C 
ATOM     68  O   UNL     1      -8.260  -2.607 122.374  0.00  0.00    +0.000 OA
ATOM     69  N   UNL     1      -9.124  -2.029 123.953  0.00  0.00    +0.000 N 
ATOM     70  H   UNL     1      -9.581  -1.724 123.106  0.00  0.00    +0.000 HD
BRANCH  69  71
ATOM     71  C   UNL     1      -9.718  -3.333 124.279  0.00  0.00    +0.000 C 
BRANCH  71  72
ATOM     72  N   UNL     1     -10.119  -3.318 125.656  0.00  0.00    +0.000 NA
ATOM     73  H   UNL     1     -10.445  -4.250 125.894  0.00  0.00    +0.000 HD
ATOM     74  H   UNL     1     -10.927  -2.698 125.748  0.00  0.00    +0.000 HD
ENDBRANCH  71  72
ENDBRANCH  69  71
ENDBRANCH  66  67
BRANCH  66  75
ATOM     75  C   UNL     1      -5.687  -1.575 123.707  0.00  0.00    +0.000 C 
BRANCH  75  76
ATOM     76  C   UNL     1      -5.701  -1.435 125.172  0.00  0.00    +0.000 C 
BRANCH  76  77
ATOM     77  C   UNL     1      -5.888  -2.747 125.792  0.00  0.00    +0.000 C 
BRANCH  77  78
ATOM     78  C   UNL     1      -6.891  -2.629 126.927  0.00  0.00    +0.000 C 
BRANCH  78  79
ATOM     79  N   UNL     1      -6.185  -2.727 128.248  0.00  0.00    +0.000 N 
ATOM     80  C   UNL     1      -6.850  -3.048 129.451  0.00  0.00    +0.000 C 
ATOM     81  O   UNL     1      -8.074  -3.235 129.342  0.00  0.00    +0.000 OA
ATOM     82  H   UNL     1      -5.199  -2.545 128.199  0.00  0.00    +0.000 HD
BRANCH  80  83
ATOM     83  C   UNL     1      -6.211  -3.236 130.954  0.00  0.00    +0.000 A 
ATOM     84  C   UNL     1      -6.244  -2.172 131.682  0.00  0.00    +0.000 A 
ATOM     85  C   UNL     1      -5.210  -2.146 132.778  0.00  0.00    +0.000 A 
ATOM     86  C   UNL     1      -5.625  -1.479 133.706  0.00  0.00    +0.000 A 
ATOM     87  C   UNL     1      -5.341  -2.689 133.746  0.00  0.00    +0.000 A 
ATOM     88  C   UNL     1      -5.652  -3.833 132.116  0.00  0.00    +0.000 A 
ATOM     89  C   UNL     1      -5.136  -2.210 135.601  0.00  0.00    +0.000 C 
ATOM     90  O   UNL     1      -6.201  -0.961 135.628  0.00  0.00    +0.000 OA
ATOM     91  C   UNL     1      -6.361  -0.533 134.356  0.00  0.00    +0.000 C 
ATOM     92  O   UNL     1      -7.057   0.094 133.578  0.00  0.00    +0.000 OA
ATOM     93  C   UNL     1      -4.241  -1.887 137.190  0.00  0.00    +0.000 A 
ATOM     94  C   UNL     1      -3.008  -1.264 137.652  0.00  0.00    +0.000 A 
ATOM     95  C   UNL     1      -2.246  -1.742 138.840  0.00  0.00    +0.000 A 
ATOM     96  C   UNL     1      -2.770  -2.729 139.668  0.00  0.00    +0.000 A 
ATOM     97  C   UNL     1      -4.074  -3.127 139.427  0.00  0.00    +0.000 A 
ATOM     98  C   UNL     1      -4.808  -2.631 138.296  0.00  0.00    +0.000 A 
ATOM     99  O   UNL     1      -6.130  -3.033 138.256  0.00  0.00    +0.000 OA
ATOM    100  C   UNL     1      -6.512  -3.543 137.062  0.00  0.00    +0.000 A 
ATOM    101  C   UNL     1      -7.799  -3.982 136.846  0.00  0.00    +0.000 A 
ATOM    102  C   UNL     1      -8.207  -4.478 135.608  0.00  0.00    +0.000 A 
ATOM    103  C   UNL     1      -7.278  -4.698 134.641  0.00  0.00    +0.000 A 
ATOM    104  C   UNL     1      -5.971  -4.500 135.005  0.00  0.00    +0.000 A 
ATOM    105  C   UNL     1      -5.700  -3.558 135.989  0.00  0.00    +0.000 A 
BRANCH 102 106
ATOM    106  O   UNL     1      -9.475  -4.861 135.327  0.00  0.00    +0.000 OA
ATOM    107  H   UNL     1      -9.859  -4.301 134.638  0.00  0.00    +0.000 HD
ENDBRANCH 102 106
BRANCH  96 108
ATOM    108  O   UNL     1      -2.115  -3.335 140.705  0.00  0.00    +0.000 OA
ATOM    109  H   UNL     1      -1.310  -2.866 140.982  0.00  0.00    +0.000 HD
ENDBRANCH  96 108
ENDBRANCH  80  83
ENDBRANCH  78  79
ENDBRANCH  77  78
ENDBRANCH  76  77
ENDBRANCH  75  76
ENDBRANCH  66  75
ENDBRANCH  64  66
ENDBRANCH   7  62
TORSDOF 23
ENDMDL
