MODEL 1
REMARK VINA RESULT:     -10.9      0.000      0.000
REMARK  Name = CHEMBL31606
REMARK  4 active torsions:
REMARK  status: ('A' for Active; 'I' for Inactive)
REMARK    1  A    between atoms: C_1  and  C_2
REMARK    2  A    between atoms: C_7  and  C_8
REMARK    3  A    between atoms: C_12  and  C_13
REMARK    4  A    between atoms: C_18  and  N_19
REMARK                            x       y       z     vdW  Elec       q    Type
REMARK                         _______ _______ _______ _____ _____    ______ ____
ROOT
ATOM      1  C   UNL     1      -7.707  -0.673 131.342  0.00  0.00    +0.000 C 
ATOM      2  O   UNL     1      -7.602  -1.591 132.150  0.00  0.00    +0.000 OA
ATOM      3  N   UNL     1      -7.587  -0.880 129.977  0.00  0.00    +0.000 N 
ATOM      4  C   UNL     1      -8.322  -1.962 129.331  0.00  0.00    +0.000 C 
ATOM      5  C   UNL     1      -7.392  -2.922 128.614  0.00  0.00    +0.000 C 
ATOM      6  C   UNL     1      -6.440  -2.171 127.659  0.00  0.00    +0.000 C 
ATOM      7  C   UNL     1      -5.675  -1.087 128.431  0.00  0.00    +0.000 C 
ATOM      8  C   UNL     1      -6.597  -0.153 129.192  0.00  0.00    +0.000 C 
ENDROOT
BRANCH   6   9
ATOM      9  N   UNL     1      -7.115  -1.723 126.395  0.00  0.00    +0.000 N 
ATOM     10  C   UNL     1      -8.283  -0.959 126.355  0.00  0.00    +0.000 C 
ATOM     11  O   UNL     1      -8.555   0.047 127.000  0.00  0.00    +0.000 OA
ATOM     12  O   UNL     1      -9.233  -1.475 125.538  0.00  0.00    +0.000 OA
ATOM     13  C   UNL     1      -8.830  -1.358 124.191  0.00  0.00    +0.000 C 
ATOM     14  C   UNL     1      -7.453  -1.910 124.000  0.00  0.00    +0.000 A 
ATOM     15  C   UNL     1      -7.011  -2.185 122.705  0.00  0.00    +0.000 A 
ATOM     16  C   UNL     1      -5.727  -2.671 122.505  0.00  0.00    +0.000 A 
ATOM     17  C   UNL     1      -4.884  -2.871 123.595  0.00  0.00    +0.000 A 
ATOM     18  C   UNL     1      -5.321  -2.595 124.894  0.00  0.00    +0.000 A 
ATOM     19  C   UNL     1      -6.615  -2.115 125.113  0.00  0.00    +0.000 A 
ENDBRANCH   6   9
BRANCH   1  24
ATOM     20  C   UNL     1      -9.793   4.965 131.627  0.00  0.00    +0.000 A 
ATOM     21  C   UNL     1      -9.909   3.891 130.771  0.00  0.00    +0.000 A 
ATOM     22  C   UNL     1      -9.175   2.823 131.344  0.00  0.00    +0.000 A 
ATOM     23  C   UNL     1      -8.878   1.501 130.968  0.00  0.00    +0.000 A 
ATOM     24  C   UNL     1      -8.063   0.714 131.802  0.00  0.00    +0.000 A 
ATOM     25  C   UNL     1      -7.537   1.273 132.980  0.00  0.00    +0.000 A 
ATOM     26  C   UNL     1      -7.853   2.575 133.394  0.00  0.00    +0.000 A 
ATOM     27  C   UNL     1      -8.664   3.314 132.539  0.00  0.00    +0.000 A 
ATOM     28  O   UNL     1      -9.053   4.608 132.718  0.00  0.00    +0.000 OA
BRANCH  20  35
ATOM     29  C   UNL     1     -11.895   7.318 126.582  0.00  0.00    +0.000 C 
ATOM     30  C   UNL     1     -12.316   7.521 128.019  0.00  0.00    +0.000 C 
ATOM     31  O   UNL     1     -13.332   8.158 128.297  0.00  0.00    +0.000 OA
ATOM     32  N   UNL     1     -11.593   6.824 128.967  0.00  0.00    +0.000 N 
ATOM     33  C   UNL     1     -12.299   6.070 129.996  0.00  0.00    +0.000 C 
ATOM     34  C   UNL     1     -11.831   6.440 131.396  0.00  0.00    +0.000 C 
ATOM     35  C   UNL     1     -10.303   6.373 131.522  0.00  0.00    +0.000 C 
ATOM     36  C   UNL     1      -9.629   7.169 130.397  0.00  0.00    +0.000 C 
ATOM     37  C   UNL     1     -10.137   6.760 129.009  0.00  0.00    +0.000 C 
ENDBRANCH  20  35
ENDBRANCH   1  24
TORSDOF 3
ENDMDL
MODEL 2
REMARK VINA RESULT:     -10.3      5.973      9.654
REMARK  Name = CHEMBL31606
REMARK  4 active torsions:
REMARK  status: ('A' for Active; 'I' for Inactive)
REMARK    1  A    between atoms: C_1  and  C_2
REMARK    2  A    between atoms: C_7  and  C_8
REMARK    3  A    between atoms: C_12  and  C_13
REMARK    4  A    between atoms: C_18  and  N_19
REMARK                            x       y       z     vdW  Elec       q    Type
REMARK                         _______ _______ _______ _____ _____    ______ ____
ROOT
ATOM      1  C   UNL     1      -7.202   3.910 133.633  0.00  0.00    +0.000 C 
ATOM      2  O   UNL     1      -6.786   2.795 133.331  0.00  0.00    +0.000 OA
ATOM      3  N   UNL     1      -8.092   4.603 132.830  0.00  0.00    +0.000 N 
ATOM      4  C   UNL     1      -9.289   3.942 132.318  0.00  0.00    +0.000 C 
ATOM      5  C   UNL     1      -9.342   3.974 130.802  0.00  0.00    +0.000 C 
ATOM      6  C   UNL     1      -9.158   5.410 130.266  0.00  0.00    +0.000 C 
ATOM      7  C   UNL     1      -7.856   6.008 130.815  0.00  0.00    +0.000 C 
ATOM      8  C   UNL     1      -7.772   5.934 132.328  0.00  0.00    +0.000 C 
ENDROOT
BRANCH   6   9
ATOM      9  N   UNL     1     -10.388   6.256 130.428  0.00  0.00    +0.000 N 
ATOM     10  C   UNL     1     -11.053   6.453 131.640  0.00  0.00    +0.000 C 
ATOM     11  O   UNL     1     -10.573   6.728 132.733  0.00  0.00    +0.000 OA
ATOM     12  O   UNL     1     -12.388   6.234 131.560  0.00  0.00    +0.000 OA
ATOM     13  C   UNL     1     -13.001   7.244 130.789  0.00  0.00    +0.000 C 
ATOM     14  C   UNL     1     -12.300   7.408 129.478  0.00  0.00    +0.000 A 
ATOM     15  C   UNL     1     -12.939   8.111 128.455  0.00  0.00    +0.000 A 
ATOM     16  C   UNL     1     -12.294   8.297 127.242  0.00  0.00    +0.000 A 
ATOM     17  C   UNL     1     -11.010   7.793 127.054  0.00  0.00    +0.000 A 
ATOM     18  C   UNL     1     -10.365   7.090 128.076  0.00  0.00    +0.000 A 
ATOM     19  C   UNL     1     -11.005   6.885 129.300  0.00  0.00    +0.000 A 
ENDBRANCH   6   9
BRANCH   1  24
ATOM     20  C   UNL     1      -7.148   7.252 138.638  0.00  0.00    +0.000 A 
ATOM     21  C   UNL     1      -8.043   6.963 137.631  0.00  0.00    +0.000 A 
ATOM     22  C   UNL     1      -7.407   6.040 136.764  0.00  0.00    +0.000 A 
ATOM     23  C   UNL     1      -7.757   5.392 135.566  0.00  0.00    +0.000 A 
ATOM     24  C   UNL     1      -6.826   4.536 134.948  0.00  0.00    +0.000 A 
ATOM     25  C   UNL     1      -5.555   4.368 135.525  0.00  0.00    +0.000 A 
ATOM     26  C   UNL     1      -5.200   4.972 136.739  0.00  0.00    +0.000 A 
ATOM     27  C   UNL     1      -6.153   5.807 137.313  0.00  0.00    +0.000 A 
ATOM     28  O   UNL     1      -6.002   6.529 138.459  0.00  0.00    +0.000 OA
BRANCH  20  35
ATOM     29  C   UNL     1      -4.457  12.558 138.756  0.00  0.00    +0.000 C 
ATOM     30  C   UNL     1      -5.786  12.110 139.320  0.00  0.00    +0.000 C 
ATOM     31  O   UNL     1      -6.582  12.923 139.787  0.00  0.00    +0.000 OA
ATOM     32  N   UNL     1      -6.107  10.780 139.129  0.00  0.00    +0.000 N 
ATOM     33  C   UNL     1      -7.427  10.427 138.618  0.00  0.00    +0.000 C 
ATOM     34  C   UNL     1      -8.130   9.411 139.506  0.00  0.00    +0.000 C 
ATOM     35  C   UNL     1      -7.238   8.198 139.800  0.00  0.00    +0.000 C 
ATOM     36  C   UNL     1      -5.863   8.645 140.313  0.00  0.00    +0.000 C 
ATOM     37  C   UNL     1      -5.199   9.669 139.384  0.00  0.00    +0.000 C 
ENDBRANCH  20  35
ENDBRANCH   1  24
TORSDOF 3
ENDMDL
MODEL 3
REMARK VINA RESULT:     -10.2      2.226      9.328
REMARK  Name = CHEMBL31606
REMARK  4 active torsions:
REMARK  status: ('A' for Active; 'I' for Inactive)
REMARK    1  A    between atoms: C_1  and  C_2
REMARK    2  A    between atoms: C_7  and  C_8
REMARK    3  A    between atoms: C_12  and  C_13
REMARK    4  A    between atoms: C_18  and  N_19
REMARK                            x       y       z     vdW  Elec       q    Type
REMARK                         _______ _______ _______ _____ _____    ______ ____
ROOT
ATOM      1  C   UNL     1      -6.626   3.900 132.396  0.00  0.00    +0.000 C 
ATOM      2  O   UNL     1      -5.839   4.498 133.124  0.00  0.00    +0.000 OA
ATOM      3  N   UNL     1      -7.594   4.565 131.661  0.00  0.00    +0.000 N 
ATOM      4  C   UNL     1      -7.237   5.730 130.859  0.00  0.00    +0.000 C 
ATOM      5  C   UNL     1      -8.034   6.956 131.265  0.00  0.00    +0.000 C 
ATOM      6  C   UNL     1      -9.549   6.659 131.276  0.00  0.00    +0.000 C 
ATOM      7  C   UNL     1      -9.838   5.453 132.178  0.00  0.00    +0.000 C 
ATOM      8  C   UNL     1      -9.007   4.238 131.811  0.00  0.00    +0.000 C 
ENDROOT
BRANCH   6   9
ATOM      9  N   UNL     1     -10.143   6.605 129.898  0.00  0.00    +0.000 N 
ATOM     10  C   UNL     1      -9.709   5.744 128.888  0.00  0.00    +0.000 C 
ATOM     11  O   UNL     1      -9.470   4.545 128.963  0.00  0.00    +0.000 OA
ATOM     12  O   UNL     1      -9.471   6.374 127.712  0.00  0.00    +0.000 OA
ATOM     13  C   UNL     1     -10.683   6.814 127.141  0.00  0.00    +0.000 C 
ATOM     14  C   UNL     1     -11.485   7.594 128.135  0.00  0.00    +0.000 A 
ATOM     15  C   UNL     1     -12.543   8.381 127.679  0.00  0.00    +0.000 A 
ATOM     16  C   UNL     1     -13.315   9.090 128.587  0.00  0.00    +0.000 A 
ATOM     17  C   UNL     1     -13.038   9.004 129.948  0.00  0.00    +0.000 A 
ATOM     18  C   UNL     1     -11.980   8.215 130.411  0.00  0.00    +0.000 A 
ATOM     19  C   UNL     1     -11.186   7.503 129.508  0.00  0.00    +0.000 A 
ENDBRANCH   6   9
BRANCH   1  24
ATOM     20  C   UNL     1      -6.038  -1.587 129.995  0.00  0.00    +0.000 A 
ATOM     21  C   UNL     1      -5.915  -0.283 129.567  0.00  0.00    +0.000 A 
ATOM     22  C   UNL     1      -6.153   0.546 130.691  0.00  0.00    +0.000 A 
ATOM     23  C   UNL     1      -6.205   1.934 130.914  0.00  0.00    +0.000 A 
ATOM     24  C   UNL     1      -6.511   2.413 132.202  0.00  0.00    +0.000 A 
ATOM     25  C   UNL     1      -6.785   1.497 133.232  0.00  0.00    +0.000 A 
ATOM     26  C   UNL     1      -6.700   0.111 133.041  0.00  0.00    +0.000 A 
ATOM     27  C   UNL     1      -6.392  -0.316 131.753  0.00  0.00    +0.000 A 
ATOM     28  O   UNL     1      -6.306  -1.610 131.335  0.00  0.00    +0.000 OA
BRANCH  20  35
ATOM     29  C   UNL     1      -9.424  -2.873 125.274  0.00  0.00    +0.000 C 
ATOM     30  C   UNL     1      -7.990  -3.232 125.590  0.00  0.00    +0.000 C 
ATOM     31  O   UNL     1      -7.270  -3.765 124.747  0.00  0.00    +0.000 OA
ATOM     32  N   UNL     1      -7.507  -2.782 126.804  0.00  0.00    +0.000 N 
ATOM     33  C   UNL     1      -6.217  -2.104 126.855  0.00  0.00    +0.000 C 
ATOM     34  C   UNL     1      -5.281  -2.735 127.876  0.00  0.00    +0.000 C 
ATOM     35  C   UNL     1      -5.953  -2.886 129.247  0.00  0.00    +0.000 C 
ATOM     36  C   UNL     1      -7.312  -3.587 129.113  0.00  0.00    +0.000 C 
ATOM     37  C   UNL     1      -8.214  -2.914 128.071  0.00  0.00    +0.000 C 
ENDBRANCH  20  35
ENDBRANCH   1  24
TORSDOF 3
ENDMDL
MODEL 4
REMARK VINA RESULT:     -10.0      6.194      7.844
REMARK  Name = CHEMBL31606
REMARK  4 active torsions:
REMARK  status: ('A' for Active; 'I' for Inactive)
REMARK    1  A    between atoms: C_1  and  C_2
REMARK    2  A    between atoms: C_7  and  C_8
REMARK    3  A    between atoms: C_12  and  C_13
REMARK    4  A    between atoms: C_18  and  N_19
REMARK                            x       y       z     vdW  Elec       q    Type
REMARK                         _______ _______ _______ _____ _____    ______ ____
ROOT
ATOM      1  C   UNL     1      -4.109   3.818 126.943  0.00  0.00    +0.000 C 
ATOM      2  O   UNL     1      -3.587   3.835 125.832  0.00  0.00    +0.000 OA
ATOM      3  N   UNL     1      -5.051   2.865 127.296  0.00  0.00    +0.000 N 
ATOM      4  C   UNL     1      -4.799   1.451 127.037  0.00  0.00    +0.000 C 
ATOM      5  C   UNL     1      -5.877   0.841 126.161  0.00  0.00    +0.000 C 
ATOM      6  C   UNL     1      -7.285   1.119 126.730  0.00  0.00    +0.000 C 
ATOM      7  C   UNL     1      -7.479   2.629 126.925  0.00  0.00    +0.000 C 
ATOM      8  C   UNL     1      -6.377   3.256 127.758  0.00  0.00    +0.000 C 
ENDROOT
BRANCH   6   9
ATOM      9  N   UNL     1      -7.617   0.257 127.913  0.00  0.00    +0.000 N 
ATOM     10  C   UNL     1      -7.591   0.696 129.239  0.00  0.00    +0.000 C 
ATOM     11  O   UNL     1      -8.060   1.728 129.706  0.00  0.00    +0.000 OA
ATOM     12  O   UNL     1      -6.889  -0.121 130.061  0.00  0.00    +0.000 OA
ATOM     13  C   UNL     1      -7.572  -1.343 130.232  0.00  0.00    +0.000 C 
ATOM     14  C   UNL     1      -7.944  -1.932 128.907  0.00  0.00    +0.000 A 
ATOM     15  C   UNL     1      -8.324  -3.273 128.850  0.00  0.00    +0.000 A 
ATOM     16  C   UNL     1      -8.699  -3.831 127.636  0.00  0.00    +0.000 A 
ATOM     17  C   UNL     1      -8.703  -3.047 126.485  0.00  0.00    +0.000 A 
ATOM     18  C   UNL     1      -8.324  -1.702 126.538  0.00  0.00    +0.000 A 
ATOM     19  C   UNL     1      -7.934  -1.129 127.751  0.00  0.00    +0.000 A 
ENDBRANCH   6   9
BRANCH   1  24
ATOM     20  C   UNL     1      -2.321   6.282 132.134  0.00  0.00    +0.000 A 
ATOM     21  C   UNL     1      -2.475   5.011 131.624  0.00  0.00    +0.000 A 
ATOM     22  C   UNL     1      -2.902   5.153 130.280  0.00  0.00    +0.000 A 
ATOM     23  C   UNL     1      -3.254   4.267 129.246  0.00  0.00    +0.000 A 
ATOM     24  C   UNL     1      -3.674   4.787 128.007  0.00  0.00    +0.000 A 
ATOM     25  C   UNL     1      -3.760   6.180 127.837  0.00  0.00    +0.000 A 
ATOM     26  C   UNL     1      -3.376   7.080 128.840  0.00  0.00    +0.000 A 
ATOM     27  C   UNL     1      -2.966   6.521 130.046  0.00  0.00    +0.000 A 
ATOM     28  O   UNL     1      -2.598   7.205 131.165  0.00  0.00    +0.000 OA
BRANCH  20  35
ATOM     29  C   UNL     1       1.163  11.001 133.133  0.00  0.00    +0.000 C 
ATOM     30  C   UNL     1      -0.032  10.474 133.895  0.00  0.00    +0.000 C 
ATOM     31  O   UNL     1      -0.531  11.121 134.814  0.00  0.00    +0.000 OA
ATOM     32  N   UNL     1      -0.611   9.324 133.393  0.00  0.00    +0.000 N 
ATOM     33  C   UNL     1      -2.057   9.268 133.217  0.00  0.00    +0.000 C 
ATOM     34  C   UNL     1      -2.669   8.054 133.901  0.00  0.00    +0.000 C 
ATOM     35  C   UNL     1      -1.949   6.757 133.508  0.00  0.00    +0.000 C 
ATOM     36  C   UNL     1      -0.433   6.896 133.700  0.00  0.00    +0.000 C 
ATOM     37  C   UNL     1       0.132   8.136 132.994  0.00  0.00    +0.000 C 
ENDBRANCH  20  35
ENDBRANCH   1  24
TORSDOF 3
ENDMDL
MODEL 5
REMARK VINA RESULT:      -9.8      2.040      2.302
REMARK  Name = CHEMBL31606
REMARK  4 active torsions:
REMARK  status: ('A' for Active; 'I' for Inactive)
REMARK    1  A    between atoms: C_1  and  C_2
REMARK    2  A    between atoms: C_7  and  C_8
REMARK    3  A    between atoms: C_12  and  C_13
REMARK    4  A    between atoms: C_18  and  N_19
REMARK                            x       y       z     vdW  Elec       q    Type
REMARK                         _______ _______ _______ _____ _____    ______ ____
ROOT
ATOM      1  C   UNL     1      -4.808   0.684 130.039  0.00  0.00    +0.000 C 
ATOM      2  O   UNL     1      -3.861   0.210 130.661  0.00  0.00    +0.000 OA
ATOM      3  N   UNL     1      -5.498  -0.047 129.086  0.00  0.00    +0.000 N 
ATOM      4  C   UNL     1      -5.956  -1.400 129.386  0.00  0.00    +0.000 C 
ATOM      5  C   UNL     1      -5.395  -2.412 128.406  0.00  0.00    +0.000 C 
ATOM      6  C   UNL     1      -5.661  -1.985 126.946  0.00  0.00    +0.000 C 
ATOM      7  C   UNL     1      -5.106  -0.575 126.707  0.00  0.00    +0.000 C 
ATOM      8  C   UNL     1      -5.623   0.434 127.715  0.00  0.00    +0.000 C 
ENDROOT
BRANCH   6   9
ATOM      9  N   UNL     1      -7.083  -2.211 126.522  0.00  0.00    +0.000 N 
ATOM     10  C   UNL     1      -8.143  -2.424 127.406  0.00  0.00    +0.000 C 
ATOM     11  O   UNL     1      -8.419  -1.802 128.425  0.00  0.00    +0.000 OA
ATOM     12  O   UNL     1      -8.893  -3.509 127.093  0.00  0.00    +0.000 OA
ATOM     13  C   UNL     1      -9.619  -3.272 125.907  0.00  0.00    +0.000 C 
ATOM     14  C   UNL     1      -8.715  -2.783 124.820  0.00  0.00    +0.000 A 
ATOM     15  C   UNL     1      -9.172  -2.806 123.502  0.00  0.00    +0.000 A 
ATOM     16  C   UNL     1      -8.359  -2.331 122.483  0.00  0.00    +0.000 A 
ATOM     17  C   UNL     1      -7.097  -1.824 122.782  0.00  0.00    +0.000 A 
ATOM     18  C   UNL     1      -6.635  -1.797 124.102  0.00  0.00    +0.000 A 
ATOM     19  C   UNL     1      -7.438  -2.281 125.138  0.00  0.00    +0.000 A 
ENDBRANCH   6   9
BRANCH   1  24
ATOM     20  C   UNL     1      -8.346   5.427 131.134  0.00  0.00    +0.000 A 
ATOM     21  C   UNL     1      -8.504   4.065 130.995  0.00  0.00    +0.000 A 
ATOM     22  C   UNL     1      -7.213   3.518 130.787  0.00  0.00    +0.000 A 
ATOM     23  C   UNL     1      -6.702   2.229 130.553  0.00  0.00    +0.000 A 
ATOM     24  C   UNL     1      -5.318   2.063 130.355  0.00  0.00    +0.000 A 
ATOM     25  C   UNL     1      -4.479   3.190 130.369  0.00  0.00    +0.000 A 
ATOM     26  C   UNL     1      -4.962   4.478 130.641  0.00  0.00    +0.000 A 
ATOM     27  C   UNL     1      -6.335   4.593 130.832  0.00  0.00    +0.000 A 
ATOM     28  O   UNL     1      -7.020   5.749 131.059  0.00  0.00    +0.000 OA
BRANCH  20  35
ATOM     29  C   UNL     1     -12.443   6.821 127.051  0.00  0.00    +0.000 C 
ATOM     30  C   UNL     1     -12.508   6.831 128.560  0.00  0.00    +0.000 C 
ATOM     31  O   UNL     1     -13.573   7.019 129.147  0.00  0.00    +0.000 OA
ATOM     32  N   UNL     1     -11.351   6.462 129.219  0.00  0.00    +0.000 N 
ATOM     33  C   UNL     1     -11.422   5.483 130.298  0.00  0.00    +0.000 C 
ATOM     34  C   UNL     1     -10.768   5.993 131.574  0.00  0.00    +0.000 C 
ATOM     35  C   UNL     1      -9.353   6.525 131.316  0.00  0.00    +0.000 C 
ATOM     36  C   UNL     1      -9.353   7.532 130.158  0.00  0.00    +0.000 C 
ATOM     37  C   UNL     1     -10.023   6.970 128.898  0.00  0.00    +0.000 C 
ENDBRANCH  20  35
ENDBRANCH   1  24
TORSDOF 3
ENDMDL
MODEL 6
REMARK VINA RESULT:      -9.8      6.158      9.809
REMARK  Name = CHEMBL31606
REMARK  4 active torsions:
REMARK  status: ('A' for Active; 'I' for Inactive)
REMARK    1  A    between atoms: C_1  and  C_2
REMARK    2  A    between atoms: C_7  and  C_8
REMARK    3  A    between atoms: C_12  and  C_13
REMARK    4  A    between atoms: C_18  and  N_19
REMARK                            x       y       z     vdW  Elec       q    Type
REMARK                         _______ _______ _______ _____ _____    ______ ____
ROOT
ATOM      1  C   UNL     1      -6.133   3.943 131.764  0.00  0.00    +0.000 C 
ATOM      2  O   UNL     1      -6.031   2.720 131.806  0.00  0.00    +0.000 OA
ATOM      3  N   UNL     1      -7.334   4.568 131.467  0.00  0.00    +0.000 N 
ATOM      4  C   UNL     1      -8.560   4.167 132.150  0.00  0.00    +0.000 C 
ATOM      5  C   UNL     1      -9.625   3.715 131.169  0.00  0.00    +0.000 C 
ATOM      6  C   UNL     1      -9.855   4.771 130.067  0.00  0.00    +0.000 C 
ATOM      7  C   UNL     1      -8.526   5.096 129.372  0.00  0.00    +0.000 C 
ATOM      8  C   UNL     1      -7.440   5.500 130.351  0.00  0.00    +0.000 C 
ENDROOT
BRANCH   6   9
ATOM      9  N   UNL     1     -10.651   5.950 130.545  0.00  0.00    +0.000 N 
ATOM     10  C   UNL     1     -10.845   6.276 131.889  0.00  0.00    +0.000 C 
ATOM     11  O   UNL     1     -10.012   6.320 132.787  0.00  0.00    +0.000 OA
ATOM     12  O   UNL     1     -12.144   6.494 132.206  0.00  0.00    +0.000 OA
ATOM     13  C   UNL     1     -12.597   7.689 131.608  0.00  0.00    +0.000 C 
ATOM     14  C   UNL     1     -12.283   7.700 130.145  0.00  0.00    +0.000 A 
ATOM     15  C   UNL     1     -12.928   8.627 129.325  0.00  0.00    +0.000 A 
ATOM     16  C   UNL     1     -12.631   8.672 127.971  0.00  0.00    +0.000 A 
ATOM     17  C   UNL     1     -11.684   7.800 127.439  0.00  0.00    +0.000 A 
ATOM     18  C   UNL     1     -11.034   6.871 128.257  0.00  0.00    +0.000 A 
ATOM     19  C   UNL     1     -11.330   6.806 129.621  0.00  0.00    +0.000 A 
ENDBRANCH   6   9
BRANCH   1  24
ATOM     20  C   UNL     1      -2.516   7.936 134.444  0.00  0.00    +0.000 A 
ATOM     21  C   UNL     1      -3.719   7.325 134.720  0.00  0.00    +0.000 A 
ATOM     22  C   UNL     1      -3.985   6.431 133.653  0.00  0.00    +0.000 A 
ATOM     23  C   UNL     1      -5.033   5.553 133.323  0.00  0.00    +0.000 A 
ATOM     24  C   UNL     1      -4.967   4.822 132.123  0.00  0.00    +0.000 A 
ATOM     25  C   UNL     1      -3.869   5.002 131.264  0.00  0.00    +0.000 A 
ATOM     26  C   UNL     1      -2.794   5.841 131.593  0.00  0.00    +0.000 A 
ATOM     27  C   UNL     1      -2.903   6.542 132.789  0.00  0.00    +0.000 A 
ATOM     28  O   UNL     1      -2.004   7.442 133.277  0.00  0.00    +0.000 OA
BRANCH  20  35
ATOM     29  C   UNL     1      -0.134  12.680 131.755  0.00  0.00    +0.000 C 
ATOM     30  C   UNL     1      -0.777  12.533 133.115  0.00  0.00    +0.000 C 
ATOM     31  O   UNL     1      -1.016  13.518 133.812  0.00  0.00    +0.000 OA
ATOM     32  N   UNL     1      -1.217  11.265 133.442  0.00  0.00    +0.000 N 
ATOM     33  C   UNL     1      -2.561  11.090 133.982  0.00  0.00    +0.000 C 
ATOM     34  C   UNL     1      -2.553  10.315 135.292  0.00  0.00    +0.000 C 
ATOM     35  C   UNL     1      -1.760   9.007 135.175  0.00  0.00    +0.000 C 
ATOM     36  C   UNL     1      -0.368   9.265 134.583  0.00  0.00    +0.000 C 
ATOM     37  C   UNL     1      -0.432  10.050 133.266  0.00  0.00    +0.000 C 
ENDBRANCH  20  35
ENDBRANCH   1  24
TORSDOF 3
ENDMDL
MODEL 7
REMARK VINA RESULT:      -9.7      6.497      7.731
REMARK  Name = CHEMBL31606
REMARK  4 active torsions:
REMARK  status: ('A' for Active; 'I' for Inactive)
REMARK    1  A    between atoms: C_1  and  C_2
REMARK    2  A    between atoms: C_7  and  C_8
REMARK    3  A    between atoms: C_12  and  C_13
REMARK    4  A    between atoms: C_18  and  N_19
REMARK                            x       y       z     vdW  Elec       q    Type
REMARK                         _______ _______ _______ _____ _____    ______ ____
ROOT
ATOM      1  C   UNL     1      -4.622   4.957 127.815  0.00  0.00    +0.000 C 
ATOM      2  O   UNL     1      -4.556   5.848 126.973  0.00  0.00    +0.000 OA
ATOM      3  N   UNL     1      -5.142   3.707 127.522  0.00  0.00    +0.000 N 
ATOM      4  C   UNL     1      -4.701   2.989 126.330  0.00  0.00    +0.000 C 
ATOM      5  C   UNL     1      -5.863   2.658 125.413  0.00  0.00    +0.000 C 
ATOM      6  C   UNL     1      -6.993   1.937 126.180  0.00  0.00    +0.000 C 
ATOM      7  C   UNL     1      -7.425   2.783 127.385  0.00  0.00    +0.000 C 
ATOM      8  C   UNL     1      -6.261   3.162 128.280  0.00  0.00    +0.000 C 
ENDROOT
BRANCH   6   9
ATOM      9  N   UNL     1      -6.677   0.498 126.467  0.00  0.00    +0.000 N 
ATOM     10  C   UNL     1      -6.571  -0.043 127.750  0.00  0.00    +0.000 C 
ATOM     11  O   UNL     1      -7.327   0.107 128.703  0.00  0.00    +0.000 OA
ATOM     12  O   UNL     1      -5.437  -0.760 127.937  0.00  0.00    +0.000 OA
ATOM     13  C   UNL     1      -5.485  -1.952 127.183  0.00  0.00    +0.000 C 
ATOM     14  C   UNL     1      -5.833  -1.662 125.757  0.00  0.00    +0.000 A 
ATOM     15  C   UNL     1      -5.611  -2.649 124.795  0.00  0.00    +0.000 A 
ATOM     16  C   UNL     1      -5.952  -2.411 123.472  0.00  0.00    +0.000 A 
ATOM     17  C   UNL     1      -6.523  -1.193 123.113  0.00  0.00    +0.000 A 
ATOM     18  C   UNL     1      -6.749  -0.201 124.072  0.00  0.00    +0.000 A 
ATOM     19  C   UNL     1      -6.402  -0.423 125.407  0.00  0.00    +0.000 A 
ENDBRANCH   6   9
BRANCH   1  24
ATOM     20  C   UNL     1      -2.625   7.403 132.939  0.00  0.00    +0.000 A 
ATOM     21  C   UNL     1      -3.313   7.827 131.822  0.00  0.00    +0.000 A 
ATOM     22  C   UNL     1      -3.498   6.693 130.994  0.00  0.00    +0.000 A 
ATOM     23  C   UNL     1      -4.081   6.460 129.735  0.00  0.00    +0.000 A 
ATOM     24  C   UNL     1      -4.051   5.162 129.191  0.00  0.00    +0.000 A 
ATOM     25  C   UNL     1      -3.417   4.130 129.904  0.00  0.00    +0.000 A 
ATOM     26  C   UNL     1      -2.865   4.331 131.177  0.00  0.00    +0.000 A 
ATOM     27  C   UNL     1      -2.920   5.629 131.674  0.00  0.00    +0.000 A 
ATOM     28  O   UNL     1      -2.405   6.057 132.861  0.00  0.00    +0.000 OA
BRANCH  20  35
ATOM     29  C   UNL     1       1.799  11.367 132.594  0.00  0.00    +0.000 C 
ATOM     30  C   UNL     1       0.557  11.343 133.455  0.00  0.00    +0.000 C 
ATOM     31  O   UNL     1       0.244  12.315 134.141  0.00  0.00    +0.000 OA
ATOM     32  N   UNL     1      -0.269  10.247 133.296  0.00  0.00    +0.000 N 
ATOM     33  C   UNL     1      -1.702  10.449 133.120  0.00  0.00    +0.000 C 
ATOM     34  C   UNL     1      -2.519   9.636 134.115  0.00  0.00    +0.000 C 
ATOM     35  C   UNL     1      -2.101   8.161 134.124  0.00  0.00    +0.000 C 
ATOM     36  C   UNL     1      -0.582   8.026 134.292  0.00  0.00    +0.000 C 
ATOM     37  C   UNL     1       0.194   8.865 133.269  0.00  0.00    +0.000 C 
ENDBRANCH  20  35
ENDBRANCH   1  24
TORSDOF 3
ENDMDL
MODEL 8
REMARK VINA RESULT:      -9.7      8.905     12.724
REMARK  Name = CHEMBL31606
REMARK  4 active torsions:
REMARK  status: ('A' for Active; 'I' for Inactive)
REMARK    1  A    between atoms: C_1  and  C_2
REMARK    2  A    between atoms: C_7  and  C_8
REMARK    3  A    between atoms: C_12  and  C_13
REMARK    4  A    between atoms: C_18  and  N_19
REMARK                            x       y       z     vdW  Elec       q    Type
REMARK                         _______ _______ _______ _____ _____    ______ ____
ROOT
ATOM      1  C   UNL     1      -1.755   6.419 132.242  0.00  0.00    +0.000 C 
ATOM      2  O   UNL     1      -1.392   5.385 132.795  0.00  0.00    +0.000 OA
ATOM      3  N   UNL     1      -1.391   7.670 132.712  0.00  0.00    +0.000 N 
ATOM      4  C   UNL     1       0.003   7.955 133.041  0.00  0.00    +0.000 C 
ATOM      5  C   UNL     1       0.160   8.395 134.484  0.00  0.00    +0.000 C 
ATOM      6  C   UNL     1      -0.799   9.557 134.822  0.00  0.00    +0.000 C 
ATOM      7  C   UNL     1      -2.242   9.154 134.491  0.00  0.00    +0.000 C 
ATOM      8  C   UNL     1      -2.398   8.664 133.064  0.00  0.00    +0.000 C 
ENDROOT
BRANCH   6   9
ATOM      9  N   UNL     1      -0.340  10.873 134.264  0.00  0.00    +0.000 N 
ATOM     10  C   UNL     1      -1.085  11.653 133.376  0.00  0.00    +0.000 C 
ATOM     11  O   UNL     1      -2.270  11.956 133.442  0.00  0.00    +0.000 OA
ATOM     12  O   UNL     1      -0.381  12.043 132.286  0.00  0.00    +0.000 OA
ATOM     13  C   UNL     1       0.605  12.982 132.654  0.00  0.00    +0.000 C 
ATOM     14  C   UNL     1       1.425  12.470 133.796  0.00  0.00    +0.000 A 
ATOM     15  C   UNL     1       2.639  13.093 134.087  0.00  0.00    +0.000 A 
ATOM     16  C   UNL     1       3.401  12.650 135.158  0.00  0.00    +0.000 A 
ATOM     17  C   UNL     1       2.944  11.595 135.944  0.00  0.00    +0.000 A 
ATOM     18  C   UNL     1       1.728  10.969 135.658  0.00  0.00    +0.000 A 
ATOM     19  C   UNL     1       0.954  11.396 134.576  0.00  0.00    +0.000 A 
ENDBRANCH   6   9
BRANCH   1  24
ATOM     20  C   UNL     1      -4.291   4.631 127.085  0.00  0.00    +0.000 A 
ATOM     21  C   UNL     1      -3.597   4.045 128.121  0.00  0.00    +0.000 A 
ATOM     22  C   UNL     1      -3.325   5.065 129.067  0.00  0.00    +0.000 A 
ATOM     23  C   UNL     1      -2.644   5.130 130.296  0.00  0.00    +0.000 A 
ATOM     24  C   UNL     1      -2.546   6.365 130.964  0.00  0.00    +0.000 A 
ATOM     25  C   UNL     1      -3.104   7.514 130.376  0.00  0.00    +0.000 A 
ATOM     26  C   UNL     1      -3.821   7.464 129.172  0.00  0.00    +0.000 A 
ATOM     27  C   UNL     1      -3.894   6.222 128.550  0.00  0.00    +0.000 A 
ATOM     28  O   UNL     1      -4.495   5.955 127.356  0.00  0.00    +0.000 OA
BRANCH  20  35
ATOM     29  C   UNL     1      -9.034   1.061 126.683  0.00  0.00    +0.000 C 
ATOM     30  C   UNL     1      -8.520   2.132 125.749  0.00  0.00    +0.000 C 
ATOM     31  O   UNL     1      -9.183   2.498 124.779  0.00  0.00    +0.000 OA
ATOM     32  N   UNL     1      -7.360   2.772 126.140  0.00  0.00    +0.000 N 
ATOM     33  C   UNL     1      -7.298   4.228 126.107  0.00  0.00    +0.000 C 
ATOM     34  C   UNL     1      -6.096   4.730 125.320  0.00  0.00    +0.000 C 
ATOM     35  C   UNL     1      -4.793   4.068 125.788  0.00  0.00    +0.000 C 
ATOM     36  C   UNL     1      -4.939   2.541 125.817  0.00  0.00    +0.000 C 
ATOM     37  C   UNL     1      -6.165   2.088 126.620  0.00  0.00    +0.000 C 
ENDBRANCH  20  35
ENDBRANCH   1  24
TORSDOF 3
ENDMDL
MODEL 9
REMARK VINA RESULT:      -9.7      4.787     10.100
REMARK  Name = CHEMBL31606
REMARK  4 active torsions:
REMARK  status: ('A' for Active; 'I' for Inactive)
REMARK    1  A    between atoms: C_1  and  C_2
REMARK    2  A    between atoms: C_7  and  C_8
REMARK    3  A    between atoms: C_12  and  C_13
REMARK    4  A    between atoms: C_18  and  N_19
REMARK                            x       y       z     vdW  Elec       q    Type
REMARK                         _______ _______ _______ _____ _____    ______ ____
ROOT
ATOM      1  C   UNL     1      -2.919   5.595 129.837  0.00  0.00    +0.000 C 
ATOM      2  O   UNL     1      -2.058   6.464 129.734  0.00  0.00    +0.000 OA
ATOM      3  N   UNL     1      -3.545   5.322 131.043  0.00  0.00    +0.000 N 
ATOM      4  C   UNL     1      -4.087   6.409 131.852  0.00  0.00    +0.000 C 
ATOM      5  C   UNL     1      -3.478   6.431 133.241  0.00  0.00    +0.000 C 
ATOM      6  C   UNL     1      -3.584   5.049 133.921  0.00  0.00    +0.000 C 
ATOM      7  C   UNL     1      -2.948   3.978 133.024  0.00  0.00    +0.000 C 
ATOM      8  C   UNL     1      -3.516   3.982 131.617  0.00  0.00    +0.000 C 
ENDROOT
BRANCH   6   9
ATOM      9  N   UNL     1      -4.966   4.749 134.422  0.00  0.00    +0.000 N 
ATOM     10  C   UNL     1      -5.728   3.650 134.019  0.00  0.00    +0.000 C 
ATOM     11  O   UNL     1      -5.379   2.479 133.920  0.00  0.00    +0.000 OA
ATOM     12  O   UNL     1      -6.984   3.981 133.632  0.00  0.00    +0.000 OA
ATOM     13  C   UNL     1      -7.742   4.395 134.747  0.00  0.00    +0.000 C 
ATOM     14  C   UNL     1      -7.012   5.446 135.523  0.00  0.00    +0.000 A 
ATOM     15  C   UNL     1      -7.719   6.210 136.453  0.00  0.00    +0.000 A 
ATOM     16  C   UNL     1      -7.055   7.170 137.202  0.00  0.00    +0.000 A 
ATOM     17  C   UNL     1      -5.687   7.360 137.029  0.00  0.00    +0.000 A 
ATOM     18  C   UNL     1      -4.974   6.597 136.099  0.00  0.00    +0.000 A 
ATOM     19  C   UNL     1      -5.630   5.633 135.330  0.00  0.00    +0.000 A 
ENDBRANCH   6   9
BRANCH   1  24
ATOM     20  C   UNL     1      -6.347   2.921 125.676  0.00  0.00    +0.000 A 
ATOM     21  C   UNL     1      -6.543   3.750 126.759  0.00  0.00    +0.000 A 
ATOM     22  C   UNL     1      -5.263   4.049 127.288  0.00  0.00    +0.000 A 
ATOM     23  C   UNL     1      -4.783   4.796 128.379  0.00  0.00    +0.000 A 
ATOM     24  C   UNL     1      -3.398   4.845 128.625  0.00  0.00    +0.000 A 
ATOM     25  C   UNL     1      -2.524   4.125 127.792  0.00  0.00    +0.000 A 
ATOM     26  C   UNL     1      -2.976   3.408 126.676  0.00  0.00    +0.000 A 
ATOM     27  C   UNL     1      -4.352   3.389 126.472  0.00  0.00    +0.000 A 
ATOM     28  O   UNL     1      -5.009   2.719 125.484  0.00  0.00    +0.000 OA
BRANCH  20  35
ATOM     29  C   UNL     1      -7.874  -2.806 126.205  0.00  0.00    +0.000 C 
ATOM     30  C   UNL     1      -8.684  -1.600 125.788  0.00  0.00    +0.000 C 
ATOM     31  O   UNL     1      -9.902  -1.679 125.634  0.00  0.00    +0.000 OA
ATOM     32  N   UNL     1      -8.006  -0.397 125.753  0.00  0.00    +0.000 N 
ATOM     33  C   UNL     1      -8.593   0.775 126.391  0.00  0.00    +0.000 C 
ATOM     34  C   UNL     1      -8.673   1.962 125.442  0.00  0.00    +0.000 C 
ATOM     35  C   UNL     1      -7.325   2.239 124.764  0.00  0.00    +0.000 C 
ATOM     36  C   UNL     1      -6.759   0.960 124.133  0.00  0.00    +0.000 C 
ATOM     37  C   UNL     1      -6.703  -0.205 125.130  0.00  0.00    +0.000 C 
ENDBRANCH  20  35
ENDBRANCH   1  24
TORSDOF 3
ENDMDL
