MODEL 1
REMARK VINA RESULT:      -9.8      0.000      0.000
REMARK  Name = CHEMBL2113179
REMARK  10 active torsions:
REMARK  status: ('A' for Active; 'I' for Inactive)
REMARK    1  A    between atoms: C_2  and  C_3
REMARK    2  A    between atoms: C_3  and  N_4
REMARK    3  A    between atoms: N_4  and  C_5
REMARK    4  A    between atoms: N_4  and  S_12
REMARK    5  A    between atoms: S_12  and  C_15
REMARK    6  A    between atoms: C_18  and  C_19
REMARK    7  A    between atoms: C_19  and  C_20
REMARK    8  A    between atoms: C_20  and  C_21
REMARK    9  A    between atoms: C_21  and  O_22
REMARK   10  A    between atoms: N_25  and  N_26
REMARK                            x       y       z     vdW  Elec       q    Type
REMARK                         _______ _______ _______ _____ _____    ______ ____
ROOT
ATOM      1  N   UNL     1      -8.680   2.477 123.340  0.00  0.00    +0.000 N 
ENDROOT
BRANCH   1   2
ATOM      2  C   UNL     1      -8.080   3.045 122.167  0.00  0.00    +0.000 A 
ATOM      3  C   UNL     1      -8.887   3.540 121.140  0.00  0.00    +0.000 A 
ATOM      4  C   UNL     1      -8.316   4.046 119.967  0.00  0.00    +0.000 A 
ATOM      5  C   UNL     1      -6.954   4.292 119.911  0.00  0.00    +0.000 A 
ATOM      6 CL   UNL     1      -6.258   5.070 118.549  0.00  0.00    +0.000 Cl
ATOM      7  C   UNL     1      -6.146   3.861 120.949  0.00  0.00    +0.000 A 
ATOM      8  C   UNL     1      -6.694   3.049 121.966  0.00  0.00    +0.000 A 
ENDBRANCH   1   2
BRANCH   1   9
ATOM      9  S   UNL     1      -9.580   0.979 123.295  0.00  0.00    +0.000 S 
ATOM     10  O   UNL     1     -10.520   1.014 124.402  0.00  0.00    +0.000 OA
ATOM     11  O   UNL     1     -10.098   0.825 121.946  0.00  0.00    +0.000 OA
BRANCH   9  12
ATOM     12  C   UNL     1      -8.570  -0.498 123.574  0.00  0.00    +0.000 A 
ATOM     13  C   UNL     1      -7.197  -0.529 123.438  0.00  0.00    +0.000 A 
ATOM     14  C   UNL     1      -6.343  -1.604 123.363  0.00  0.00    +0.000 A 
ATOM     15  C   UNL     1      -6.870  -2.778 123.783  0.00  0.00    +0.000 A 
ATOM     16  C   UNL     1      -8.266  -2.831 124.015  0.00  0.00    +0.000 A 
ATOM     17  C   UNL     1      -9.118  -1.714 123.893  0.00  0.00    +0.000 A 
BRANCH  15  18
ATOM     18  C   UNL     1      -5.894  -3.875 124.069  0.00  0.00    +0.000 C 
BRANCH  18  19
ATOM     19  C   UNL     1      -4.546  -3.500 123.514  0.00  0.00    +0.000 C 
BRANCH  19  20
ATOM     20  C   UNL     1      -3.592  -4.655 123.572  0.00  0.00    +0.000 C 
BRANCH  20  21
ATOM     21  O   UNL     1      -4.187  -5.765 122.921  0.00  0.00    +0.000 OA
ATOM     22  H   UNL     1      -3.775  -5.846 122.043  0.00  0.00    +0.000 HD
ENDBRANCH  20  21
ENDBRANCH  19  20
ENDBRANCH  18  19
ENDBRANCH  15  18
ENDBRANCH   9  12
ENDBRANCH   1   9
BRANCH   1  23
ATOM     23  C   UNL     1      -8.650   3.299 124.689  0.00  0.00    +0.000 C 
BRANCH  23  25
ATOM     24  O   UNL     1      -6.748   3.864 126.144  0.00  0.00    +0.000 OA
ATOM     25  C   UNL     1      -7.510   2.952 125.777  0.00  0.00    +0.000 C 
ATOM     26  N   UNL     1      -7.058   1.714 126.291  0.00  0.00    +0.000 N 
ATOM     27  H   UNL     1      -6.146   1.979 126.692  0.00  0.00    +0.000 HD
BRANCH  26  28
ATOM     28  N   UNL     1      -7.624   0.756 127.379  0.00  0.00    +0.000 NA
ATOM     29  C   UNL     1      -6.768  -0.147 127.986  0.00  0.00    +0.000 C 
ATOM     30  C   UNL     1      -5.857  -0.594 126.956  0.00  0.00    +0.000 C 
ATOM     31  O   UNL     1      -5.000   0.275 126.767  0.00  0.00    +0.000 OA
ATOM     32  N   UNL     1      -5.823  -1.918 127.228  0.00  0.00    +0.000 N 
ATOM     33  C   UNL     1      -5.189  -1.877 128.466  0.00  0.00    +0.000 A 
ATOM     34  C   UNL     1      -4.303  -3.081 128.540  0.00  0.00    +0.000 A 
ATOM     35  C   UNL     1      -3.322  -3.246 129.468  0.00  0.00    +0.000 A 
ATOM     36  C   UNL     1      -3.239  -2.129 130.231  0.00  0.00    +0.000 A 
ATOM     37  C   UNL     1      -4.307  -0.959 130.077  0.00  0.00    +0.000 A 
ATOM     38  C   UNL     1      -5.413  -0.576 129.171  0.00  0.00    +0.000 A 
ATOM     39  H   UNL     1      -6.727  -2.360 127.427  0.00  0.00    +0.000 HD
ENDBRANCH  26  28
ENDBRANCH  23  25
ENDBRANCH   1  23
TORSDOF 10
ENDMDL
MODEL 2
REMARK VINA RESULT:      -9.3      3.219      4.052
REMARK  Name = CHEMBL2113179
REMARK  10 active torsions:
REMARK  status: ('A' for Active; 'I' for Inactive)
REMARK    1  A    between atoms: C_2  and  C_3
REMARK    2  A    between atoms: C_3  and  N_4
REMARK    3  A    between atoms: N_4  and  C_5
REMARK    4  A    between atoms: N_4  and  S_12
REMARK    5  A    between atoms: S_12  and  C_15
REMARK    6  A    between atoms: C_18  and  C_19
REMARK    7  A    between atoms: C_19  and  C_20
REMARK    8  A    between atoms: C_20  and  C_21
REMARK    9  A    between atoms: C_21  and  O_22
REMARK   10  A    between atoms: N_25  and  N_26
REMARK                            x       y       z     vdW  Elec       q    Type
REMARK                         _______ _______ _______ _____ _____    ______ ____
ROOT
ATOM      1  N   UNL     1      -8.635   2.528 123.628  0.00  0.00    +0.000 N 
ENDROOT
BRANCH   1   2
ATOM      2  C   UNL     1      -7.956   3.068 122.483  0.00  0.00    +0.000 A 
ATOM      3  C   UNL     1      -8.691   3.512 121.382  0.00  0.00    +0.000 A 
ATOM      4  C   UNL     1      -8.042   3.988 120.238  0.00  0.00    +0.000 A 
ATOM      5  C   UNL     1      -6.683   4.257 120.275  0.00  0.00    +0.000 A 
ATOM      6 CL   UNL     1      -5.899   5.001 118.942  0.00  0.00    +0.000 Cl
ATOM      7  C   UNL     1      -5.949   3.876 121.385  0.00  0.00    +0.000 A 
ATOM      8  C   UNL     1      -6.559   3.090 122.387  0.00  0.00    +0.000 A 
ENDBRANCH   1   2
BRANCH   1   9
ATOM      9  S   UNL     1      -9.549   1.040 123.554  0.00  0.00    +0.000 S 
ATOM     10  O   UNL     1     -10.478   1.057 124.671  0.00  0.00    +0.000 OA
ATOM     11  O   UNL     1     -10.081   0.925 122.207  0.00  0.00    +0.000 OA
BRANCH   9  12
ATOM     12  C   UNL     1      -8.550  -0.452 123.787  0.00  0.00    +0.000 A 
ATOM     13  C   UNL     1      -7.241  -0.577 123.368  0.00  0.00    +0.000 A 
ATOM     14  C   UNL     1      -6.459  -1.700 123.242  0.00  0.00    +0.000 A 
ATOM     15  C   UNL     1      -6.920  -2.788 123.902  0.00  0.00    +0.000 A 
ATOM     16  C   UNL     1      -8.233  -2.736 124.429  0.00  0.00    +0.000 A 
ATOM     17  C   UNL     1      -9.055  -1.593 124.358  0.00  0.00    +0.000 A 
BRANCH  15  18
ATOM     18  C   UNL     1      -5.941  -3.902 124.104  0.00  0.00    +0.000 C 
BRANCH  18  19
ATOM     19  C   UNL     1      -4.613  -3.511 123.513  0.00  0.00    +0.000 C 
BRANCH  19  20
ATOM     20  C   UNL     1      -3.641  -4.652 123.551  0.00  0.00    +0.000 C 
BRANCH  20  21
ATOM     21  O   UNL     1      -4.243  -5.778 122.935  0.00  0.00    +0.000 OA
ATOM     22  H   UNL     1      -5.010  -5.458 122.427  0.00  0.00    +0.000 HD
ENDBRANCH  20  21
ENDBRANCH  19  20
ENDBRANCH  18  19
ENDBRANCH  15  18
ENDBRANCH   9  12
ENDBRANCH   1   9
BRANCH   1  23
ATOM     23  C   UNL     1      -8.677   3.376 124.961  0.00  0.00    +0.000 C 
BRANCH  23  25
ATOM     24  O   UNL     1      -6.717   2.208 125.884  0.00  0.00    +0.000 OA
ATOM     25  C   UNL     1      -7.627   3.019 126.133  0.00  0.00    +0.000 C 
ATOM     26  N   UNL     1      -7.637   3.317 127.516  0.00  0.00    +0.000 N 
ATOM     27  H   UNL     1      -6.955   2.634 127.878  0.00  0.00    +0.000 HD
BRANCH  26  28
ATOM     28  N   UNL     1      -7.270   4.597 128.320  0.00  0.00    +0.000 NA
ATOM     29  C   UNL     1      -7.485   4.614 129.687  0.00  0.00    +0.000 C 
ATOM     30  C   UNL     1      -8.713   3.883 129.910  0.00  0.00    +0.000 C 
ATOM     31  O   UNL     1      -8.483   2.672 129.840  0.00  0.00    +0.000 OA
ATOM     32  N   UNL     1      -9.305   4.686 130.824  0.00  0.00    +0.000 N 
ATOM     33  C   UNL     1      -8.422   4.507 131.884  0.00  0.00    +0.000 A 
ATOM     34  C   UNL     1      -9.240   4.527 133.138  0.00  0.00    +0.000 A 
ATOM     35  C   UNL     1      -8.783   4.113 134.350  0.00  0.00    +0.000 A 
ATOM     36  C   UNL     1      -7.529   3.619 134.207  0.00  0.00    +0.000 A 
ATOM     37  C   UNL     1      -6.763   3.737 132.818  0.00  0.00    +0.000 A 
ATOM     38  C   UNL     1      -7.050   4.130 131.420  0.00  0.00    +0.000 A 
ATOM     39  H   UNL     1      -9.261   5.692 130.632  0.00  0.00    +0.000 HD
ENDBRANCH  26  28
ENDBRANCH  23  25
ENDBRANCH   1  23
TORSDOF 10
ENDMDL
MODEL 3
REMARK VINA RESULT:      -9.1      5.202      8.481
REMARK  Name = CHEMBL2113179
REMARK  10 active torsions:
REMARK  status: ('A' for Active; 'I' for Inactive)
REMARK    1  A    between atoms: C_2  and  C_3
REMARK    2  A    between atoms: C_3  and  N_4
REMARK    3  A    between atoms: N_4  and  C_5
REMARK    4  A    between atoms: N_4  and  S_12
REMARK    5  A    between atoms: S_12  and  C_15
REMARK    6  A    between atoms: C_18  and  C_19
REMARK    7  A    between atoms: C_19  and  C_20
REMARK    8  A    between atoms: C_20  and  C_21
REMARK    9  A    between atoms: C_21  and  O_22
REMARK   10  A    between atoms: N_25  and  N_26
REMARK                            x       y       z     vdW  Elec       q    Type
REMARK                         _______ _______ _______ _____ _____    ______ ____
ROOT
ATOM      1  N   UNL     1      -7.212   0.281 129.752  0.00  0.00    +0.000 N 
ENDROOT
BRANCH   1   2
ATOM      2  C   UNL     1      -6.827  -1.095 129.891  0.00  0.00    +0.000 A 
ATOM      3  C   UNL     1      -5.485  -1.426 130.093  0.00  0.00    +0.000 A 
ATOM      4  C   UNL     1      -5.088  -2.765 130.176  0.00  0.00    +0.000 A 
ATOM      5  C   UNL     1      -6.040  -3.762 130.308  0.00  0.00    +0.000 A 
ATOM      6 CL   UNL     1      -5.573  -5.391 130.582  0.00  0.00    +0.000 Cl
ATOM      7  C   UNL     1      -7.379  -3.441 130.170  0.00  0.00    +0.000 A 
ATOM      8  C   UNL     1      -7.743  -2.144 129.748  0.00  0.00    +0.000 A 
ENDBRANCH   1   2
BRANCH   1   9
ATOM      9  S   UNL     1      -7.333   1.062 128.192  0.00  0.00    +0.000 S 
ATOM     10  O   UNL     1      -8.717   1.470 128.027  0.00  0.00    +0.000 OA
ATOM     11  O   UNL     1      -6.296   2.077 128.134  0.00  0.00    +0.000 OA
BRANCH   9  12
ATOM     12  C   UNL     1      -6.989  -0.032 126.790  0.00  0.00    +0.000 A 
ATOM     13  C   UNL     1      -5.721  -0.418 126.407  0.00  0.00    +0.000 A 
ATOM     14  C   UNL     1      -5.294  -1.014 125.244  0.00  0.00    +0.000 A 
ATOM     15  C   UNL     1      -6.277  -1.578 124.503  0.00  0.00    +0.000 A 
ATOM     16  C   UNL     1      -7.618  -1.295 124.857  0.00  0.00    +0.000 A 
ATOM     17  C   UNL     1      -7.980  -0.514 125.973  0.00  0.00    +0.000 A 
BRANCH  15  18
ATOM     18  C   UNL     1      -5.836  -2.541 123.445  0.00  0.00    +0.000 C 
BRANCH  18  19
ATOM     19  C   UNL     1      -5.392  -3.824 124.093  0.00  0.00    +0.000 C 
BRANCH  19  20
ATOM     20  C   UNL     1      -4.103  -4.315 123.504  0.00  0.00    +0.000 C 
BRANCH  20  21
ATOM     21  O   UNL     1      -4.265  -5.674 123.134  0.00  0.00    +0.000 OA
ATOM     22  H   UNL     1      -4.952  -5.709 122.445  0.00  0.00    +0.000 HD
ENDBRANCH  20  21
ENDBRANCH  19  20
ENDBRANCH  18  19
ENDBRANCH  15  18
ENDBRANCH   9  12
ENDBRANCH   1   9
BRANCH   1  23
ATOM     23  C   UNL     1      -7.396   1.159 131.052  0.00  0.00    +0.000 C 
BRANCH  23  25
ATOM     24  O   UNL     1      -9.620   0.600 131.943  0.00  0.00    +0.000 OA
ATOM     25  C   UNL     1      -8.894   1.522 131.531  0.00  0.00    +0.000 C 
ATOM     26  N   UNL     1      -9.653   2.708 131.400  0.00  0.00    +0.000 N 
ATOM     27  H   UNL     1     -10.609   2.359 131.564  0.00  0.00    +0.000 HD
BRANCH  26  28
ATOM     28  N   UNL     1      -9.658   4.048 132.191  0.00  0.00    +0.000 NA
ATOM     29  C   UNL     1     -10.173   5.181 131.585  0.00  0.00    +0.000 C 
ATOM     30  C   UNL     1      -9.790   5.103 130.193  0.00  0.00    +0.000 C 
ATOM     31  O   UNL     1     -10.533   4.308 129.611  0.00  0.00    +0.000 OA
ATOM     32  N   UNL     1      -9.416   6.385 129.978  0.00  0.00    +0.000 N 
ATOM     33  C   UNL     1     -10.653   7.006 130.116  0.00  0.00    +0.000 A 
ATOM     34  C   UNL     1     -10.686   8.133 129.133  0.00  0.00    +0.000 A 
ATOM     35  C   UNL     1     -11.817   8.797 128.776  0.00  0.00    +0.000 A 
ATOM     36  C   UNL     1     -12.882   8.221 129.384  0.00  0.00    +0.000 A 
ATOM     37  C   UNL     1     -12.675   7.072 130.466  0.00  0.00    +0.000 A 
ATOM     38  C   UNL     1     -11.582   6.224 130.991  0.00  0.00    +0.000 A 
ATOM     39  H   UNL     1      -8.839   6.814 130.710  0.00  0.00    +0.000 HD
ENDBRANCH  26  28
ENDBRANCH  23  25
ENDBRANCH   1  23
TORSDOF 10
ENDMDL
MODEL 4
REMARK VINA RESULT:      -9.0      4.635      8.035
REMARK  Name = CHEMBL2113179
REMARK  10 active torsions:
REMARK  status: ('A' for Active; 'I' for Inactive)
REMARK    1  A    between atoms: C_2  and  C_3
REMARK    2  A    between atoms: C_3  and  N_4
REMARK    3  A    between atoms: N_4  and  C_5
REMARK    4  A    between atoms: N_4  and  S_12
REMARK    5  A    between atoms: S_12  and  C_15
REMARK    6  A    between atoms: C_18  and  C_19
REMARK    7  A    between atoms: C_19  and  C_20
REMARK    8  A    between atoms: C_20  and  C_21
REMARK    9  A    between atoms: C_21  and  O_22
REMARK   10  A    between atoms: N_25  and  N_26
REMARK                            x       y       z     vdW  Elec       q    Type
REMARK                         _______ _______ _______ _____ _____    ______ ____
ROOT
ATOM      1  N   UNL     1      -6.672   1.316 127.780  0.00  0.00    +0.000 N 
ENDROOT
BRANCH   1   2
ATOM      2  C   UNL     1      -6.527   0.140 126.969  0.00  0.00    +0.000 A 
ATOM      3  C   UNL     1      -7.497  -0.863 127.017  0.00  0.00    +0.000 A 
ATOM      4  C   UNL     1      -7.342  -2.038 126.273  0.00  0.00    +0.000 A 
ATOM      5  C   UNL     1      -6.361  -2.116 125.299  0.00  0.00    +0.000 A 
ATOM      6 CL   UNL     1      -6.261  -3.479 124.260  0.00  0.00    +0.000 Cl
ATOM      7  C   UNL     1      -5.426  -1.100 125.198  0.00  0.00    +0.000 A 
ATOM      8  C   UNL     1      -5.393  -0.085 126.179  0.00  0.00    +0.000 A 
ENDBRANCH   1   2
BRANCH   1   9
ATOM      9  S   UNL     1      -7.302   2.817 127.143  0.00  0.00    +0.000 S 
ATOM     10  O   UNL     1      -8.748   2.754 127.257  0.00  0.00    +0.000 OA
ATOM     11  O   UNL     1      -6.598   3.899 127.810  0.00  0.00    +0.000 OA
BRANCH   9  12
ATOM     12  C   UNL     1      -6.973   3.067 125.380  0.00  0.00    +0.000 A 
ATOM     13  C   UNL     1      -7.627   2.391 124.371  0.00  0.00    +0.000 A 
ATOM     14  C   UNL     1      -7.317   2.284 123.036  0.00  0.00    +0.000 A 
ATOM     15  C   UNL     1      -6.433   3.204 122.584  0.00  0.00    +0.000 A 
ATOM     16  C   UNL     1      -5.755   3.996 123.542  0.00  0.00    +0.000 A 
ATOM     17  C   UNL     1      -5.999   3.921 124.928  0.00  0.00    +0.000 A 
BRANCH  15  18
ATOM     18  C   UNL     1      -6.348   3.364 121.098  0.00  0.00    +0.000 C 
BRANCH  18  19
ATOM     19  C   UNL     1      -5.062   4.061 120.744  0.00  0.00    +0.000 C 
BRANCH  19  20
ATOM     20  C   UNL     1      -5.303   5.213 119.815  0.00  0.00    +0.000 C 
BRANCH  20  21
ATOM     21  O   UNL     1      -4.712   6.374 120.373  0.00  0.00    +0.000 OA
ATOM     22  H   UNL     1      -5.373   7.088 120.331  0.00  0.00    +0.000 HD
ENDBRANCH  20  21
ENDBRANCH  19  20
ENDBRANCH  18  19
ENDBRANCH  15  18
ENDBRANCH   9  12
ENDBRANCH   1   9
BRANCH   1  23
ATOM     23  C   UNL     1      -6.113   1.298 129.258  0.00  0.00    +0.000 C 
BRANCH  23  25
ATOM     24  O   UNL     1      -7.339   0.881 131.351  0.00  0.00    +0.000 OA
ATOM     25  C   UNL     1      -7.104   1.718 130.461  0.00  0.00    +0.000 C 
ATOM     26  N   UNL     1      -7.950   2.839 130.623  0.00  0.00    +0.000 N 
ATOM     27  H   UNL     1      -8.587   2.511 131.364  0.00  0.00    +0.000 HD
BRANCH  26  28
ATOM     28  N   UNL     1      -7.680   4.309 131.058  0.00  0.00    +0.000 NA
ATOM     29  C   UNL     1      -8.706   5.233 130.969  0.00  0.00    +0.000 C 
ATOM     30  C   UNL     1      -9.443   4.902 129.769  0.00  0.00    +0.000 C 
ATOM     31  O   UNL     1     -10.174   3.933 129.996  0.00  0.00    +0.000 OA
ATOM     32  N   UNL     1      -9.637   6.140 129.261  0.00  0.00    +0.000 N 
ATOM     33  C   UNL     1     -10.485   6.653 130.237  0.00  0.00    +0.000 A 
ATOM     34  C   UNL     1     -11.467   7.540 129.538  0.00  0.00    +0.000 A 
ATOM     35  C   UNL     1     -12.614   8.000 130.105  0.00  0.00    +0.000 A 
ATOM     36  C   UNL     1     -12.745   7.463 131.343  0.00  0.00    +0.000 A 
ATOM     37  C   UNL     1     -11.573   6.593 131.978  0.00  0.00    +0.000 A 
ATOM     38  C   UNL     1     -10.289   5.985 131.562  0.00  0.00    +0.000 A 
ATOM     39  H   UNL     1      -8.826   6.768 129.283  0.00  0.00    +0.000 HD
ENDBRANCH  26  28
ENDBRANCH  23  25
ENDBRANCH   1  23
TORSDOF 10
ENDMDL
MODEL 5
REMARK VINA RESULT:      -8.8      5.545      8.770
REMARK  Name = CHEMBL2113179
REMARK  10 active torsions:
REMARK  status: ('A' for Active; 'I' for Inactive)
REMARK    1  A    between atoms: C_2  and  C_3
REMARK    2  A    between atoms: C_3  and  N_4
REMARK    3  A    between atoms: N_4  and  C_5
REMARK    4  A    between atoms: N_4  and  S_12
REMARK    5  A    between atoms: S_12  and  C_15
REMARK    6  A    between atoms: C_18  and  C_19
REMARK    7  A    between atoms: C_19  and  C_20
REMARK    8  A    between atoms: C_20  and  C_21
REMARK    9  A    between atoms: C_21  and  O_22
REMARK   10  A    between atoms: N_25  and  N_26
REMARK                            x       y       z     vdW  Elec       q    Type
REMARK                         _______ _______ _______ _____ _____    ______ ____
ROOT
ATOM      1  N   UNL     1      -6.967   0.658 130.626  0.00  0.00    +0.000 N 
ENDROOT
BRANCH   1   2
ATOM      2  C   UNL     1      -5.881   1.587 130.764  0.00  0.00    +0.000 A 
ATOM      3  C   UNL     1      -5.230   2.073 129.629  0.00  0.00    +0.000 A 
ATOM      4  C   UNL     1      -4.136   2.936 129.751  0.00  0.00    +0.000 A 
ATOM      5  C   UNL     1      -3.842   3.512 130.976  0.00  0.00    +0.000 A 
ATOM      6 CL   UNL     1      -2.613   4.702 131.114  0.00  0.00    +0.000 Cl
ATOM      7  C   UNL     1      -4.520   3.084 132.104  0.00  0.00    +0.000 A 
ATOM      8  C   UNL     1      -5.383   1.970 132.016  0.00  0.00    +0.000 A 
ENDBRANCH   1   2
BRANCH   1   9
ATOM      9  S   UNL     1      -6.720  -1.073 130.633  0.00  0.00    +0.000 S 
ATOM     10  O   UNL     1      -5.286  -1.298 130.579  0.00  0.00    +0.000 OA
ATOM     11  O   UNL     1      -7.467  -1.612 131.757  0.00  0.00    +0.000 OA
BRANCH   9  12
ATOM     12  C   UNL     1      -7.392  -1.921 129.181  0.00  0.00    +0.000 A 
ATOM     13  C   UNL     1      -7.305  -1.431 127.894  0.00  0.00    +0.000 A 
ATOM     14  C   UNL     1      -7.973  -1.818 126.756  0.00  0.00    +0.000 A 
ATOM     15  C   UNL     1      -8.564  -3.034 126.833  0.00  0.00    +0.000 A 
ATOM     16  C   UNL     1      -8.645  -3.652 128.104  0.00  0.00    +0.000 A 
ATOM     17  C   UNL     1      -8.087  -3.100 129.275  0.00  0.00    +0.000 A 
BRANCH  15  18
ATOM     18  C   UNL     1      -8.975  -3.651 125.532  0.00  0.00    +0.000 C 
BRANCH  18  19
ATOM     19  C   UNL     1      -8.106  -3.111 124.428  0.00  0.00    +0.000 C 
BRANCH  19  20
ATOM     20  C   UNL     1      -8.902  -2.848 123.186  0.00  0.00    +0.000 C 
BRANCH  20  21
ATOM     21  O   UNL     1     -10.184  -3.435 123.339  0.00  0.00    +0.000 OA
ATOM     22  H   UNL     1     -10.277  -3.693 124.273  0.00  0.00    +0.000 HD
ENDBRANCH  20  21
ENDBRANCH  19  20
ENDBRANCH  18  19
ENDBRANCH  15  18
ENDBRANCH   9  12
ENDBRANCH   1   9
BRANCH   1  23
ATOM     23  C   UNL     1      -8.413   1.213 130.315  0.00  0.00    +0.000 C 
BRANCH  23  25
ATOM     24  O   UNL     1      -9.656   0.779 132.394  0.00  0.00    +0.000 OA
ATOM     25  C   UNL     1      -9.356   1.644 131.552  0.00  0.00    +0.000 C 
ATOM     26  N   UNL     1     -10.100   2.823 131.790  0.00  0.00    +0.000 N 
ATOM     27  H   UNL     1     -10.758   2.507 132.518  0.00  0.00    +0.000 HD
BRANCH  26  28
ATOM     28  N   UNL     1      -9.700   4.235 132.307  0.00  0.00    +0.000 NA
ATOM     29  C   UNL     1     -10.173   5.351 131.641  0.00  0.00    +0.000 C 
ATOM     30  C   UNL     1     -10.172   5.011 130.235  0.00  0.00    +0.000 C 
ATOM     31  O   UNL     1     -11.151   4.300 129.989  0.00  0.00    +0.000 OA
ATOM     32  N   UNL     1      -9.674   6.155 129.714  0.00  0.00    +0.000 N 
ATOM     33  C   UNL     1     -10.726   7.015 130.015  0.00  0.00    +0.000 A 
ATOM     34  C   UNL     1     -10.835   7.982 128.878  0.00  0.00    +0.000 A 
ATOM     35  C   UNL     1     -11.906   8.795 128.672  0.00  0.00    +0.000 A 
ATOM     36  C   UNL     1     -12.857   8.522 129.598  0.00  0.00    +0.000 A 
ATOM     37  C   UNL     1     -12.559   7.514 130.794  0.00  0.00    +0.000 A 
ATOM     38  C   UNL     1     -11.511   6.553 131.202  0.00  0.00    +0.000 A 
ATOM     39  H   UNL     1      -8.873   6.563 130.208  0.00  0.00    +0.000 HD
ENDBRANCH  26  28
ENDBRANCH  23  25
ENDBRANCH   1  23
TORSDOF 10
ENDMDL
MODEL 6
REMARK VINA RESULT:      -8.8      4.723      7.535
REMARK  Name = CHEMBL2113179
REMARK  10 active torsions:
REMARK  status: ('A' for Active; 'I' for Inactive)
REMARK    1  A    between atoms: C_2  and  C_3
REMARK    2  A    between atoms: C_3  and  N_4
REMARK    3  A    between atoms: N_4  and  C_5
REMARK    4  A    between atoms: N_4  and  S_12
REMARK    5  A    between atoms: S_12  and  C_15
REMARK    6  A    between atoms: C_18  and  C_19
REMARK    7  A    between atoms: C_19  and  C_20
REMARK    8  A    between atoms: C_20  and  C_21
REMARK    9  A    between atoms: C_21  and  O_22
REMARK   10  A    between atoms: N_25  and  N_26
REMARK                            x       y       z     vdW  Elec       q    Type
REMARK                         _______ _______ _______ _____ _____    ______ ____
ROOT
ATOM      1  N   UNL     1      -7.145   0.202 129.909  0.00  0.00    +0.000 N 
ENDROOT
BRANCH   1   2
ATOM      2  C   UNL     1      -7.240   1.134 128.821  0.00  0.00    +0.000 A 
ATOM      3  C   UNL     1      -6.218   2.059 128.604  0.00  0.00    +0.000 A 
ATOM      4  C   UNL     1      -6.322   3.009 127.582  0.00  0.00    +0.000 A 
ATOM      5  C   UNL     1      -7.315   2.887 126.624  0.00  0.00    +0.000 A 
ATOM      6 CL   UNL     1      -7.360   3.938 125.268  0.00  0.00    +0.000 Cl
ATOM      7  C   UNL     1      -8.305   1.934 126.793  0.00  0.00    +0.000 A 
ATOM      8  C   UNL     1      -8.375   1.212 128.004  0.00  0.00    +0.000 A 
ENDBRANCH   1   2
BRANCH   1   9
ATOM      9  S   UNL     1      -6.797  -1.493 129.658  0.00  0.00    +0.000 S 
ATOM     10  O   UNL     1      -5.466  -1.736 130.185  0.00  0.00    +0.000 OA
ATOM     11  O   UNL     1      -7.911  -2.249 130.205  0.00  0.00    +0.000 OA
BRANCH   9  12
ATOM     12  C   UNL     1      -6.718  -1.980 127.916  0.00  0.00    +0.000 A 
ATOM     13  C   UNL     1      -5.607  -1.804 127.116  0.00  0.00    +0.000 A 
ATOM     14  C   UNL     1      -5.483  -1.880 125.749  0.00  0.00    +0.000 A 
ATOM     15  C   UNL     1      -6.505  -2.509 125.122  0.00  0.00    +0.000 A 
ATOM     16  C   UNL     1      -7.669  -2.793 125.876  0.00  0.00    +0.000 A 
ATOM     17  C   UNL     1      -7.792  -2.516 127.253  0.00  0.00    +0.000 A 
BRANCH  15  18
ATOM     18  C   UNL     1      -6.249  -2.940 123.712  0.00  0.00    +0.000 C 
BRANCH  18  19
ATOM     19  C   UNL     1      -4.819  -3.391 123.581  0.00  0.00    +0.000 C 
BRANCH  19  20
ATOM     20  C   UNL     1      -4.666  -4.836 123.954  0.00  0.00    +0.000 C 
BRANCH  20  21
ATOM     21  O   UNL     1      -4.119  -5.532 122.847  0.00  0.00    +0.000 OA
ATOM     22  H   UNL     1      -4.385  -6.465 122.927  0.00  0.00    +0.000 HD
ENDBRANCH  20  21
ENDBRANCH  19  20
ENDBRANCH  18  19
ENDBRANCH  15  18
ENDBRANCH   9  12
ENDBRANCH   1   9
BRANCH   1  23
ATOM     23  C   UNL     1      -7.504   0.691 131.369  0.00  0.00    +0.000 C 
BRANCH  23  25
ATOM     24  O   UNL     1      -9.885   0.512 131.964  0.00  0.00    +0.000 OA
ATOM     25  C   UNL     1      -8.976   1.296 131.638  0.00  0.00    +0.000 C 
ATOM     26  N   UNL     1      -9.517   2.578 131.387  0.00  0.00    +0.000 N 
ATOM     27  H   UNL     1     -10.529   2.386 131.428  0.00  0.00    +0.000 HD
BRANCH  26  28
ATOM     28  N   UNL     1      -9.414   3.932 132.148  0.00  0.00    +0.000 NA
ATOM     29  C   UNL     1      -9.970   5.064 131.578  0.00  0.00    +0.000 C 
ATOM     30  C   UNL     1      -9.737   4.954 130.155  0.00  0.00    +0.000 C 
ATOM     31  O   UNL     1     -10.551   4.164 129.669  0.00  0.00    +0.000 OA
ATOM     32  N   UNL     1      -9.364   6.224 129.877  0.00  0.00    +0.000 N 
ATOM     33  C   UNL     1     -10.568   6.872 130.132  0.00  0.00    +0.000 A 
ATOM     34  C   UNL     1     -10.683   7.983 129.136  0.00  0.00    +0.000 A 
ATOM     35  C   UNL     1     -11.834   8.664 128.887  0.00  0.00    +0.000 A 
ATOM     36  C   UNL     1     -12.840   8.119 129.614  0.00  0.00    +0.000 A 
ATOM     37  C   UNL     1     -12.541   6.985 130.690  0.00  0.00    +0.000 A 
ATOM     38  C   UNL     1     -11.414   6.124 131.114  0.00  0.00    +0.000 A 
ATOM     39  H   UNL     1      -8.706   6.654 130.536  0.00  0.00    +0.000 HD
ENDBRANCH  26  28
ENDBRANCH  23  25
ENDBRANCH   1  23
TORSDOF 10
ENDMDL
MODEL 7
REMARK VINA RESULT:      -8.7      6.756      9.624
REMARK  Name = CHEMBL2113179
REMARK  10 active torsions:
REMARK  status: ('A' for Active; 'I' for Inactive)
REMARK    1  A    between atoms: C_2  and  C_3
REMARK    2  A    between atoms: C_3  and  N_4
REMARK    3  A    between atoms: N_4  and  C_5
REMARK    4  A    between atoms: N_4  and  S_12
REMARK    5  A    between atoms: S_12  and  C_15
REMARK    6  A    between atoms: C_18  and  C_19
REMARK    7  A    between atoms: C_19  and  C_20
REMARK    8  A    between atoms: C_20  and  C_21
REMARK    9  A    between atoms: C_21  and  O_22
REMARK   10  A    between atoms: N_25  and  N_26
REMARK                            x       y       z     vdW  Elec       q    Type
REMARK                         _______ _______ _______ _____ _____    ______ ____
ROOT
ATOM      1  N   UNL     1     -10.145   5.079 131.494  0.00  0.00    +0.000 N 
ENDROOT
BRANCH   1   2
ATOM      2  C   UNL     1     -10.869   6.163 130.891  0.00  0.00    +0.000 A 
ATOM      3  C   UNL     1     -12.081   6.583 131.442  0.00  0.00    +0.000 A 
ATOM      4  C   UNL     1     -12.823   7.601 130.834  0.00  0.00    +0.000 A 
ATOM      5  C   UNL     1     -12.254   8.368 129.830  0.00  0.00    +0.000 A 
ATOM      6 CL   UNL     1     -13.082   9.728 129.189  0.00  0.00    +0.000 Cl
ATOM      7  C   UNL     1     -11.025   7.999 129.312  0.00  0.00    +0.000 A 
ATOM      8  C   UNL     1     -10.445   6.772 129.703  0.00  0.00    +0.000 A 
ENDBRANCH   1   2
BRANCH   1   9
ATOM      9  S   UNL     1      -9.027   5.325 132.816  0.00  0.00    +0.000 S 
ATOM     10  O   UNL     1      -9.536   6.435 133.601  0.00  0.00    +0.000 OA
ATOM     11  O   UNL     1      -8.838   4.040 133.467  0.00  0.00    +0.000 OA
BRANCH   9  12
ATOM     12  C   UNL     1      -7.368   5.829 132.296  0.00  0.00    +0.000 A 
ATOM     13  C   UNL     1      -6.221   5.568 133.018  0.00  0.00    +0.000 A 
ATOM     14  C   UNL     1      -4.959   6.097 132.889  0.00  0.00    +0.000 A 
ATOM     15  C   UNL     1      -4.725   6.724 131.712  0.00  0.00    +0.000 A 
ATOM     16  C   UNL     1      -5.831   6.980 130.867  0.00  0.00    +0.000 A 
ATOM     17  C   UNL     1      -7.145   6.560 131.156  0.00  0.00    +0.000 A 
BRANCH  15  18
ATOM     18  C   UNL     1      -3.289   6.982 131.376  0.00  0.00    +0.000 C 
BRANCH  18  19
ATOM     19  C   UNL     1      -2.482   5.741 131.652  0.00  0.00    +0.000 C 
BRANCH  19  20
ATOM     20  C   UNL     1      -1.293   6.045 132.513  0.00  0.00    +0.000 C 
BRANCH  20  21
ATOM     21  O   UNL     1      -0.258   6.557 131.690  0.00  0.00    +0.000 OA
ATOM     22  H   UNL     1      -0.157   5.950 130.936  0.00  0.00    +0.000 HD
ENDBRANCH  20  21
ENDBRANCH  19  20
ENDBRANCH  18  19
ENDBRANCH  15  18
ENDBRANCH   9  12
ENDBRANCH   1   9
BRANCH   1  23
ATOM     23  C   UNL     1     -10.252   3.639 130.853  0.00  0.00    +0.000 C 
BRANCH  23  25
ATOM     24  O   UNL     1      -9.102   3.314 128.702  0.00  0.00    +0.000 OA
ATOM     25  C   UNL     1      -9.037   3.116 129.928  0.00  0.00    +0.000 C 
ATOM     26  N   UNL     1      -7.940   2.271 130.219  0.00  0.00    +0.000 N 
ATOM     27  H   UNL     1      -7.643   1.987 129.273  0.00  0.00    +0.000 HD
BRANCH  26  28
ATOM     28  N   UNL     1      -6.577   2.521 130.926  0.00  0.00    +0.000 NA
ATOM     29  C   UNL     1      -5.467   2.815 130.154  0.00  0.00    +0.000 C 
ATOM     30  C   UNL     1      -5.584   2.013 128.957  0.00  0.00    +0.000 C 
ATOM     31  O   UNL     1      -6.402   2.537 128.195  0.00  0.00    +0.000 OA
ATOM     32  N   UNL     1      -4.307   1.586 128.831  0.00  0.00    +0.000 N 
ATOM     33  C   UNL     1      -3.691   2.802 128.553  0.00  0.00    +0.000 A 
ATOM     34  C   UNL     1      -2.594   2.519 127.575  0.00  0.00    +0.000 A 
ATOM     35  C   UNL     1      -1.949   3.478 126.859  0.00  0.00    +0.000 A 
ATOM     36  C   UNL     1      -2.514   4.682 127.117  0.00  0.00    +0.000 A 
ATOM     37  C   UNL     1      -3.628   4.831 128.244  0.00  0.00    +0.000 A 
ATOM     38  C   UNL     1      -4.452   3.961 129.113  0.00  0.00    +0.000 A 
ATOM     39  H   UNL     1      -3.852   1.269 129.694  0.00  0.00    +0.000 HD
ENDBRANCH  26  28
ENDBRANCH  23  25
ENDBRANCH   1  23
TORSDOF 10
ENDMDL
MODEL 8
REMARK VINA RESULT:      -8.6      7.847     12.315
REMARK  Name = CHEMBL2113179
REMARK  10 active torsions:
REMARK  status: ('A' for Active; 'I' for Inactive)
REMARK    1  A    between atoms: C_2  and  C_3
REMARK    2  A    between atoms: C_3  and  N_4
REMARK    3  A    between atoms: N_4  and  C_5
REMARK    4  A    between atoms: N_4  and  S_12
REMARK    5  A    between atoms: S_12  and  C_15
REMARK    6  A    between atoms: C_18  and  C_19
REMARK    7  A    between atoms: C_19  and  C_20
REMARK    8  A    between atoms: C_20  and  C_21
REMARK    9  A    between atoms: C_21  and  O_22
REMARK   10  A    between atoms: N_25  and  N_26
REMARK                            x       y       z     vdW  Elec       q    Type
REMARK                         _______ _______ _______ _____ _____    ______ ____
ROOT
ATOM      1  N   UNL     1      -6.142   2.803 131.973  0.00  0.00    +0.000 N 
ENDROOT
BRANCH   1   2
ATOM      2  C   UNL     1      -5.041   3.717 131.854  0.00  0.00    +0.000 A 
ATOM      3  C   UNL     1      -3.741   3.277 132.110  0.00  0.00    +0.000 A 
ATOM      4  C   UNL     1      -2.664   4.169 132.052  0.00  0.00    +0.000 A 
ATOM      5  C   UNL     1      -2.839   5.429 131.504  0.00  0.00    +0.000 A 
ATOM      6 CL   UNL     1      -1.499   6.476 131.266  0.00  0.00    +0.000 Cl
ATOM      7  C   UNL     1      -4.116   5.859 131.189  0.00  0.00    +0.000 A 
ATOM      8  C   UNL     1      -5.227   5.075 131.571  0.00  0.00    +0.000 A 
ENDBRANCH   1   2
BRANCH   1   9
ATOM      9  S   UNL     1      -6.810   2.343 133.522  0.00  0.00    +0.000 S 
ATOM     10  O   UNL     1      -8.198   1.978 133.295  0.00  0.00    +0.000 OA
ATOM     11  O   UNL     1      -5.917   1.356 134.102  0.00  0.00    +0.000 OA
BRANCH   9  12
ATOM     12  C   UNL     1      -6.863   3.689 134.732  0.00  0.00    +0.000 A 
ATOM     13  C   UNL     1      -7.875   4.625 134.801  0.00  0.00    +0.000 A 
ATOM     14  C   UNL     1      -7.924   5.823 135.473  0.00  0.00    +0.000 A 
ATOM     15  C   UNL     1      -6.988   5.969 136.440  0.00  0.00    +0.000 A 
ATOM     16  C   UNL     1      -5.939   5.019 136.494  0.00  0.00    +0.000 A 
ATOM     17  C   UNL     1      -5.857   3.901 135.640  0.00  0.00    +0.000 A 
BRANCH  15  18
ATOM     18  C   UNL     1      -7.225   7.067 137.428  0.00  0.00    +0.000 C 
BRANCH  18  19
ATOM     19  C   UNL     1      -8.703   7.333 137.532  0.00  0.00    +0.000 C 
BRANCH  19  20
ATOM     20  C   UNL     1      -9.032   8.743 137.140  0.00  0.00    +0.000 C 
BRANCH  20  21
ATOM     21  O   UNL     1     -10.344   8.767 136.603  0.00  0.00    +0.000 OA
ATOM     22  H   UNL     1     -10.597   9.701 136.491  0.00  0.00    +0.000 HD
ENDBRANCH  20  21
ENDBRANCH  19  20
ENDBRANCH  18  19
ENDBRANCH  15  18
ENDBRANCH   9  12
ENDBRANCH   1   9
BRANCH   1  23
ATOM     23  C   UNL     1      -6.678   2.079 130.674  0.00  0.00    +0.000 C 
BRANCH  23  25
ATOM     24  O   UNL     1      -8.246   2.239 128.785  0.00  0.00    +0.000 OA
ATOM     25  C   UNL     1      -7.875   2.774 129.844  0.00  0.00    +0.000 C 
ATOM     26  N   UNL     1      -8.498   4.036 129.986  0.00  0.00    +0.000 N 
ATOM     27  H   UNL     1      -8.955   4.144 129.069  0.00  0.00    +0.000 HD
BRANCH  26  28
ATOM     28  N   UNL     1      -9.592   4.566 130.957  0.00  0.00    +0.000 NA
ATOM     29  C   UNL     1     -10.492   5.513 130.500  0.00  0.00    +0.000 C 
ATOM     30  C   UNL     1      -9.746   6.386 129.621  0.00  0.00    +0.000 C 
ATOM     31  O   UNL     1      -9.592   5.830 128.530  0.00  0.00    +0.000 OA
ATOM     32  N   UNL     1     -10.227   7.587 130.015  0.00  0.00    +0.000 N 
ATOM     33  C   UNL     1     -11.542   7.455 129.581  0.00  0.00    +0.000 A 
ATOM     34  C   UNL     1     -11.980   8.805 129.106  0.00  0.00    +0.000 A 
ATOM     35  C   UNL     1     -13.096   9.023 128.360  0.00  0.00    +0.000 A 
ATOM     36  C   UNL     1     -13.673   7.833 128.064  0.00  0.00    +0.000 A 
ATOM     37  C   UNL     1     -13.127   6.484 128.709  0.00  0.00    +0.000 A 
ATOM     38  C   UNL     1     -11.973   6.024 129.514  0.00  0.00    +0.000 A 
ATOM     39  H   UNL     1     -10.313   7.727 131.028  0.00  0.00    +0.000 HD
ENDBRANCH  26  28
ENDBRANCH  23  25
ENDBRANCH   1  23
TORSDOF 10
ENDMDL
MODEL 9
REMARK VINA RESULT:      -8.6      6.000      9.707
REMARK  Name = CHEMBL2113179
REMARK  10 active torsions:
REMARK  status: ('A' for Active; 'I' for Inactive)
REMARK    1  A    between atoms: C_2  and  C_3
REMARK    2  A    between atoms: C_3  and  N_4
REMARK    3  A    between atoms: N_4  and  C_5
REMARK    4  A    between atoms: N_4  and  S_12
REMARK    5  A    between atoms: S_12  and  C_15
REMARK    6  A    between atoms: C_18  and  C_19
REMARK    7  A    between atoms: C_19  and  C_20
REMARK    8  A    between atoms: C_20  and  C_21
REMARK    9  A    between atoms: C_21  and  O_22
REMARK   10  A    between atoms: N_25  and  N_26
REMARK                            x       y       z     vdW  Elec       q    Type
REMARK                         _______ _______ _______ _____ _____    ______ ____
ROOT
ATOM      1  N   UNL     1      -9.771   4.834 131.205  0.00  0.00    +0.000 N 
ENDROOT
BRANCH   1   2
ATOM      2  C   UNL     1     -10.540   5.777 130.443  0.00  0.00    +0.000 A 
ATOM      3  C   UNL     1     -11.891   5.532 130.188  0.00  0.00    +0.000 A 
ATOM      4  C   UNL     1     -12.638   6.415 129.400  0.00  0.00    +0.000 A 
ATOM      5  C   UNL     1     -12.121   7.657 129.074  0.00  0.00    +0.000 A 
ATOM      6 CL   UNL     1     -13.082   8.821 128.256  0.00  0.00    +0.000 Cl
ATOM      7  C   UNL     1     -10.799   7.940 129.373  0.00  0.00    +0.000 A 
ATOM      8  C   UNL     1      -9.962   6.913 129.861  0.00  0.00    +0.000 A 
ENDBRANCH   1   2
BRANCH   1   9
ATOM      9  S   UNL     1      -8.844   5.306 132.610  0.00  0.00    +0.000 S 
ATOM     10  O   UNL     1      -9.563   6.394 133.248  0.00  0.00    +0.000 OA
ATOM     11  O   UNL     1      -8.580   4.101 133.379  0.00  0.00    +0.000 OA
BRANCH   9  12
ATOM     12  C   UNL     1      -7.207   5.977 132.224  0.00  0.00    +0.000 A 
ATOM     13  C   UNL     1      -6.960   6.858 131.191  0.00  0.00    +0.000 A 
ATOM     14  C   UNL     1      -5.767   7.242 130.626  0.00  0.00    +0.000 A 
ATOM     15  C   UNL     1      -4.672   6.962 131.371  0.00  0.00    +0.000 A 
ATOM     16  C   UNL     1      -4.834   6.116 132.494  0.00  0.00    +0.000 A 
ATOM     17  C   UNL     1      -6.080   5.606 132.912  0.00  0.00    +0.000 A 
BRANCH  15  18
ATOM     18  C   UNL     1      -3.413   7.675 130.987  0.00  0.00    +0.000 C 
BRANCH  18  19
ATOM     19  C   UNL     1      -3.393   7.883 129.496  0.00  0.00    +0.000 C 
BRANCH  19  20
ATOM     20  C   UNL     1      -2.625   6.797 128.804  0.00  0.00    +0.000 C 
BRANCH  20  21
ATOM     21  O   UNL     1      -3.426   6.276 127.756  0.00  0.00    +0.000 OA
ATOM     22  H   UNL     1      -4.355   6.462 127.979  0.00  0.00    +0.000 HD
ENDBRANCH  20  21
ENDBRANCH  19  20
ENDBRANCH  18  19
ENDBRANCH  15  18
ENDBRANCH   9  12
ENDBRANCH   1   9
BRANCH   1  23
ATOM     23  C   UNL     1      -9.643   3.350 130.679  0.00  0.00    +0.000 C 
BRANCH  23  25
ATOM     24  O   UNL     1      -8.457   1.898 129.084  0.00  0.00    +0.000 OA
ATOM     25  C   UNL     1      -8.752   3.074 129.362  0.00  0.00    +0.000 C 
ATOM     26  N   UNL     1      -8.044   3.958 128.513  0.00  0.00    +0.000 N 
ATOM     27  H   UNL     1      -7.402   3.311 128.032  0.00  0.00    +0.000 HD
BRANCH  26  28
ATOM     28  N   UNL     1      -8.495   4.889 127.351  0.00  0.00    +0.000 NA
ATOM     29  C   UNL     1      -7.965   4.690 126.089  0.00  0.00    +0.000 C 
ATOM     30  C   UNL     1      -6.584   4.311 126.287  0.00  0.00    +0.000 C 
ATOM     31  O   UNL     1      -6.532   3.125 126.628  0.00  0.00    +0.000 OA
ATOM     32  N   UNL     1      -5.994   5.047 125.318  0.00  0.00    +0.000 N 
ATOM     33  C   UNL     1      -6.525   4.412 124.200  0.00  0.00    +0.000 A 
ATOM     34  C   UNL     1      -5.456   4.411 123.153  0.00  0.00    +0.000 A 
ATOM     35  C   UNL     1      -5.495   3.648 122.028  0.00  0.00    +0.000 A 
ATOM     36  C   UNL     1      -6.593   2.855 122.066  0.00  0.00    +0.000 A 
ATOM     37  C   UNL     1      -7.680   3.028 123.217  0.00  0.00    +0.000 A 
ATOM     38  C   UNL     1      -7.840   3.761 124.492  0.00  0.00    +0.000 A 
ATOM     39  H   UNL     1      -6.318   6.017 125.230  0.00  0.00    +0.000 HD
ENDBRANCH  26  28
ENDBRANCH  23  25
ENDBRANCH   1  23
TORSDOF 10
ENDMDL
