MODEL 1
REMARK VINA RESULT:      -9.3      0.000      0.000
REMARK  Name = CHEMBL3814126
REMARK  24 active torsions:
REMARK  status: ('A' for Active; 'I' for Inactive)
REMARK    1  A    between atoms: C_1  and  C_2
REMARK    2  A    between atoms: C_2  and  C_3
REMARK    3  A    between atoms: C_3  and  C_4
REMARK    4  A    between atoms: C_3  and  C_5
REMARK    5  A    between atoms: C_9  and  C_10
REMARK    6  A    between atoms: C_10  and  C_11
REMARK    7  A    between atoms: C_11  and  C_12
REMARK    8  A    between atoms: C_18  and  C_19
REMARK    9  A    between atoms: C_19  and  C_20
REMARK   10  A    between atoms: C_26  and  C_27
REMARK   11  A    between atoms: C_33  and  C_34
REMARK   12  A    between atoms: N_36  and  C_37
REMARK   13  A    between atoms: C_37  and  C_38
REMARK   14  A    between atoms: C_37  and  C_42
REMARK   15  A    between atoms: C_38  and  C_39
REMARK   16  A    between atoms: C_39  and  C_40
REMARK   17  A    between atoms: C_39  and  C_41
REMARK   18  A    between atoms: N_44  and  C_45
REMARK   19  A    between atoms: C_45  and  C_46
REMARK   20  A    between atoms: C_53  and  N_54
REMARK   21  A    between atoms: C_58  and  C_59
REMARK   22  A    between atoms: C_59  and  C_60
REMARK   23  A    between atoms: C_63  and  O_64
REMARK   24  A    between atoms: N_69  and  C_70
REMARK                            x       y       z     vdW  Elec       q    Type
REMARK                         _______ _______ _______ _____ _____    ______ ____
ROOT
ATOM      1  C   UNL     1      -5.900   4.317 136.142  0.00  0.00    +0.000 C 
ATOM      2  C   UNL     1      -7.544   4.816 134.753  0.00  0.00    +0.000 C 
ATOM      3  O   UNL     1      -8.837   4.912 135.177  0.00  0.00    +0.000 OA
ATOM      4  N   UNL     1      -8.720   4.978 133.124  0.00  0.00    +0.000 N 
ATOM      5  C   UNL     1      -9.716   5.020 131.363  0.00  0.00    +0.000 C 
ATOM      6  C   UNL     1     -10.348   3.680 130.365  0.00  0.00    +0.000 C 
ATOM      7  O   UNL     1     -11.493   3.224 130.300  0.00  0.00    +0.000 OA
ATOM      8  N   UNL     1      -9.414   3.068 129.599  0.00  0.00    +0.000 N 
ATOM      9  C   UNL     1      -8.197   3.658 129.253  0.00  0.00    +0.000 C 
ATOM     10  C   UNL     1      -8.380   4.697 127.878  0.00  0.00    +0.000 C 
ATOM     11  O   UNL     1      -9.263   5.565 127.746  0.00  0.00    +0.000 OA
ATOM     12  N   UNL     1      -7.436   4.744 126.908  0.00  0.00    +0.000 N 
ATOM     13  C   UNL     1      -6.399   3.746 126.695  0.00  0.00    +0.000 C 
ATOM     14  C   UNL     1      -5.206   3.979 127.797  0.00  0.00    +0.000 C 
ATOM     15  S   UNL     1      -5.480   4.647 129.744  0.00  0.00    +0.000 S 
ATOM     16  S   UNL     1      -4.454   3.611 131.039  0.00  0.00    +0.000 S 
ATOM     17  C   UNL     1      -5.505   3.467 132.516  0.00  0.00    +0.000 C 
ATOM     18  C   UNL     1      -4.480   3.547 133.562  0.00  0.00    +0.000 C 
ATOM     19  C   UNL     1      -3.399   2.412 133.468  0.00  0.00    +0.000 C 
ATOM     20  O   UNL     1      -2.620   2.313 132.524  0.00  0.00    +0.000 OA
ATOM     21  N   UNL     1      -3.235   1.504 134.465  0.00  0.00    +0.000 N 
ATOM     22  C   UNL     1      -4.028   1.342 135.634  0.00  0.00    +0.000 C 
ATOM     23  C   UNL     1      -3.938   2.636 136.211  0.00  0.00    +0.000 C 
ATOM     24  O   UNL     1      -3.695   3.615 135.580  0.00  0.00    +0.000 OA
ATOM     25  N   UNL     1      -4.835   2.856 137.152  0.00  0.00    +0.000 N 
ATOM     26  C   UNL     1      -3.482   2.222 138.402  0.00  0.00    +0.000 C 
ATOM     27  H   UNL     1      -9.482   5.816 133.105  0.00  0.00    +0.000 HD
ATOM     28  H   UNL     1      -9.470   2.084 129.388  0.00  0.00    +0.000 HD
ATOM     29  H   UNL     1      -7.615   5.490 126.243  0.00  0.00    +0.000 HD
ATOM     30  H   UNL     1      -2.524   0.827 134.300  0.00  0.00    +0.000 HD
ENDROOT
BRANCH  13  31
ATOM     31  C   UNL     1      -7.213   2.239 126.492  0.00  0.00    +0.000 C 
ATOM     32  O   UNL     1      -7.911   1.689 127.338  0.00  0.00    +0.000 OA
ATOM     33  N   UNL     1      -7.536   1.713 125.342  0.00  0.00    +0.000 N 
ATOM     34  C   UNL     1      -6.625   1.558 124.302  0.00  0.00    +0.000 C 
ATOM     35  C   UNL     1      -7.627   1.674 123.199  0.00  0.00    +0.000 C 
ATOM     36  C   UNL     1      -8.828   0.851 123.660  0.00  0.00    +0.000 C 
ATOM     37  C   UNL     1      -8.804   0.959 125.142  0.00  0.00    +0.000 C 
BRANCH  37  38
ATOM     38  C   UNL     1      -8.752  -0.560 125.501  0.00  0.00    +0.000 C 
ATOM     39  O   UNL     1      -9.385  -1.362 124.802  0.00  0.00    +0.000 OA
ATOM     40  N   UNL     1      -7.746  -0.964 126.431  0.00  0.00    +0.000 N 
ATOM     41  H   UNL     1      -7.297  -0.303 127.062  0.00  0.00    +0.000 HD
BRANCH  40  42
ATOM     42  C   UNL     1      -7.215  -2.373 126.493  0.00  0.00    +0.000 C 
BRANCH  42  43
ATOM     43  C   UNL     1      -7.024  -2.800 127.981  0.00  0.00    +0.000 C 
ATOM     44  O   UNL     1      -7.974  -3.249 128.624  0.00  0.00    +0.000 OA
ATOM     45  N   UNL     1      -5.769  -2.659 128.546  0.00  0.00    +0.000 N 
ATOM     46  H   UNL     1      -5.006  -2.284 128.013  0.00  0.00    +0.000 HD
BRANCH  45  47
ATOM     47  C   UNL     1      -5.491  -3.045 129.933  0.00  0.00    +0.000 C 
BRANCH  47  48
ATOM     48  C   UNL     1      -4.247  -2.374 130.551  0.00  0.00    +0.000 C 
ATOM     49  N   UNL     1      -3.066  -3.080 130.539  0.00  0.00    +0.000 N 
ATOM     50  O   UNL     1      -4.294  -1.247 131.040  0.00  0.00    +0.000 OA
ATOM     51  H   UNL     1      -2.934  -4.001 130.163  0.00  0.00    +0.000 HD
ATOM     52  H   UNL     1      -2.233  -2.664 130.939  0.00  0.00    +0.000 HD
ENDBRANCH  47  48
ENDBRANCH  45  47
ENDBRANCH  42  43
BRANCH  42  53
ATOM     53  C   UNL     1      -5.870  -2.616 125.756  0.00  0.00    +0.000 C 
BRANCH  53  54
ATOM     54  C   UNL     1      -6.031  -3.177 124.368  0.00  0.00    +0.000 C 
ATOM     55  C   UNL     1      -6.045  -2.094 123.393  0.00  0.00    +0.000 C 
ATOM     56  C   UNL     1      -4.845  -3.842 123.780  0.00  0.00    +0.000 C 
ENDBRANCH  53  54
ENDBRANCH  42  53
ENDBRANCH  40  42
ENDBRANCH  37  38
ENDBRANCH  13  31
BRANCH  18  57
ATOM     57  N   UNL     1      -3.900   4.934 133.536  0.00  0.00    +0.000 NA
ATOM     58  H   UNL     1      -4.618   5.523 133.119  0.00  0.00    +0.000 HD
ATOM     59  H   UNL     1      -3.215   4.944 132.799  0.00  0.00    +0.000 HD
ENDBRANCH  18  57
BRANCH   1  60
ATOM     60  C   UNL     1      -4.236   5.156 137.102  0.00  0.00    +0.000 C 
ATOM     61  C   UNL     1      -3.106   5.377 138.670  0.00  0.00    +0.000 C 
BRANCH  60  63
ATOM     62  C   UNL     1      -4.742   7.222 136.382  0.00  0.00    +0.000 C 
ATOM     63  C   UNL     1      -3.435   6.608 136.553  0.00  0.00    +0.000 C 
ENDBRANCH  60  63
ENDBRANCH   1  60
BRANCH   9  64
ATOM     64  C   UNL     1      -7.162   2.642 129.185  0.00  0.00    +0.000 C 
BRANCH  64  65
ATOM     65  C   UNL     1      -6.952   1.445 129.934  0.00  0.00    +0.000 C 
ATOM     66  N   UNL     1      -5.949   0.746 129.366  0.00  0.00    +0.000 N 
ATOM     67  O   UNL     1      -7.704   1.078 130.825  0.00  0.00    +0.000 OA
ATOM     68  H   UNL     1      -5.474   1.067 128.528  0.00  0.00    +0.000 HD
ATOM     69  H   UNL     1      -5.738  -0.152 129.738  0.00  0.00    +0.000 HD
ENDBRANCH  64  65
ENDBRANCH   9  64
BRANCH  22  70
ATOM     70  C   UNL     1      -3.632   0.236 136.542  0.00  0.00    +0.000 C 
BRANCH  70  71
ATOM     71  C   UNL     1      -3.471  -0.999 135.803  0.00  0.00    +0.000 A 
ATOM     72  C   UNL     1      -4.545  -1.550 135.127  0.00  0.00    +0.000 A 
ATOM     73  C   UNL     1      -4.301  -2.623 134.294  0.00  0.00    +0.000 A 
ATOM     74  C   UNL     1      -3.002  -3.102 134.163  0.00  0.00    +0.000 A 
ATOM     75  C   UNL     1      -1.961  -2.558 134.889  0.00  0.00    +0.000 A 
ATOM     76  C   UNL     1      -2.198  -1.522 135.739  0.00  0.00    +0.000 A 
BRANCH  74  77
ATOM     77  O   UNL     1      -2.656  -4.132 133.347  0.00  0.00    +0.000 OA
ATOM     78  H   UNL     1      -3.210  -4.158 132.555  0.00  0.00    +0.000 HD
ENDBRANCH  74  77
ENDBRANCH  70  71
ENDBRANCH  22  70
BRANCH   5  79
ATOM     79  C   UNL     1      -8.927   5.928 130.450  0.00  0.00    +0.000 C 
BRANCH  79  80
ATOM     80  C   UNL     1      -8.945   7.380 130.226  0.00  0.00    +0.000 C 
BRANCH  80  81
ATOM     81  C   UNL     1     -10.269   7.790 129.573  0.00  0.00    +0.000 C 
ATOM     82  N   UNL     1     -10.301   8.355 128.338  0.00  0.00    +0.000 N 
ATOM     83  O   UNL     1     -11.326   7.583 130.154  0.00  0.00    +0.000 OA
ATOM     84  H   UNL     1      -9.488   8.651 127.808  0.00  0.00    +0.000 HD
ATOM     85  H   UNL     1     -11.145   8.748 127.934  0.00  0.00    +0.000 HD
ENDBRANCH  80  81
ENDBRANCH  79  80
ENDBRANCH   5  79
TORSDOF 19
ENDMDL
MODEL 2
REMARK VINA RESULT:      -8.4      3.550     10.850
REMARK  Name = CHEMBL3814126
REMARK  24 active torsions:
REMARK  status: ('A' for Active; 'I' for Inactive)
REMARK    1  A    between atoms: C_1  and  C_2
REMARK    2  A    between atoms: C_2  and  C_3
REMARK    3  A    between atoms: C_3  and  C_4
REMARK    4  A    between atoms: C_3  and  C_5
REMARK    5  A    between atoms: C_9  and  C_10
REMARK    6  A    between atoms: C_10  and  C_11
REMARK    7  A    between atoms: C_11  and  C_12
REMARK    8  A    between atoms: C_18  and  C_19
REMARK    9  A    between atoms: C_19  and  C_20
REMARK   10  A    between atoms: C_26  and  C_27
REMARK   11  A    between atoms: C_33  and  C_34
REMARK   12  A    between atoms: N_36  and  C_37
REMARK   13  A    between atoms: C_37  and  C_38
REMARK   14  A    between atoms: C_37  and  C_42
REMARK   15  A    between atoms: C_38  and  C_39
REMARK   16  A    between atoms: C_39  and  C_40
REMARK   17  A    between atoms: C_39  and  C_41
REMARK   18  A    between atoms: N_44  and  C_45
REMARK   19  A    between atoms: C_45  and  C_46
REMARK   20  A    between atoms: C_53  and  N_54
REMARK   21  A    between atoms: C_58  and  C_59
REMARK   22  A    between atoms: C_59  and  C_60
REMARK   23  A    between atoms: C_63  and  O_64
REMARK   24  A    between atoms: N_69  and  C_70
REMARK                            x       y       z     vdW  Elec       q    Type
REMARK                         _______ _______ _______ _____ _____    ______ ____
ROOT
ATOM      1  C   UNL     1      -8.343   2.238 131.650  0.00  0.00    +0.000 C 
ATOM      2  C   UNL     1      -8.215   0.067 132.038  0.00  0.00    +0.000 C 
ATOM      3  O   UNL     1      -9.331  -0.698 132.211  0.00  0.00    +0.000 OA
ATOM      4  N   UNL     1      -7.625  -1.758 132.662  0.00  0.00    +0.000 N 
ATOM      5  C   UNL     1      -6.827  -3.473 133.379  0.00  0.00    +0.000 C 
ATOM      6  C   UNL     1      -6.468  -3.961 135.060  0.00  0.00    +0.000 C 
ATOM      7  O   UNL     1      -7.127  -4.667 135.829  0.00  0.00    +0.000 OA
ATOM      8  N   UNL     1      -5.317  -3.447 135.554  0.00  0.00    +0.000 N 
ATOM      9  C   UNL     1      -4.282  -2.965 134.751  0.00  0.00    +0.000 C 
ATOM     10  C   UNL     1      -3.260  -4.257 134.214  0.00  0.00    +0.000 C 
ATOM     11  O   UNL     1      -3.656  -5.323 133.707  0.00  0.00    +0.000 OA
ATOM     12  N   UNL     1      -1.916  -4.105 134.153  0.00  0.00    +0.000 N 
ATOM     13  C   UNL     1      -1.157  -3.062 134.827  0.00  0.00    +0.000 C 
ATOM     14  C   UNL     1      -1.301  -1.668 133.975  0.00  0.00    +0.000 C 
ATOM     15  S   UNL     1      -2.990  -1.070 132.923  0.00  0.00    +0.000 S 
ATOM     16  S   UNL     1      -3.437   0.802 133.235  0.00  0.00    +0.000 S 
ATOM     17  C   UNL     1      -5.253   0.885 133.280  0.00  0.00    +0.000 C 
ATOM     18  C   UNL     1      -5.461   2.184 132.631  0.00  0.00    +0.000 C 
ATOM     19  C   UNL     1      -4.776   3.378 133.386  0.00  0.00    +0.000 C 
ATOM     20  O   UNL     1      -3.557   3.479 133.502  0.00  0.00    +0.000 OA
ATOM     21  N   UNL     1      -5.504   4.399 133.909  0.00  0.00    +0.000 N 
ATOM     22  C   UNL     1      -6.920   4.512 133.977  0.00  0.00    +0.000 C 
ATOM     23  C   UNL     1      -7.274   4.387 132.608  0.00  0.00    +0.000 C 
ATOM     24  O   UNL     1      -6.588   3.840 131.805  0.00  0.00    +0.000 OA
ATOM     25  N   UNL     1      -8.556   4.150 132.417  0.00  0.00    +0.000 N 
ATOM     26  C   UNL     1      -8.756   6.082 132.276  0.00  0.00    +0.000 C 
ATOM     27  H   UNL     1      -8.040  -2.660 132.117  0.00  0.00    +0.000 HD
ATOM     28  H   UNL     1      -5.221  -3.219 136.532  0.00  0.00    +0.000 HD
ATOM     29  H   UNL     1      -1.466  -4.892 133.696  0.00  0.00    +0.000 HD
ATOM     30  H   UNL     1      -4.968   5.101 134.369  0.00  0.00    +0.000 HD
ENDROOT
BRANCH  13  31
ATOM     31  C   UNL     1      -1.546  -3.186 136.503  0.00  0.00    +0.000 C 
ATOM     32  O   UNL     1      -2.285  -4.030 137.000  0.00  0.00    +0.000 OA
ATOM     33  N   UNL     1      -0.820  -2.705 137.476  0.00  0.00    +0.000 N 
ATOM     34  C   UNL     1      -0.371  -1.388 137.501  0.00  0.00    +0.000 C 
ATOM     35  C   UNL     1       0.872  -1.664 138.285  0.00  0.00    +0.000 C 
ATOM     36  C   UNL     1       0.447  -2.638 139.381  0.00  0.00    +0.000 C 
ATOM     37  C   UNL     1      -0.668  -3.413 138.777  0.00  0.00    +0.000 C 
BRANCH  37  38
ATOM     38  C   UNL     1      -1.776  -3.123 139.839  0.00  0.00    +0.000 C 
ATOM     39  O   UNL     1      -1.576  -3.451 141.016  0.00  0.00    +0.000 OA
ATOM     40  N   UNL     1      -2.824  -2.236 139.446  0.00  0.00    +0.000 N 
ATOM     41  H   UNL     1      -3.032  -2.046 138.466  0.00  0.00    +0.000 HD
BRANCH  40  42
ATOM     42  C   UNL     1      -3.644  -1.454 140.439  0.00  0.00    +0.000 C 
BRANCH  42  43
ATOM     43  C   UNL     1      -5.117  -1.967 140.428  0.00  0.00    +0.000 C 
ATOM     44  O   UNL     1      -5.398  -3.053 140.937  0.00  0.00    +0.000 OA
ATOM     45  N   UNL     1      -6.082  -1.172 139.836  0.00  0.00    +0.000 N 
ATOM     46  H   UNL     1      -5.836  -0.293 139.418  0.00  0.00    +0.000 HD
BRANCH  45  47
ATOM     47  C   UNL     1      -7.493  -1.565 139.789  0.00  0.00    +0.000 C 
BRANCH  47  48
ATOM     48  C   UNL     1      -7.868  -2.479 138.604  0.00  0.00    +0.000 C 
ATOM     49  N   UNL     1      -7.617  -3.826 138.731  0.00  0.00    +0.000 N 
ATOM     50  O   UNL     1      -8.374  -2.033 137.576  0.00  0.00    +0.000 OA
ATOM     51  H   UNL     1      -7.209  -4.278 139.528  0.00  0.00    +0.000 HD
ATOM     52  H   UNL     1      -7.853  -4.451 137.968  0.00  0.00    +0.000 HD
ENDBRANCH  47  48
ENDBRANCH  45  47
ENDBRANCH  42  43
BRANCH  42  53
ATOM     53  C   UNL     1      -3.677   0.083 140.219  0.00  0.00    +0.000 C 
BRANCH  53  54
ATOM     54  C   UNL     1      -2.348   0.669 139.823  0.00  0.00    +0.000 C 
ATOM     55  C   UNL     1      -2.459   2.117 139.704  0.00  0.00    +0.000 C 
ATOM     56  C   UNL     1      -1.307   0.722 140.876  0.00  0.00    +0.000 C 
ENDBRANCH  53  54
ENDBRANCH  42  53
ENDBRANCH  40  42
ENDBRANCH  37  38
ENDBRANCH  13  31
BRANCH  18  57
ATOM     57  N   UNL     1      -5.037   2.057 131.195  0.00  0.00    +0.000 NA
ATOM     58  H   UNL     1      -4.098   1.665 131.221  0.00  0.00    +0.000 HD
ATOM     59  H   UNL     1      -4.830   2.989 130.874  0.00  0.00    +0.000 HD
ENDBRANCH  18  57
BRANCH   1  60
ATOM     60  C   UNL     1      -8.066   3.666 130.142  0.00  0.00    +0.000 C 
ATOM     61  C   UNL     1      -8.624   5.269 129.190  0.00  0.00    +0.000 C 
BRANCH  60  63
ATOM     62  C   UNL     1      -7.779   2.138 128.522  0.00  0.00    +0.000 C 
ATOM     63  C   UNL     1      -7.080   3.397 128.725  0.00  0.00    +0.000 C 
ENDBRANCH  60  63
ENDBRANCH   1  60
BRANCH   9  64
ATOM     64  C   UNL     1      -3.640  -1.837 135.403  0.00  0.00    +0.000 C 
BRANCH  64  65
ATOM     65  C   UNL     1      -4.094  -0.939 136.415  0.00  0.00    +0.000 C 
ATOM     66  N   UNL     1      -3.250   0.111 136.475  0.00  0.00    +0.000 N 
ATOM     67  O   UNL     1      -5.000  -1.211 137.189  0.00  0.00    +0.000 OA
ATOM     68  H   UNL     1      -2.430   0.179 135.882  0.00  0.00    +0.000 HD
ATOM     69  H   UNL     1      -3.398   0.787 137.189  0.00  0.00    +0.000 HD
ENDBRANCH  64  65
ENDBRANCH   9  64
BRANCH  22  70
ATOM     70  C   UNL     1      -7.444   5.734 134.639  0.00  0.00    +0.000 C 
BRANCH  70  71
ATOM     71  C   UNL     1      -7.191   5.693 136.064  0.00  0.00    +0.000 A 
ATOM     72  C   UNL     1      -6.076   5.036 136.553  0.00  0.00    +0.000 A 
ATOM     73  C   UNL     1      -5.780   5.177 137.894  0.00  0.00    +0.000 A 
ATOM     74  C   UNL     1      -6.602   5.965 138.693  0.00  0.00    +0.000 A 
ATOM     75  C   UNL     1      -7.734   6.569 138.181  0.00  0.00    +0.000 A 
ATOM     76  C   UNL     1      -8.051   6.407 136.868  0.00  0.00    +0.000 A 
BRANCH  74  77
ATOM     77  O   UNL     1      -6.379   6.190 140.014  0.00  0.00    +0.000 OA
ATOM     78  H   UNL     1      -5.939   7.039 140.160  0.00  0.00    +0.000 HD
ENDBRANCH  74  77
ENDBRANCH  70  71
ENDBRANCH  22  70
BRANCH   5  79
ATOM     79  C   UNL     1      -5.589  -3.741 132.558  0.00  0.00    +0.000 C 
BRANCH  79  80
ATOM     80  C   UNL     1      -5.386  -4.186 131.173  0.00  0.00    +0.000 C 
BRANCH  80  81
ATOM     81  C   UNL     1      -4.996  -2.994 130.293  0.00  0.00    +0.000 C 
ATOM     82  N   UNL     1      -4.068  -3.117 129.309  0.00  0.00    +0.000 N 
ATOM     83  O   UNL     1      -5.545  -1.911 130.454  0.00  0.00    +0.000 OA
ATOM     84  H   UNL     1      -3.491  -3.935 129.146  0.00  0.00    +0.000 HD
ATOM     85  H   UNL     1      -3.701  -2.322 128.796  0.00  0.00    +0.000 HD
ENDBRANCH  80  81
ENDBRANCH  79  80
ENDBRANCH   5  79
TORSDOF 19
ENDMDL
MODEL 3
REMARK VINA RESULT:      -8.3      2.640      4.122
REMARK  Name = CHEMBL3814126
REMARK  24 active torsions:
REMARK  status: ('A' for Active; 'I' for Inactive)
REMARK    1  A    between atoms: C_1  and  C_2
REMARK    2  A    between atoms: C_2  and  C_3
REMARK    3  A    between atoms: C_3  and  C_4
REMARK    4  A    between atoms: C_3  and  C_5
REMARK    5  A    between atoms: C_9  and  C_10
REMARK    6  A    between atoms: C_10  and  C_11
REMARK    7  A    between atoms: C_11  and  C_12
REMARK    8  A    between atoms: C_18  and  C_19
REMARK    9  A    between atoms: C_19  and  C_20
REMARK   10  A    between atoms: C_26  and  C_27
REMARK   11  A    between atoms: C_33  and  C_34
REMARK   12  A    between atoms: N_36  and  C_37
REMARK   13  A    between atoms: C_37  and  C_38
REMARK   14  A    between atoms: C_37  and  C_42
REMARK   15  A    between atoms: C_38  and  C_39
REMARK   16  A    between atoms: C_39  and  C_40
REMARK   17  A    between atoms: C_39  and  C_41
REMARK   18  A    between atoms: N_44  and  C_45
REMARK   19  A    between atoms: C_45  and  C_46
REMARK   20  A    between atoms: C_53  and  N_54
REMARK   21  A    between atoms: C_58  and  C_59
REMARK   22  A    between atoms: C_59  and  C_60
REMARK   23  A    between atoms: C_63  and  O_64
REMARK   24  A    between atoms: N_69  and  C_70
REMARK                            x       y       z     vdW  Elec       q    Type
REMARK                         _______ _______ _______ _____ _____    ______ ____
ROOT
ATOM      1  C   UNL     1      -4.961  -0.135 135.195  0.00  0.00    +0.000 C 
ATOM      2  C   UNL     1      -6.151   1.455 134.226  0.00  0.00    +0.000 C 
ATOM      3  O   UNL     1      -7.264   1.977 134.814  0.00  0.00    +0.000 OA
ATOM      4  N   UNL     1      -7.073   2.630 132.872  0.00  0.00    +0.000 N 
ATOM      5  C   UNL     1      -7.888   3.666 131.336  0.00  0.00    +0.000 C 
ATOM      6  C   UNL     1      -9.039   3.140 130.076  0.00  0.00    +0.000 C 
ATOM      7  O   UNL     1     -10.263   3.289 130.020  0.00  0.00    +0.000 OA
ATOM      8  N   UNL     1      -8.471   2.453 129.055  0.00  0.00    +0.000 N 
ATOM      9  C   UNL     1      -7.110   2.515 128.750  0.00  0.00    +0.000 C 
ATOM     10  C   UNL     1      -6.756   3.901 127.773  0.00  0.00    +0.000 C 
ATOM     11  O   UNL     1      -7.134   5.063 128.010  0.00  0.00    +0.000 OA
ATOM     12  N   UNL     1      -5.869   3.826 126.752  0.00  0.00    +0.000 N 
ATOM     13  C   UNL     1      -5.405   2.595 126.131  0.00  0.00    +0.000 C 
ATOM     14  C   UNL     1      -4.269   1.910 127.097  0.00  0.00    +0.000 C 
ATOM     15  S   UNL     1      -4.259   1.977 129.173  0.00  0.00    +0.000 S 
ATOM     16  S   UNL     1      -3.863   0.242 129.972  0.00  0.00    +0.000 S 
ATOM     17  C   UNL     1      -4.902   0.123 131.459  0.00  0.00    +0.000 C 
ATOM     18  C   UNL     1      -3.985  -0.596 132.349  0.00  0.00    +0.000 C 
ATOM     19  C   UNL     1      -3.548  -2.000 131.796  0.00  0.00    +0.000 C 
ATOM     20  O   UNL     1      -2.876  -2.131 130.775  0.00  0.00    +0.000 OA
ATOM     21  N   UNL     1      -3.849  -3.148 132.455  0.00  0.00    +0.000 N 
ATOM     22  C   UNL     1      -4.659  -3.300 133.614  0.00  0.00    +0.000 C 
ATOM     23  C   UNL     1      -3.998  -2.439 134.528  0.00  0.00    +0.000 C 
ATOM     24  O   UNL     1      -3.314  -1.528 134.187  0.00  0.00    +0.000 OA
ATOM     25  N   UNL     1      -4.719  -2.153 135.595  0.00  0.00    +0.000 N 
ATOM     26  C   UNL     1      -3.846  -3.681 136.429  0.00  0.00    +0.000 C 
ATOM     27  H   UNL     1      -7.361   3.677 133.193  0.00  0.00    +0.000 HD
ATOM     28  H   UNL     1      -8.970   1.721 128.574  0.00  0.00    +0.000 HD
ATOM     29  H   UNL     1      -5.665   4.741 126.361  0.00  0.00    +0.000 HD
ATOM     30  H   UNL     1      -3.526  -3.980 132.013  0.00  0.00    +0.000 HD
ENDROOT
BRANCH  13  31
ATOM     31  C   UNL     1      -6.816   1.760 125.597  0.00  0.00    +0.000 C 
ATOM     32  O   UNL     1      -7.679   1.285 126.328  0.00  0.00    +0.000 OA
ATOM     33  N   UNL     1      -7.354   1.882 124.413  0.00  0.00    +0.000 N 
ATOM     34  C   UNL     1      -6.622   1.754 123.236  0.00  0.00    +0.000 C 
ATOM     35  C   UNL     1      -7.474   2.676 122.424  0.00  0.00    +0.000 C 
ATOM     36  C   UNL     1      -8.913   2.327 122.798  0.00  0.00    +0.000 C 
ATOM     37  C   UNL     1      -8.828   1.861 124.206  0.00  0.00    +0.000 C 
BRANCH  37  38
ATOM     38  C   UNL     1      -9.468   0.446 124.039  0.00  0.00    +0.000 C 
ATOM     39  O   UNL     1     -10.136   0.208 123.025  0.00  0.00    +0.000 OA
ATOM     40  N   UNL     1      -9.000  -0.576 124.920  0.00  0.00    +0.000 N 
ATOM     41  H   UNL     1      -8.527  -0.360 125.797  0.00  0.00    +0.000 HD
BRANCH  40  42
ATOM     42  C   UNL     1      -9.092  -2.043 124.587  0.00  0.00    +0.000 C 
BRANCH  42  43
ATOM     43  C   UNL     1      -9.455  -2.855 125.868  0.00  0.00    +0.000 C 
ATOM     44  O   UNL     1     -10.595  -3.297 126.018  0.00  0.00    +0.000 OA
ATOM     45  N   UNL     1      -8.468  -3.055 126.816  0.00  0.00    +0.000 N 
ATOM     46  H   UNL     1      -7.547  -2.681 126.684  0.00  0.00    +0.000 HD
BRANCH  45  47
ATOM     47  C   UNL     1      -8.713  -3.815 128.045  0.00  0.00    +0.000 C 
BRANCH  47  48
ATOM     48  C   UNL     1      -7.667  -3.594 129.158  0.00  0.00    +0.000 C 
ATOM     49  N   UNL     1      -8.122  -3.195 130.394  0.00  0.00    +0.000 N 
ATOM     50  O   UNL     1      -6.466  -3.765 128.962  0.00  0.00    +0.000 OA
ATOM     51  H   UNL     1      -9.080  -3.031 130.645  0.00  0.00    +0.000 HD
ATOM     52  H   UNL     1      -7.458  -3.041 131.144  0.00  0.00    +0.000 HD
ENDBRANCH  47  48
ENDBRANCH  45  47
ENDBRANCH  42  43
BRANCH  42  53
ATOM     53  C   UNL     1      -7.812  -2.674 123.975  0.00  0.00    +0.000 C 
BRANCH  53  54
ATOM     54  C   UNL     1      -6.732  -1.673 123.660  0.00  0.00    +0.000 C 
ATOM     55  C   UNL     1      -5.548  -1.949 124.464  0.00  0.00    +0.000 C 
ATOM     56  C   UNL     1      -6.031  -1.839 122.366  0.00  0.00    +0.000 C 
ENDBRANCH  53  54
ENDBRANCH  42  53
ENDBRANCH  40  42
ENDBRANCH  37  38
ENDBRANCH  13  31
BRANCH  18  57
ATOM     57  N   UNL     1      -2.831   0.315 132.660  0.00  0.00    +0.000 NA
ATOM     58  H   UNL     1      -3.239   1.237 132.794  0.00  0.00    +0.000 HD
ATOM     59  H   UNL     1      -2.342   0.463 131.792  0.00  0.00    +0.000 HD
ENDBRANCH  18  57
BRANCH   1  60
ATOM     60  C   UNL     1      -3.126  -0.477 136.147  0.00  0.00    +0.000 C 
ATOM     61  C   UNL     1      -1.337  -1.242 136.174  0.00  0.00    +0.000 C 
BRANCH  60  63
ATOM     62  C   UNL     1      -3.511   0.957 137.831  0.00  0.00    +0.000 C 
ATOM     63  C   UNL     1      -2.896  -0.360 137.875  0.00  0.00    +0.000 C 
ENDBRANCH  60  63
ENDBRANCH   1  60
BRANCH   9  64
ATOM     64  C   UNL     1      -6.660   1.224 128.261  0.00  0.00    +0.000 C 
BRANCH  64  65
ATOM     65  C   UNL     1      -7.022  -0.110 128.620  0.00  0.00    +0.000 C 
ATOM     66  N   UNL     1      -6.351  -0.971 127.829  0.00  0.00    +0.000 N 
ATOM     67  O   UNL     1      -7.928  -0.366 129.400  0.00  0.00    +0.000 OA
ATOM     68  H   UNL     1      -5.720  -0.655 127.100  0.00  0.00    +0.000 HD
ATOM     69  H   UNL     1      -6.558  -1.940 127.915  0.00  0.00    +0.000 HD
ENDBRANCH  64  65
ENDBRANCH   9  64
BRANCH  22  70
ATOM     70  C   UNL     1      -4.844  -4.690 134.102  0.00  0.00    +0.000 C 
BRANCH  70  71
ATOM     71  C   UNL     1      -6.215  -4.910 134.514  0.00  0.00    +0.000 A 
ATOM     72  C   UNL     1      -6.523  -5.949 135.374  0.00  0.00    +0.000 A 
ATOM     73  C   UNL     1      -7.806  -6.008 135.879  0.00  0.00    +0.000 A 
ATOM     74  C   UNL     1      -8.728  -5.034 135.512  0.00  0.00    +0.000 A 
ATOM     75  C   UNL     1      -8.399  -4.037 134.614  0.00  0.00    +0.000 A 
ATOM     76  C   UNL     1      -7.146  -3.992 134.085  0.00  0.00    +0.000 A 
BRANCH  74  77
ATOM     77  O   UNL     1     -10.004  -4.988 135.977  0.00  0.00    +0.000 OA
ATOM     78  H   UNL     1     -10.263  -4.087 136.215  0.00  0.00    +0.000 HD
ENDBRANCH  74  77
ENDBRANCH  70  71
ENDBRANCH  22  70
BRANCH   5  79
ATOM     79  C   UNL     1      -6.744   4.362 130.640  0.00  0.00    +0.000 C 
BRANCH  79  80
ATOM     80  C   UNL     1      -5.986   5.584 130.942  0.00  0.00    +0.000 C 
BRANCH  80  81
ATOM     81  C   UNL     1      -4.555   5.456 130.409  0.00  0.00    +0.000 C 
ATOM     82  N   UNL     1      -4.227   5.880 129.162  0.00  0.00    +0.000 N 
ATOM     83  O   UNL     1      -3.678   4.990 131.124  0.00  0.00    +0.000 OA
ATOM     84  H   UNL     1      -4.885   6.197 128.458  0.00  0.00    +0.000 HD
ATOM     85  H   UNL     1      -3.322   5.696 128.738  0.00  0.00    +0.000 HD
ENDBRANCH  80  81
ENDBRANCH  79  80
ENDBRANCH   5  79
TORSDOF 19
ENDMDL
MODEL 4
REMARK VINA RESULT:      -8.2      3.975     10.865
REMARK  Name = CHEMBL3814126
REMARK  24 active torsions:
REMARK  status: ('A' for Active; 'I' for Inactive)
REMARK    1  A    between atoms: C_1  and  C_2
REMARK    2  A    between atoms: C_2  and  C_3
REMARK    3  A    between atoms: C_3  and  C_4
REMARK    4  A    between atoms: C_3  and  C_5
REMARK    5  A    between atoms: C_9  and  C_10
REMARK    6  A    between atoms: C_10  and  C_11
REMARK    7  A    between atoms: C_11  and  C_12
REMARK    8  A    between atoms: C_18  and  C_19
REMARK    9  A    between atoms: C_19  and  C_20
REMARK   10  A    between atoms: C_26  and  C_27
REMARK   11  A    between atoms: C_33  and  C_34
REMARK   12  A    between atoms: N_36  and  C_37
REMARK   13  A    between atoms: C_37  and  C_38
REMARK   14  A    between atoms: C_37  and  C_42
REMARK   15  A    between atoms: C_38  and  C_39
REMARK   16  A    between atoms: C_39  and  C_40
REMARK   17  A    between atoms: C_39  and  C_41
REMARK   18  A    between atoms: N_44  and  C_45
REMARK   19  A    between atoms: C_45  and  C_46
REMARK   20  A    between atoms: C_53  and  N_54
REMARK   21  A    between atoms: C_58  and  C_59
REMARK   22  A    between atoms: C_59  and  C_60
REMARK   23  A    between atoms: C_63  and  O_64
REMARK   24  A    between atoms: N_69  and  C_70
REMARK                            x       y       z     vdW  Elec       q    Type
REMARK                         _______ _______ _______ _____ _____    ______ ____
ROOT
ATOM      1  C   UNL     1      -6.761   2.427 130.170  0.00  0.00    +0.000 C 
ATOM      2  C   UNL     1      -7.322   0.338 130.621  0.00  0.00    +0.000 C 
ATOM      3  O   UNL     1      -8.588  -0.125 130.418  0.00  0.00    +0.000 OA
ATOM      4  N   UNL     1      -7.450  -1.497 131.447  0.00  0.00    +0.000 N 
ATOM      5  C   UNL     1      -7.392  -3.265 132.430  0.00  0.00    +0.000 C 
ATOM      6  C   UNL     1      -7.738  -3.642 134.141  0.00  0.00    +0.000 C 
ATOM      7  O   UNL     1      -8.768  -4.092 134.652  0.00  0.00    +0.000 OA
ATOM      8  N   UNL     1      -6.721  -3.360 134.989  0.00  0.00    +0.000 N 
ATOM      9  C   UNL     1      -5.394  -3.217 134.579  0.00  0.00    +0.000 C 
ATOM     10  C   UNL     1      -4.616  -4.760 134.452  0.00  0.00    +0.000 C 
ATOM     11  O   UNL     1      -5.080  -5.752 133.861  0.00  0.00    +0.000 OA
ATOM     12  N   UNL     1      -3.333  -4.930 134.852  0.00  0.00    +0.000 N 
ATOM     13  C   UNL     1      -2.599  -4.025 135.724  0.00  0.00    +0.000 C 
ATOM     14  C   UNL     1      -2.098  -2.733 134.846  0.00  0.00    +0.000 C 
ATOM     15  S   UNL     1      -3.141  -1.876 133.267  0.00  0.00    +0.000 S 
ATOM     16  S   UNL     1      -3.176   0.071 133.368  0.00  0.00    +0.000 S 
ATOM     17  C   UNL     1      -4.823   0.576 132.786  0.00  0.00    +0.000 C 
ATOM     18  C   UNL     1      -4.472   1.812 132.079  0.00  0.00    +0.000 C 
ATOM     19  C   UNL     1      -3.793   2.888 132.999  0.00  0.00    +0.000 C 
ATOM     20  O   UNL     1      -2.695   2.716 133.523  0.00  0.00    +0.000 OA
ATOM     21  N   UNL     1      -4.367   4.099 133.220  0.00  0.00    +0.000 N 
ATOM     22  C   UNL     1      -5.651   4.543 132.797  0.00  0.00    +0.000 C 
ATOM     23  C   UNL     1      -5.557   4.360 131.392  0.00  0.00    +0.000 C 
ATOM     24  O   UNL     1      -4.809   3.588 130.884  0.00  0.00    +0.000 OA
ATOM     25  N   UNL     1      -6.723   4.407 130.778  0.00  0.00    +0.000 N 
ATOM     26  C   UNL     1      -6.369   6.307 130.537  0.00  0.00    +0.000 C 
ATOM     27  H   UNL     1      -7.878  -2.331 130.812  0.00  0.00    +0.000 HD
ATOM     28  H   UNL     1      -6.895  -3.058 135.936  0.00  0.00    +0.000 HD
ATOM     29  H   UNL     1      -2.974  -5.843 134.593  0.00  0.00    +0.000 HD
ATOM     30  H   UNL     1      -3.852   4.702 133.821  0.00  0.00    +0.000 HD
ENDROOT
BRANCH  13  31
ATOM     31  C   UNL     1      -3.531  -3.879 137.167  0.00  0.00    +0.000 C 
ATOM     32  O   UNL     1      -4.569  -4.489 137.407  0.00  0.00    +0.000 OA
ATOM     33  N   UNL     1      -3.072  -3.457 138.314  0.00  0.00    +0.000 N 
ATOM     34  C   UNL     1      -2.359  -2.269 138.449  0.00  0.00    +0.000 C 
ATOM     35  C   UNL     1      -1.543  -2.711 139.621  0.00  0.00    +0.000 C 
ATOM     36  C   UNL     1      -2.519  -3.448 140.535  0.00  0.00    +0.000 C 
ATOM     37  C   UNL     1      -3.525  -4.032 139.610  0.00  0.00    +0.000 C 
BRANCH  37  38
ATOM     38  C   UNL     1      -4.818  -3.401 140.217  0.00  0.00    +0.000 C 
ATOM     39  O   UNL     1      -5.032  -3.525 141.430  0.00  0.00    +0.000 OA
ATOM     40  N   UNL     1      -5.523  -2.471 139.394  0.00  0.00    +0.000 N 
ATOM     41  H   UNL     1      -5.399  -2.441 138.383  0.00  0.00    +0.000 HD
BRANCH  40  42
ATOM     42  C   UNL     1      -6.434  -1.412 139.960  0.00  0.00    +0.000 C 
BRANCH  42  43
ATOM     43  C   UNL     1      -7.870  -1.583 139.375  0.00  0.00    +0.000 C 
ATOM     44  O   UNL     1      -8.798  -0.893 139.800  0.00  0.00    +0.000 OA
ATOM     45  N   UNL     1      -8.063  -2.525 138.380  0.00  0.00    +0.000 N 
ATOM     46  H   UNL     1      -7.299  -3.087 138.051  0.00  0.00    +0.000 HD
BRANCH  45  47
ATOM     47  C   UNL     1      -9.374  -2.748 137.763  0.00  0.00    +0.000 C 
BRANCH  47  48
ATOM     48  C   UNL     1     -10.003  -4.124 138.067  0.00  0.00    +0.000 C 
ATOM     49  N   UNL     1     -10.480  -4.858 137.005  0.00  0.00    +0.000 N 
ATOM     50  O   UNL     1     -10.080  -4.563 139.212  0.00  0.00    +0.000 OA
ATOM     51  H   UNL     1     -10.459  -4.582 136.041  0.00  0.00    +0.000 HD
ATOM     52  H   UNL     1     -10.899  -5.765 137.175  0.00  0.00    +0.000 HD
ENDBRANCH  47  48
ENDBRANCH  45  47
ENDBRANCH  42  43
BRANCH  42  53
ATOM     53  C   UNL     1      -5.994   0.056 139.708  0.00  0.00    +0.000 C 
BRANCH  53  54
ATOM     54  C   UNL     1      -5.783   0.852 140.969  0.00  0.00    +0.000 C 
ATOM     55  C   UNL     1      -6.908   1.753 141.183  0.00  0.00    +0.000 C 
ATOM     56  C   UNL     1      -5.972   0.129 142.248  0.00  0.00    +0.000 C 
ENDBRANCH  53  54
ENDBRANCH  42  53
ENDBRANCH  40  42
ENDBRANCH  37  38
ENDBRANCH  13  31
BRANCH  18  57
ATOM     57  N   UNL     1      -3.648   1.440 130.878  0.00  0.00    +0.000 NA
ATOM     58  H   UNL     1      -3.275   2.316 130.521  0.00  0.00    +0.000 HD
ATOM     59  H   UNL     1      -4.299   1.213 130.144  0.00  0.00    +0.000 HD
ENDBRANCH  18  57
BRANCH   1  60
ATOM     60  C   UNL     1      -5.655   3.586 128.819  0.00  0.00    +0.000 C 
ATOM     61  C   UNL     1      -4.137   4.728 128.398  0.00  0.00    +0.000 C 
BRANCH  60  63
ATOM     62  C   UNL     1      -6.471   2.885 126.847  0.00  0.00    +0.000 C 
ATOM     63  C   UNL     1      -6.317   4.244 127.342  0.00  0.00    +0.000 C 
ENDBRANCH  60  63
ENDBRANCH   1  60
BRANCH   9  64
ATOM     64  C   UNL     1      -4.738  -2.206 135.389  0.00  0.00    +0.000 C 
BRANCH  64  65
ATOM     65  C   UNL     1      -5.250  -1.095 136.124  0.00  0.00    +0.000 C 
ATOM     66  N   UNL     1      -4.216  -0.346 136.557  0.00  0.00    +0.000 N 
ATOM     67  O   UNL     1      -6.428  -0.987 136.431  0.00  0.00    +0.000 OA
ATOM     68  H   UNL     1      -3.250  -0.600 136.373  0.00  0.00    +0.000 HD
ATOM     69  H   UNL     1      -4.417   0.427 137.150  0.00  0.00    +0.000 HD
ENDBRANCH  64  65
ENDBRANCH   9  64
BRANCH  22  70
ATOM     70  C   UNL     1      -6.035   5.915 133.213  0.00  0.00    +0.000 C 
BRANCH  70  71
ATOM     71  C   UNL     1      -6.298   5.963 134.637  0.00  0.00    +0.000 A 
ATOM     72  C   UNL     1      -5.333   6.438 135.506  0.00  0.00    +0.000 A 
ATOM     73  C   UNL     1      -5.692   6.634 136.824  0.00  0.00    +0.000 A 
ATOM     74  C   UNL     1      -6.994   6.352 137.224  0.00  0.00    +0.000 A 
ATOM     75  C   UNL     1      -7.920   5.834 136.339  0.00  0.00    +0.000 A 
ATOM     76  C   UNL     1      -7.564   5.606 135.046  0.00  0.00    +0.000 A 
BRANCH  74  77
ATOM     77  O   UNL     1      -7.453   6.539 138.489  0.00  0.00    +0.000 OA
ATOM     78  H   UNL     1      -8.282   7.038 138.495  0.00  0.00    +0.000 HD
ENDBRANCH  74  77
ENDBRANCH  70  71
ENDBRANCH  22  70
BRANCH   5  79
ATOM     79  C   UNL     1      -6.064  -3.897 132.088  0.00  0.00    +0.000 C 
BRANCH  79  80
ATOM     80  C   UNL     1      -5.504  -4.431 130.839  0.00  0.00    +0.000 C 
BRANCH  80  81
ATOM     81  C   UNL     1      -4.583  -3.390 130.194  0.00  0.00    +0.000 C 
ATOM     82  N   UNL     1      -3.263  -3.642 129.996  0.00  0.00    +0.000 N 
ATOM     83  O   UNL     1      -5.042  -2.319 129.818  0.00  0.00    +0.000 OA
ATOM     84  H   UNL     1      -2.763  -4.452 130.345  0.00  0.00    +0.000 HD
ATOM     85  H   UNL     1      -2.607  -2.931 129.687  0.00  0.00    +0.000 HD
ENDBRANCH  80  81
ENDBRANCH  79  80
ENDBRANCH   5  79
TORSDOF 19
ENDMDL
MODEL 5
REMARK VINA RESULT:      -8.2      3.364      7.716
REMARK  Name = CHEMBL3814126
REMARK  24 active torsions:
REMARK  status: ('A' for Active; 'I' for Inactive)
REMARK    1  A    between atoms: C_1  and  C_2
REMARK    2  A    between atoms: C_2  and  C_3
REMARK    3  A    between atoms: C_3  and  C_4
REMARK    4  A    between atoms: C_3  and  C_5
REMARK    5  A    between atoms: C_9  and  C_10
REMARK    6  A    between atoms: C_10  and  C_11
REMARK    7  A    between atoms: C_11  and  C_12
REMARK    8  A    between atoms: C_18  and  C_19
REMARK    9  A    between atoms: C_19  and  C_20
REMARK   10  A    between atoms: C_26  and  C_27
REMARK   11  A    between atoms: C_33  and  C_34
REMARK   12  A    between atoms: N_36  and  C_37
REMARK   13  A    between atoms: C_37  and  C_38
REMARK   14  A    between atoms: C_37  and  C_42
REMARK   15  A    between atoms: C_38  and  C_39
REMARK   16  A    between atoms: C_39  and  C_40
REMARK   17  A    between atoms: C_39  and  C_41
REMARK   18  A    between atoms: N_44  and  C_45
REMARK   19  A    between atoms: C_45  and  C_46
REMARK   20  A    between atoms: C_53  and  N_54
REMARK   21  A    between atoms: C_58  and  C_59
REMARK   22  A    between atoms: C_59  and  C_60
REMARK   23  A    between atoms: C_63  and  O_64
REMARK   24  A    between atoms: N_69  and  C_70
REMARK                            x       y       z     vdW  Elec       q    Type
REMARK                         _______ _______ _______ _____ _____    ______ ____
ROOT
ATOM      1  C   UNL     1      -3.770  -1.675 137.749  0.00  0.00    +0.000 C 
ATOM      2  C   UNL     1      -4.367   0.452 137.761  0.00  0.00    +0.000 C 
ATOM      3  O   UNL     1      -5.162   0.969 138.741  0.00  0.00    +0.000 OA
ATOM      4  N   UNL     1      -4.898   2.318 137.209  0.00  0.00    +0.000 N 
ATOM      5  C   UNL     1      -5.395   4.112 136.416  0.00  0.00    +0.000 C 
ATOM      6  C   UNL     1      -6.753   4.562 135.347  0.00  0.00    +0.000 C 
ATOM      7  O   UNL     1      -7.838   5.077 135.633  0.00  0.00    +0.000 OA
ATOM      8  N   UNL     1      -6.558   4.258 134.042  0.00  0.00    +0.000 N 
ATOM      9  C   UNL     1      -5.298   4.039 133.483  0.00  0.00    +0.000 C 
ATOM     10  C   UNL     1      -4.538   5.537 133.059  0.00  0.00    +0.000 C 
ATOM     11  O   UNL     1      -4.445   6.531 133.803  0.00  0.00    +0.000 OA
ATOM     12  N   UNL     1      -3.823   5.658 131.915  0.00  0.00    +0.000 N 
ATOM     13  C   UNL     1      -3.892   4.748 130.782  0.00  0.00    +0.000 C 
ATOM     14  C   UNL     1      -3.015   3.406 131.126  0.00  0.00    +0.000 C 
ATOM     15  S   UNL     1      -2.818   2.548 133.008  0.00  0.00    +0.000 S 
ATOM     16  S   UNL     1      -3.023   0.609 132.968  0.00  0.00    +0.000 S 
ATOM     17  C   UNL     1      -3.914   0.165 134.490  0.00  0.00    +0.000 C 
ATOM     18  C   UNL     1      -3.258  -1.108 134.803  0.00  0.00    +0.000 C 
ATOM     19  C   UNL     1      -3.410  -2.186 133.670  0.00  0.00    +0.000 C 
ATOM     20  O   UNL     1      -2.915  -2.050 132.553  0.00  0.00    +0.000 OA
ATOM     21  N   UNL     1      -4.058  -3.359 133.888  0.00  0.00    +0.000 N 
ATOM     22  C   UNL     1      -4.774  -3.755 135.051  0.00  0.00    +0.000 C 
ATOM     23  C   UNL     1      -3.774  -3.622 136.050  0.00  0.00    +0.000 C 
ATOM     24  O   UNL     1      -2.832  -2.904 135.938  0.00  0.00    +0.000 OA
ATOM     25  N   UNL     1      -4.253  -3.633 137.278  0.00  0.00    +0.000 N 
ATOM     26  C   UNL     1      -3.939  -5.555 137.241  0.00  0.00    +0.000 C 
ATOM     27  H   UNL     1      -4.757   3.150 137.963  0.00  0.00    +0.000 HD
ATOM     28  H   UNL     1      -7.326   3.997 133.443  0.00  0.00    +0.000 HD
ATOM     29  H   UNL     1      -3.330   6.544 131.869  0.00  0.00    +0.000 HD
ATOM     30  H   UNL     1      -4.098  -3.967 133.100  0.00  0.00    +0.000 HD
ENDROOT
BRANCH  13  31
ATOM     31  C   UNL     1      -5.548   4.694 130.304  0.00  0.00    +0.000 C 
ATOM     32  O   UNL     1      -6.445   5.391 130.769  0.00  0.00    +0.000 OA
ATOM     33  N   UNL     1      -5.981   4.246 129.155  0.00  0.00    +0.000 N 
ATOM     34  C   UNL     1      -5.614   3.005 128.645  0.00  0.00    +0.000 C 
ATOM     35  C   UNL     1      -5.733   3.389 127.205  0.00  0.00    +0.000 C 
ATOM     36  C   UNL     1      -7.015   4.213 127.114  0.00  0.00    +0.000 C 
ATOM     37  C   UNL     1      -7.128   4.871 128.442  0.00  0.00    +0.000 C 
BRANCH  37  38
ATOM     38  C   UNL     1      -8.544   4.355 128.855  0.00  0.00    +0.000 C 
ATOM     39  O   UNL     1      -8.766   3.138 128.835  0.00  0.00    +0.000 OA
ATOM     40  N   UNL     1      -9.400   5.292 129.510  0.00  0.00    +0.000 N 
ATOM     41  H   UNL     1      -9.253   6.298 129.443  0.00  0.00    +0.000 HD
BRANCH  40  42
ATOM     42  C   UNL     1     -10.529   4.868 130.413  0.00  0.00    +0.000 C 
BRANCH  42  43
ATOM     43  C   UNL     1     -11.704   5.888 130.304  0.00  0.00    +0.000 C 
ATOM     44  O   UNL     1     -12.254   6.310 131.322  0.00  0.00    +0.000 OA
ATOM     45  N   UNL     1     -12.102   6.295 129.043  0.00  0.00    +0.000 N 
ATOM     46  H   UNL     1     -11.650   5.936 128.222  0.00  0.00    +0.000 HD
BRANCH  45  47
ATOM     47  C   UNL     1     -13.188   7.259 128.843  0.00  0.00    +0.000 C 
BRANCH  47  48
ATOM     48  C   UNL     1     -12.723   8.698 128.538  0.00  0.00    +0.000 C 
ATOM     49  N   UNL     1     -11.395   8.891 128.235  0.00  0.00    +0.000 N 
ATOM     50  O   UNL     1     -13.502   9.649 128.559  0.00  0.00    +0.000 OA
ATOM     51  H   UNL     1     -10.690   8.179 128.194  0.00  0.00    +0.000 HD
ATOM     52  H   UNL     1     -11.061   9.827 128.031  0.00  0.00    +0.000 HD
ENDBRANCH  47  48
ENDBRANCH  45  47
ENDBRANCH  42  43
BRANCH  42  53
ATOM     53  C   UNL     1     -10.168   4.723 131.917  0.00  0.00    +0.000 C 
BRANCH  53  54
ATOM     54  C   UNL     1      -9.456   3.438 132.249  0.00  0.00    +0.000 C 
ATOM     55  C   UNL     1      -9.638   3.120 133.659  0.00  0.00    +0.000 C 
ATOM     56  C   UNL     1     -10.087   2.187 131.768  0.00  0.00    +0.000 C 
ENDBRANCH  53  54
ENDBRANCH  42  53
ENDBRANCH  40  42
ENDBRANCH  37  38
ENDBRANCH  13  31
BRANCH  18  57
ATOM     57  N   UNL     1      -1.829  -0.816 135.167  0.00  0.00    +0.000 NA
ATOM     58  H   UNL     1      -1.624   0.094 134.762  0.00  0.00    +0.000 HD
ATOM     59  H   UNL     1      -1.258  -1.403 134.581  0.00  0.00    +0.000 HD
ENDBRANCH  18  57
BRANCH   1  60
ATOM     60  C   UNL     1      -2.119  -2.929 138.053  0.00  0.00    +0.000 C 
ATOM     61  C   UNL     1      -0.678  -4.044 137.370  0.00  0.00    +0.000 C 
BRANCH  60  63
ATOM     62  C   UNL     1      -1.522  -2.496 140.174  0.00  0.00    +0.000 C 
ATOM     63  C   UNL     1      -1.812  -3.777 139.549  0.00  0.00    +0.000 C 
ENDBRANCH  60  63
ENDBRANCH   1  60
BRANCH   9  64
ATOM     64  C   UNL     1      -5.391   3.024 132.448  0.00  0.00    +0.000 C 
BRANCH  64  65
ATOM     65  C   UNL     1      -6.154   1.821 132.361  0.00  0.00    +0.000 C 
ATOM     66  N   UNL     1      -6.119   1.375 131.089  0.00  0.00    +0.000 N 
ATOM     67  O   UNL     1      -6.850   1.407 133.276  0.00  0.00    +0.000 OA
ATOM     68  H   UNL     1      -5.627   1.874 130.355  0.00  0.00    +0.000 HD
ATOM     69  H   UNL     1      -6.670   0.580 130.859  0.00  0.00    +0.000 HD
ENDBRANCH  64  65
ENDBRANCH   9  64
BRANCH  22  70
ATOM     70  C   UNL     1      -5.415  -5.092 134.997  0.00  0.00    +0.000 C 
BRANCH  70  71
ATOM     71  C   UNL     1      -6.802  -5.011 135.407  0.00  0.00    +0.000 A 
ATOM     72  C   UNL     1      -7.473  -6.149 135.818  0.00  0.00    +0.000 A 
ATOM     73  C   UNL     1      -8.729  -5.995 136.368  0.00  0.00    +0.000 A 
ATOM     74  C   UNL     1      -9.267  -4.718 136.489  0.00  0.00    +0.000 A 
ATOM     75  C   UNL     1      -8.589  -3.608 136.025  0.00  0.00    +0.000 A 
ATOM     76  C   UNL     1      -7.364  -3.755 135.451  0.00  0.00    +0.000 A 
BRANCH  74  77
ATOM     77  O   UNL     1     -10.480  -4.459 137.042  0.00  0.00    +0.000 OA
ATOM     78  H   UNL     1     -11.105  -4.123 136.385  0.00  0.00    +0.000 HD
ENDBRANCH  74  77
ENDBRANCH  70  71
ENDBRANCH  22  70
BRANCH   5  79
ATOM     79  C   UNL     1      -4.134   4.668 135.800  0.00  0.00    +0.000 C 
BRANCH  79  80
ATOM     80  C   UNL     1      -3.048   5.505 136.329  0.00  0.00    +0.000 C 
BRANCH  80  81
ATOM     81  C   UNL     1      -3.632   6.633 137.187  0.00  0.00    +0.000 C 
ATOM     82  N   UNL     1      -4.352   7.642 136.631  0.00  0.00    +0.000 N 
ATOM     83  O   UNL     1      -3.476   6.619 138.401  0.00  0.00    +0.000 OA
ATOM     84  H   UNL     1      -4.467   7.800 135.636  0.00  0.00    +0.000 HD
ATOM     85  H   UNL     1      -4.643   8.463 137.153  0.00  0.00    +0.000 HD
ENDBRANCH  80  81
ENDBRANCH  79  80
ENDBRANCH   5  79
TORSDOF 19
ENDMDL
MODEL 6
REMARK VINA RESULT:      -8.2      2.426      3.198
REMARK  Name = CHEMBL3814126
REMARK  24 active torsions:
REMARK  status: ('A' for Active; 'I' for Inactive)
REMARK    1  A    between atoms: C_1  and  C_2
REMARK    2  A    between atoms: C_2  and  C_3
REMARK    3  A    between atoms: C_3  and  C_4
REMARK    4  A    between atoms: C_3  and  C_5
REMARK    5  A    between atoms: C_9  and  C_10
REMARK    6  A    between atoms: C_10  and  C_11
REMARK    7  A    between atoms: C_11  and  C_12
REMARK    8  A    between atoms: C_18  and  C_19
REMARK    9  A    between atoms: C_19  and  C_20
REMARK   10  A    between atoms: C_26  and  C_27
REMARK   11  A    between atoms: C_33  and  C_34
REMARK   12  A    between atoms: N_36  and  C_37
REMARK   13  A    between atoms: C_37  and  C_38
REMARK   14  A    between atoms: C_37  and  C_42
REMARK   15  A    between atoms: C_38  and  C_39
REMARK   16  A    between atoms: C_39  and  C_40
REMARK   17  A    between atoms: C_39  and  C_41
REMARK   18  A    between atoms: N_44  and  C_45
REMARK   19  A    between atoms: C_45  and  C_46
REMARK   20  A    between atoms: C_53  and  N_54
REMARK   21  A    between atoms: C_58  and  C_59
REMARK   22  A    between atoms: C_59  and  C_60
REMARK   23  A    between atoms: C_63  and  O_64
REMARK   24  A    between atoms: N_69  and  C_70
REMARK                            x       y       z     vdW  Elec       q    Type
REMARK                         _______ _______ _______ _____ _____    ______ ____
ROOT
ATOM      1  C   UNL     1      -5.300   3.367 137.162  0.00  0.00    +0.000 C 
ATOM      2  C   UNL     1      -6.282   4.539 135.568  0.00  0.00    +0.000 C 
ATOM      3  O   UNL     1      -7.378   5.312 135.817  0.00  0.00    +0.000 OA
ATOM      4  N   UNL     1      -7.013   5.168 133.796  0.00  0.00    +0.000 N 
ATOM      5  C   UNL     1      -7.638   5.592 131.919  0.00  0.00    +0.000 C 
ATOM      6  C   UNL     1      -8.753   4.698 130.848  0.00  0.00    +0.000 C 
ATOM      7  O   UNL     1      -9.953   4.888 130.631  0.00  0.00    +0.000 OA
ATOM      8  N   UNL     1      -8.188   3.644 130.212  0.00  0.00    +0.000 N 
ATOM      9  C   UNL     1      -6.811   3.503 130.030  0.00  0.00    +0.000 C 
ATOM     10  C   UNL     1      -6.276   4.392 128.642  0.00  0.00    +0.000 C 
ATOM     11  O   UNL     1      -6.562   5.578 128.394  0.00  0.00    +0.000 OA
ATOM     12  N   UNL     1      -5.339   3.883 127.806  0.00  0.00    +0.000 N 
ATOM     13  C   UNL     1      -4.951   2.483 127.733  0.00  0.00    +0.000 C 
ATOM     14  C   UNL     1      -3.941   2.148 128.982  0.00  0.00    +0.000 C 
ATOM     15  S   UNL     1      -4.050   2.995 130.876  0.00  0.00    +0.000 S 
ATOM     16  S   UNL     1      -3.859   1.671 132.295  0.00  0.00    +0.000 S 
ATOM     17  C   UNL     1      -4.993   2.187 133.620  0.00  0.00    +0.000 C 
ATOM     18  C   UNL     1      -4.200   1.804 134.793  0.00  0.00    +0.000 C 
ATOM     19  C   UNL     1      -3.857   0.272 134.844  0.00  0.00    +0.000 C 
ATOM     20  O   UNL     1      -3.140  -0.276 134.011  0.00  0.00    +0.000 OA
ATOM     21  N   UNL     1      -4.299  -0.521 135.854  0.00  0.00    +0.000 N 
ATOM     22  C   UNL     1      -5.188  -0.174 136.908  0.00  0.00    +0.000 C 
ATOM     23  C   UNL     1      -4.509   0.928 137.491  0.00  0.00    +0.000 C 
ATOM     24  O   UNL     1      -3.727   1.599 136.897  0.00  0.00    +0.000 OA
ATOM     25  N   UNL     1      -5.264   1.640 138.305  0.00  0.00    +0.000 N 
ATOM     26  C   UNL     1      -4.584   0.491 139.723  0.00  0.00    +0.000 C 
ATOM     27  H   UNL     1      -7.225   6.274 133.677  0.00  0.00    +0.000 HD
ATOM     28  H   UNL     1      -8.720   2.815 129.996  0.00  0.00    +0.000 HD
ATOM     29  H   UNL     1      -5.032   4.568 127.123  0.00  0.00    +0.000 HD
ATOM     30  H   UNL     1      -4.026  -1.476 135.785  0.00  0.00    +0.000 HD
ENDROOT
BRANCH  13  31
ATOM     31  C   UNL     1      -6.396   1.594 127.425  0.00  0.00    +0.000 C 
ATOM     32  O   UNL     1      -7.326   1.455 128.213  0.00  0.00    +0.000 OA
ATOM     33  N   UNL     1      -6.869   1.324 126.238  0.00  0.00    +0.000 N 
ATOM     34  C   UNL     1      -6.096   0.751 125.232  0.00  0.00    +0.000 C 
ATOM     35  C   UNL     1      -6.836   1.375 124.094  0.00  0.00    +0.000 C 
ATOM     36  C   UNL     1      -8.313   1.261 124.464  0.00  0.00    +0.000 C 
ATOM     37  C   UNL     1      -8.329   1.314 125.949  0.00  0.00    +0.000 C 
BRANCH  37  38
ATOM     38  C   UNL     1      -9.068  -0.031 126.239  0.00  0.00    +0.000 C 
ATOM     39  O   UNL     1     -10.256  -0.143 125.912  0.00  0.00    +0.000 OA
ATOM     40  N   UNL     1      -8.250  -1.147 126.592  0.00  0.00    +0.000 N 
ATOM     41  H   UNL     1      -7.300  -1.032 126.943  0.00  0.00    +0.000 HD
BRANCH  40  42
ATOM     42  C   UNL     1      -8.692  -2.574 126.396  0.00  0.00    +0.000 C 
BRANCH  42  43
ATOM     43  C   UNL     1      -8.455  -3.386 127.707  0.00  0.00    +0.000 C 
ATOM     44  O   UNL     1      -9.001  -4.478 127.866  0.00  0.00    +0.000 OA
ATOM     45  N   UNL     1      -7.623  -2.844 128.670  0.00  0.00    +0.000 N 
ATOM     46  H   UNL     1      -7.192  -1.948 128.530  0.00  0.00    +0.000 HD
BRANCH  45  47
ATOM     47  C   UNL     1      -7.331  -3.538 129.927  0.00  0.00    +0.000 C 
BRANCH  47  48
ATOM     48  C   UNL     1      -5.829  -3.729 130.224  0.00  0.00    +0.000 C 
ATOM     49  N   UNL     1      -5.446  -4.880 130.874  0.00  0.00    +0.000 N 
ATOM     50  O   UNL     1      -4.993  -2.890 129.897  0.00  0.00    +0.000 OA
ATOM     51  H   UNL     1      -6.055  -5.616 131.177  0.00  0.00    +0.000 HD
ATOM     52  H   UNL     1      -4.465  -5.031 131.082  0.00  0.00    +0.000 HD
ENDBRANCH  47  48
ENDBRANCH  45  47
ENDBRANCH  42  43
BRANCH  42  53
ATOM     53  C   UNL     1      -7.999  -3.339 125.235  0.00  0.00    +0.000 C 
BRANCH  53  54
ATOM     54  C   UNL     1      -6.971  -2.521 124.498  0.00  0.00    +0.000 C 
ATOM     55  C   UNL     1      -5.846  -3.364 124.115  0.00  0.00    +0.000 C 
ATOM     56  C   UNL     1      -7.303  -2.138 123.106  0.00  0.00    +0.000 C 
ENDBRANCH  53  54
ENDBRANCH  42  53
ENDBRANCH  40  42
ENDBRANCH  37  38
ENDBRANCH  13  31
BRANCH  18  57
ATOM     57  N   UNL     1      -2.989   2.694 134.843  0.00  0.00    +0.000 NA
ATOM     58  H   UNL     1      -2.599   2.571 135.775  0.00  0.00    +0.000 HD
ATOM     59  H   UNL     1      -3.331   3.638 134.918  0.00  0.00    +0.000 HD
ENDBRANCH  18  57
BRANCH   1  60
ATOM     60  C   UNL     1      -3.563   3.300 138.333  0.00  0.00    +0.000 C 
ATOM     61  C   UNL     1      -1.868   2.481 138.821  0.00  0.00    +0.000 C 
BRANCH  60  63
ATOM     62  C   UNL     1      -3.593   5.363 139.220  0.00  0.00    +0.000 C 
ATOM     63  C   UNL     1      -3.416   4.083 139.888  0.00  0.00    +0.000 C 
ENDBRANCH  60  63
ENDBRANCH   1  60
BRANCH   9  64
ATOM     64  C   UNL     1      -6.449   2.098 130.100  0.00  0.00    +0.000 C 
BRANCH  64  65
ATOM     65  C   UNL     1      -6.964   1.021 130.881  0.00  0.00    +0.000 C 
ATOM     66  N   UNL     1      -6.374  -0.125 130.485  0.00  0.00    +0.000 N 
ATOM     67  O   UNL     1      -7.909   1.146 131.646  0.00  0.00    +0.000 OA
ATOM     68  H   UNL     1      -5.696  -0.150 129.730  0.00  0.00    +0.000 HD
ATOM     69  H   UNL     1      -6.689  -0.976 130.892  0.00  0.00    +0.000 HD
ENDBRANCH  64  65
ENDBRANCH   9  64
BRANCH  22  70
ATOM     70  C   UNL     1      -5.525  -1.261 137.861  0.00  0.00    +0.000 C 
BRANCH  70  71
ATOM     71  C   UNL     1      -6.835  -1.807 137.572  0.00  0.00    +0.000 A 
ATOM     72  C   UNL     1      -7.036  -2.569 136.435  0.00  0.00    +0.000 A 
ATOM     73  C   UNL     1      -8.247  -3.215 136.296  0.00  0.00    +0.000 A 
ATOM     74  C   UNL     1      -9.209  -3.079 137.291  0.00  0.00    +0.000 A 
ATOM     75  C   UNL     1      -8.993  -2.273 138.392  0.00  0.00    +0.000 A 
ATOM     76  C   UNL     1      -7.814  -1.606 138.519  0.00  0.00    +0.000 A 
BRANCH  74  77
ATOM     77  O   UNL     1     -10.418  -3.697 137.262  0.00  0.00    +0.000 OA
ATOM     78  H   UNL     1     -10.442  -4.459 137.858  0.00  0.00    +0.000 HD
ENDBRANCH  74  77
ENDBRANCH  70  71
ENDBRANCH  22  70
BRANCH   5  79
ATOM     79  C   UNL     1      -6.396   5.903 131.119  0.00  0.00    +0.000 C 
BRANCH  79  80
ATOM     80  C   UNL     1      -5.474   7.047 131.110  0.00  0.00    +0.000 C 
BRANCH  80  81
ATOM     81  C   UNL     1      -4.198   6.694 131.882  0.00  0.00    +0.000 C 
ATOM     82  N   UNL     1      -2.972   7.048 131.418  0.00  0.00    +0.000 N 
ATOM     83  O   UNL     1      -4.276   6.107 132.954  0.00  0.00    +0.000 OA
ATOM     84  H   UNL     1      -2.785   7.454 130.508  0.00  0.00    +0.000 HD
ATOM     85  H   UNL     1      -2.108   6.723 131.841  0.00  0.00    +0.000 HD
ENDBRANCH  80  81
ENDBRANCH  79  80
ENDBRANCH   5  79
TORSDOF 19
ENDMDL
MODEL 7
REMARK VINA RESULT:      -8.1      4.781     13.425
REMARK  Name = CHEMBL3814126
REMARK  24 active torsions:
REMARK  status: ('A' for Active; 'I' for Inactive)
REMARK    1  A    between atoms: C_1  and  C_2
REMARK    2  A    between atoms: C_2  and  C_3
REMARK    3  A    between atoms: C_3  and  C_4
REMARK    4  A    between atoms: C_3  and  C_5
REMARK    5  A    between atoms: C_9  and  C_10
REMARK    6  A    between atoms: C_10  and  C_11
REMARK    7  A    between atoms: C_11  and  C_12
REMARK    8  A    between atoms: C_18  and  C_19
REMARK    9  A    between atoms: C_19  and  C_20
REMARK   10  A    between atoms: C_26  and  C_27
REMARK   11  A    between atoms: C_33  and  C_34
REMARK   12  A    between atoms: N_36  and  C_37
REMARK   13  A    between atoms: C_37  and  C_38
REMARK   14  A    between atoms: C_37  and  C_42
REMARK   15  A    between atoms: C_38  and  C_39
REMARK   16  A    between atoms: C_39  and  C_40
REMARK   17  A    between atoms: C_39  and  C_41
REMARK   18  A    between atoms: N_44  and  C_45
REMARK   19  A    between atoms: C_45  and  C_46
REMARK   20  A    between atoms: C_53  and  N_54
REMARK   21  A    between atoms: C_58  and  C_59
REMARK   22  A    between atoms: C_59  and  C_60
REMARK   23  A    between atoms: C_63  and  O_64
REMARK   24  A    between atoms: N_69  and  C_70
REMARK                            x       y       z     vdW  Elec       q    Type
REMARK                         _______ _______ _______ _____ _____    ______ ____
ROOT
ATOM      1  C   UNL     1      -5.214   3.058 132.525  0.00  0.00    +0.000 C 
ATOM      2  C   UNL     1      -5.111   2.767 134.713  0.00  0.00    +0.000 C 
ATOM      3  O   UNL     1      -5.923   1.882 135.358  0.00  0.00    +0.000 OA
ATOM      4  N   UNL     1      -4.891   3.056 136.696  0.00  0.00    +0.000 N 
ATOM      5  C   UNL     1      -4.601   3.582 138.628  0.00  0.00    +0.000 C 
ATOM      6  C   UNL     1      -5.450   4.792 139.631  0.00  0.00    +0.000 C 
ATOM      7  O   UNL     1      -6.359   4.632 140.451  0.00  0.00    +0.000 OA
ATOM      8  N   UNL     1      -5.044   6.067 139.427  0.00  0.00    +0.000 N 
ATOM      9  C   UNL     1      -3.816   6.401 138.853  0.00  0.00    +0.000 C 
ATOM     10  C   UNL     1      -2.553   6.383 140.038  0.00  0.00    +0.000 C 
ATOM     11  O   UNL     1      -2.343   5.464 140.851  0.00  0.00    +0.000 OA
ATOM     12  N   UNL     1      -1.578   7.324 140.034  0.00  0.00    +0.000 N 
ATOM     13  C   UNL     1      -1.643   8.598 139.335  0.00  0.00    +0.000 C 
ATOM     14  C   UNL     1      -1.334   8.345 137.744  0.00  0.00    +0.000 C 
ATOM     15  S   UNL     1      -1.878   6.654 136.667  0.00  0.00    +0.000 S 
ATOM     16  S   UNL     1      -2.653   7.093 134.933  0.00  0.00    +0.000 S 
ATOM     17  C   UNL     1      -3.981   5.883 134.654  0.00  0.00    +0.000 C 
ATOM     18  C   UNL     1      -3.846   5.691 133.206  0.00  0.00    +0.000 C 
ATOM     19  C   UNL     1      -4.040   7.012 132.379  0.00  0.00    +0.000 C 
ATOM     20  O   UNL     1      -3.270   7.966 132.461  0.00  0.00    +0.000 OA
ATOM     21  N   UNL     1      -5.050   7.146 131.481  0.00  0.00    +0.000 N 
ATOM     22  C   UNL     1      -6.115   6.239 131.227  0.00  0.00    +0.000 C 
ATOM     23  C   UNL     1      -5.400   5.058 130.898  0.00  0.00    +0.000 C 
ATOM     24  O   UNL     1      -4.286   4.849 131.259  0.00  0.00    +0.000 OA
ATOM     25  N   UNL     1      -6.145   3.970 130.915  0.00  0.00    +0.000 N 
ATOM     26  C   UNL     1      -6.438   4.302 129.019  0.00  0.00    +0.000 C 
ATOM     27  H   UNL     1      -4.689   2.146 137.341  0.00  0.00    +0.000 HD
ATOM     28  H   UNL     1      -5.684   6.842 139.512  0.00  0.00    +0.000 HD
ATOM     29  H   UNL     1      -0.841   7.107 140.698  0.00  0.00    +0.000 HD
ATOM     30  H   UNL     1      -5.081   8.026 131.015  0.00  0.00    +0.000 HD
ENDROOT
BRANCH  13  31
ATOM     31  C   UNL     1      -3.065   9.390 139.904  0.00  0.00    +0.000 C 
ATOM     32  O   UNL     1      -3.879   8.913 140.687  0.00  0.00    +0.000 OA
ATOM     33  N   UNL     1      -3.243  10.684 139.923  0.00  0.00    +0.000 N 
ATOM     34  C   UNL     1      -3.031  11.490 138.809  0.00  0.00    +0.000 C 
ATOM     35  C   UNL     1      -2.650  12.715 139.575  0.00  0.00    +0.000 C 
ATOM     36  C   UNL     1      -3.638  12.786 140.737  0.00  0.00    +0.000 C 
ATOM     37  C   UNL     1      -3.974  11.368 141.025  0.00  0.00    +0.000 C 
BRANCH  37  38
ATOM     38  C   UNL     1      -5.526  11.442 140.865  0.00  0.00    +0.000 C 
ATOM     39  O   UNL     1      -5.998  11.971 139.850  0.00  0.00    +0.000 OA
ATOM     40  N   UNL     1      -6.301  10.636 141.753  0.00  0.00    +0.000 N 
ATOM     41  H   UNL     1      -5.922  10.281 142.630  0.00  0.00    +0.000 HD
BRANCH  40  42
ATOM     42  C   UNL     1      -7.700  10.181 141.429  0.00  0.00    +0.000 C 
BRANCH  42  43
ATOM     43  C   UNL     1      -7.720   9.488 140.032  0.00  0.00    +0.000 C 
ATOM     44  O   UNL     1      -7.178   8.393 139.876  0.00  0.00    +0.000 OA
ATOM     45  N   UNL     1      -8.356  10.137 138.989  0.00  0.00    +0.000 N 
ATOM     46  H   UNL     1      -8.786  11.033 139.129  0.00  0.00    +0.000 HD
BRANCH  45  47
ATOM     47  C   UNL     1      -8.436   9.558 137.645  0.00  0.00    +0.000 C 
BRANCH  47  48
ATOM     48  C   UNL     1      -9.465   8.418 137.495  0.00  0.00    +0.000 C 
ATOM     49  N   UNL     1      -8.986   7.130 137.417  0.00  0.00    +0.000 N 
ATOM     50  O   UNL     1     -10.673   8.637 137.448  0.00  0.00    +0.000 OA
ATOM     51  H   UNL     1      -8.022   6.856 137.447  0.00  0.00    +0.000 HD
ATOM     52  H   UNL     1      -9.640   6.361 137.318  0.00  0.00    +0.000 HD
ENDBRANCH  47  48
ENDBRANCH  45  47
ENDBRANCH  42  43
BRANCH  42  53
ATOM     53  C   UNL     1      -8.782  11.295 141.418  0.00  0.00    +0.000 C 
BRANCH  53  54
ATOM     54  C   UNL     1      -8.879  12.060 142.712  0.00  0.00    +0.000 C 
ATOM     55  C   UNL     1      -8.380  13.416 142.526  0.00  0.00    +0.000 C 
ATOM     56  C   UNL     1     -10.234  12.494 143.125  0.00  0.00    +0.000 C 
ENDBRANCH  53  54
ENDBRANCH  42  53
ENDBRANCH  40  42
ENDBRANCH  37  38
ENDBRANCH  13  31
BRANCH  18  57
ATOM     57  N   UNL     1      -2.533   5.007 132.950  0.00  0.00    +0.000 NA
ATOM     58  H   UNL     1      -2.509   4.827 131.949  0.00  0.00    +0.000 HD
ATOM     59  H   UNL     1      -2.627   4.067 133.296  0.00  0.00    +0.000 HD
ENDBRANCH  18  57
BRANCH   1  60
ATOM     60  C   UNL     1      -4.156   2.678 130.756  0.00  0.00    +0.000 C 
ATOM     61  C   UNL     1      -3.137   3.289 129.215  0.00  0.00    +0.000 C 
BRANCH  60  63
ATOM     62  C   UNL     1      -4.215   0.453 131.054  0.00  0.00    +0.000 C 
ATOM     63  C   UNL     1      -4.333   1.213 129.820  0.00  0.00    +0.000 C 
ENDBRANCH  60  63
ENDBRANCH   1  60
BRANCH   9  64
ATOM     64  C   UNL     1      -3.960   7.605 138.054  0.00  0.00    +0.000 C 
BRANCH  64  65
ATOM     65  C   UNL     1      -5.032   8.087 137.243  0.00  0.00    +0.000 C 
ATOM     66  N   UNL     1      -4.870   9.411 137.051  0.00  0.00    +0.000 N 
ATOM     67  O   UNL     1      -6.002   7.404 136.950  0.00  0.00    +0.000 OA
ATOM     68  H   UNL     1      -4.099   9.927 137.462  0.00  0.00    +0.000 HD
ATOM     69  H   UNL     1      -5.585   9.901 136.563  0.00  0.00    +0.000 HD
ENDBRANCH  64  65
ENDBRANCH   9  64
BRANCH  22  70
ATOM     70  C   UNL     1      -7.103   6.664 130.204  0.00  0.00    +0.000 C 
BRANCH  70  71
ATOM     71  C   UNL     1      -8.439   6.696 130.764  0.00  0.00    +0.000 A 
ATOM     72  C   UNL     1      -9.499   7.162 130.008  0.00  0.00    +0.000 A 
ATOM     73  C   UNL     1     -10.772   7.004 130.515  0.00  0.00    +0.000 A 
ATOM     74  C   UNL     1     -10.941   6.390 131.752  0.00  0.00    +0.000 A 
ATOM     75  C   UNL     1      -9.857   5.979 132.502  0.00  0.00    +0.000 A 
ATOM     76  C   UNL     1      -8.596   6.161 132.023  0.00  0.00    +0.000 A 
BRANCH  74  77
ATOM     77  O   UNL     1     -12.153   6.162 132.323  0.00  0.00    +0.000 OA
ATOM     78  H   UNL     1     -12.658   5.500 131.830  0.00  0.00    +0.000 HD
ENDBRANCH  74  77
ENDBRANCH  70  71
ENDBRANCH  22  70
BRANCH   5  79
ATOM     79  C   UNL     1      -3.120   3.827 138.784  0.00  0.00    +0.000 C 
BRANCH  79  80
ATOM     80  C   UNL     1      -1.972   2.926 138.962  0.00  0.00    +0.000 C 
BRANCH  80  81
ATOM     81  C   UNL     1      -2.454   1.473 139.020  0.00  0.00    +0.000 C 
ATOM     82  N   UNL     1      -2.543   0.714 137.898  0.00  0.00    +0.000 N 
ATOM     83  O   UNL     1      -2.738   0.967 140.098  0.00  0.00    +0.000 OA
ATOM     84  H   UNL     1      -2.419   1.053 136.950  0.00  0.00    +0.000 HD
ATOM     85  H   UNL     1      -2.974  -0.206 137.888  0.00  0.00    +0.000 HD
ENDBRANCH  80  81
ENDBRANCH  79  80
ENDBRANCH   5  79
TORSDOF 19
ENDMDL
MODEL 8
REMARK VINA RESULT:      -8.1      3.930     12.351
REMARK  Name = CHEMBL3814126
REMARK  24 active torsions:
REMARK  status: ('A' for Active; 'I' for Inactive)
REMARK    1  A    between atoms: C_1  and  C_2
REMARK    2  A    between atoms: C_2  and  C_3
REMARK    3  A    between atoms: C_3  and  C_4
REMARK    4  A    between atoms: C_3  and  C_5
REMARK    5  A    between atoms: C_9  and  C_10
REMARK    6  A    between atoms: C_10  and  C_11
REMARK    7  A    between atoms: C_11  and  C_12
REMARK    8  A    between atoms: C_18  and  C_19
REMARK    9  A    between atoms: C_19  and  C_20
REMARK   10  A    between atoms: C_26  and  C_27
REMARK   11  A    between atoms: C_33  and  C_34
REMARK   12  A    between atoms: N_36  and  C_37
REMARK   13  A    between atoms: C_37  and  C_38
REMARK   14  A    between atoms: C_37  and  C_42
REMARK   15  A    between atoms: C_38  and  C_39
REMARK   16  A    between atoms: C_39  and  C_40
REMARK   17  A    between atoms: C_39  and  C_41
REMARK   18  A    between atoms: N_44  and  C_45
REMARK   19  A    between atoms: C_45  and  C_46
REMARK   20  A    between atoms: C_53  and  N_54
REMARK   21  A    between atoms: C_58  and  C_59
REMARK   22  A    between atoms: C_59  and  C_60
REMARK   23  A    between atoms: C_63  and  O_64
REMARK   24  A    between atoms: N_69  and  C_70
REMARK                            x       y       z     vdW  Elec       q    Type
REMARK                         _______ _______ _______ _____ _____    ______ ____
ROOT
ATOM      1  C   UNL     1      -7.348  -1.997 131.404  0.00  0.00    +0.000 C 
ATOM      2  C   UNL     1      -7.158  -3.313 133.170  0.00  0.00    +0.000 C 
ATOM      3  O   UNL     1      -8.224  -3.997 133.673  0.00  0.00    +0.000 OA
ATOM      4  N   UNL     1      -6.600  -4.122 134.930  0.00  0.00    +0.000 N 
ATOM      5  C   UNL     1      -5.870  -4.747 136.711  0.00  0.00    +0.000 C 
ATOM      6  C   UNL     1      -5.882  -3.943 138.306  0.00  0.00    +0.000 C 
ATOM      7  O   UNL     1      -6.650  -4.103 139.259  0.00  0.00    +0.000 OA
ATOM      8  N   UNL     1      -4.920  -3.003 138.462  0.00  0.00    +0.000 N 
ATOM      9  C   UNL     1      -3.763  -2.949 137.683  0.00  0.00    +0.000 C 
ATOM     10  C   UNL     1      -2.553  -4.027 138.295  0.00  0.00    +0.000 C 
ATOM     11  O   UNL     1      -2.740  -5.220 138.597  0.00  0.00    +0.000 OA
ATOM     12  N   UNL     1      -1.246  -3.670 138.317  0.00  0.00    +0.000 N 
ATOM     13  C   UNL     1      -0.746  -2.309 138.196  0.00  0.00    +0.000 C 
ATOM     14  C   UNL     1      -0.786  -1.868 136.617  0.00  0.00    +0.000 C 
ATOM     15  S   UNL     1      -2.219  -2.467 135.237  0.00  0.00    +0.000 S 
ATOM     16  S   UNL     1      -2.862  -0.988 134.141  0.00  0.00    +0.000 S 
ATOM     17  C   UNL     1      -4.638  -1.282 133.890  0.00  0.00    +0.000 C 
ATOM     18  C   UNL     1      -4.782  -0.794 132.515  0.00  0.00    +0.000 C 
ATOM     19  C   UNL     1      -4.382   0.716 132.342  0.00  0.00    +0.000 C 
ATOM     20  O   UNL     1      -3.235   1.122 132.510  0.00  0.00    +0.000 OA
ATOM     21  N   UNL     1      -5.285   1.647 131.940  0.00  0.00    +0.000 N 
ATOM     22  C   UNL     1      -6.681   1.475 131.735  0.00  0.00    +0.000 C 
ATOM     23  C   UNL     1      -6.693   0.424 130.781  0.00  0.00    +0.000 C 
ATOM     24  O   UNL     1      -5.800  -0.351 130.654  0.00  0.00    +0.000 OA
ATOM     25  N   UNL     1      -7.874  -0.146 130.641  0.00  0.00    +0.000 N 
ATOM     26  C   UNL     1      -8.174   1.138 129.207  0.00  0.00    +0.000 C 
ATOM     27  H   UNL     1      -6.808  -5.223 135.093  0.00  0.00    +0.000 HD
ATOM     28  H   UNL     1      -5.073  -2.183 139.030  0.00  0.00    +0.000 HD
ATOM     29  H   UNL     1      -0.646  -4.447 138.574  0.00  0.00    +0.000 HD
ATOM     30  H   UNL     1      -4.925   2.573 131.866  0.00  0.00    +0.000 HD
ENDROOT
BRANCH  13  31
ATOM     31  C   UNL     1      -1.508  -1.399 139.448  0.00  0.00    +0.000 C 
ATOM     32  O   UNL     1      -2.292  -1.850 140.276  0.00  0.00    +0.000 OA
ATOM     33  N   UNL     1      -1.058  -0.273 139.933  0.00  0.00    +0.000 N 
ATOM     34  C   UNL     1      -0.704   0.805 139.128  0.00  0.00    +0.000 C 
ATOM     35  C   UNL     1       0.334   1.353 140.052  0.00  0.00    +0.000 C 
ATOM     36  C   UNL     1      -0.278   1.254 141.448  0.00  0.00    +0.000 C 
ATOM     37  C   UNL     1      -1.174   0.071 141.376  0.00  0.00    +0.000 C 
BRANCH  37  38
ATOM     38  C   UNL     1      -2.515   0.748 141.806  0.00  0.00    +0.000 C 
ATOM     39  O   UNL     1      -2.563   1.344 142.890  0.00  0.00    +0.000 OA
ATOM     40  N   UNL     1      -3.512   0.892 140.794  0.00  0.00    +0.000 N 
ATOM     41  H   UNL     1      -3.505   0.330 139.944  0.00  0.00    +0.000 HD
BRANCH  40  42
ATOM     42  C   UNL     1      -4.596   1.936 140.863  0.00  0.00    +0.000 C 
BRANCH  42  43
ATOM     43  C   UNL     1      -5.972   1.253 141.130  0.00  0.00    +0.000 C 
ATOM     44  O   UNL     1      -6.936   1.924 141.501  0.00  0.00    +0.000 OA
ATOM     45  N   UNL     1      -6.071  -0.114 140.941  0.00  0.00    +0.000 N 
ATOM     46  H   UNL     1      -5.275  -0.650 140.646  0.00  0.00    +0.000 HD
BRANCH  45  47
ATOM     47  C   UNL     1      -7.326  -0.841 141.155  0.00  0.00    +0.000 C 
BRANCH  47  48
ATOM     48  C   UNL     1      -8.340  -0.730 139.998  0.00  0.00    +0.000 C 
ATOM     49  N   UNL     1      -8.038  -1.371 138.818  0.00  0.00    +0.000 N 
ATOM     50  O   UNL     1      -9.386  -0.095 140.112  0.00  0.00    +0.000 OA
ATOM     51  H   UNL     1      -7.212  -1.910 138.634  0.00  0.00    +0.000 HD
ATOM     52  H   UNL     1      -8.686  -1.314 138.040  0.00  0.00    +0.000 HD
ENDBRANCH  47  48
ENDBRANCH  45  47
ENDBRANCH  42  43
BRANCH  42  53
ATOM     53  C   UNL     1      -4.750   2.829 139.601  0.00  0.00    +0.000 C 
BRANCH  53  54
ATOM     54  C   UNL     1      -4.526   4.295 139.863  0.00  0.00    +0.000 C 
ATOM     55  C   UNL     1      -3.221   4.496 140.479  0.00  0.00    +0.000 C 
ATOM     56  C   UNL     1      -4.226   5.141 138.684  0.00  0.00    +0.000 C 
ENDBRANCH  53  54
ENDBRANCH  42  53
ENDBRANCH  40  42
ENDBRANCH  37  38
ENDBRANCH  13  31
BRANCH  18  57
ATOM     57  N   UNL     1      -4.023  -1.725 131.611  0.00  0.00    +0.000 NA
ATOM     58  H   UNL     1      -3.138  -1.260 131.420  0.00  0.00    +0.000 HD
ATOM     59  H   UNL     1      -4.456  -1.659 130.704  0.00  0.00    +0.000 HD
ENDBRANCH  18  57
BRANCH   1  60
ATOM     60  C   UNL     1      -6.829  -1.866 129.378  0.00  0.00    +0.000 C 
ATOM     61  C   UNL     1      -5.703  -1.176 127.949  0.00  0.00    +0.000 C 
BRANCH  60  63
ATOM     62  C   UNL     1      -8.189  -3.527 128.718  0.00  0.00    +0.000 C 
ATOM     63  C   UNL     1      -7.925  -2.250 128.073  0.00  0.00    +0.000 C 
ENDBRANCH  60  63
ENDBRANCH   1  60
BRANCH   9  64
ATOM     64  C   UNL     1      -3.377  -1.565 137.475  0.00  0.00    +0.000 C 
BRANCH  64  65
ATOM     65  C   UNL     1      -4.122  -0.349 137.535  0.00  0.00    +0.000 C 
ATOM     66  N   UNL     1      -3.363   0.651 137.043  0.00  0.00    +0.000 N 
ATOM     67  O   UNL     1      -5.196  -0.255 138.110  0.00  0.00    +0.000 OA
ATOM     68  H   UNL     1      -2.414   0.500 136.718  0.00  0.00    +0.000 HD
ATOM     69  H   UNL     1      -3.726   1.576 137.089  0.00  0.00    +0.000 HD
ENDBRANCH  64  65
ENDBRANCH   9  64
BRANCH  22  70
ATOM     70  C   UNL     1      -7.434   2.687 131.323  0.00  0.00    +0.000 C 
BRANCH  70  71
ATOM     71  C   UNL     1      -7.532   3.626 132.422  0.00  0.00    +0.000 A 
ATOM     72  C   UNL     1      -6.947   4.876 132.322  0.00  0.00    +0.000 A 
ATOM     73  C   UNL     1      -7.219   5.796 133.313  0.00  0.00    +0.000 A 
ATOM     74  C   UNL     1      -8.061   5.440 134.361  0.00  0.00    +0.000 A 
ATOM     75  C   UNL     1      -8.591   4.168 134.454  0.00  0.00    +0.000 A 
ATOM     76  C   UNL     1      -8.300   3.243 133.498  0.00  0.00    +0.000 A 
BRANCH  74  77
ATOM     77  O   UNL     1      -8.414   6.283 135.366  0.00  0.00    +0.000 OA
ATOM     78  H   UNL     1      -8.950   5.833 136.034  0.00  0.00    +0.000 HD
ENDBRANCH  74  77
ENDBRANCH  70  71
ENDBRANCH  22  70
BRANCH   5  79
ATOM     79  C   UNL     1      -4.458  -5.212 136.452  0.00  0.00    +0.000 C 
BRANCH  79  80
ATOM     80  C   UNL     1      -3.902  -6.357 135.717  0.00  0.00    +0.000 C 
BRANCH  80  81
ATOM     81  C   UNL     1      -3.484  -5.920 134.309  0.00  0.00    +0.000 C 
ATOM     82  N   UNL     1      -2.187  -5.970 133.911  0.00  0.00    +0.000 N 
ATOM     83  O   UNL     1      -4.332  -5.543 133.510  0.00  0.00    +0.000 OA
ATOM     84  H   UNL     1      -1.397  -6.180 134.512  0.00  0.00    +0.000 HD
ATOM     85  H   UNL     1      -1.864  -5.574 133.033  0.00  0.00    +0.000 HD
ENDBRANCH  80  81
ENDBRANCH  79  80
ENDBRANCH   5  79
TORSDOF 19
ENDMDL
MODEL 9
REMARK VINA RESULT:      -7.8      3.730     12.377
REMARK  Name = CHEMBL3814126
REMARK  24 active torsions:
REMARK  status: ('A' for Active; 'I' for Inactive)
REMARK    1  A    between atoms: C_1  and  C_2
REMARK    2  A    between atoms: C_2  and  C_3
REMARK    3  A    between atoms: C_3  and  C_4
REMARK    4  A    between atoms: C_3  and  C_5
REMARK    5  A    between atoms: C_9  and  C_10
REMARK    6  A    between atoms: C_10  and  C_11
REMARK    7  A    between atoms: C_11  and  C_12
REMARK    8  A    between atoms: C_18  and  C_19
REMARK    9  A    between atoms: C_19  and  C_20
REMARK   10  A    between atoms: C_26  and  C_27
REMARK   11  A    between atoms: C_33  and  C_34
REMARK   12  A    between atoms: N_36  and  C_37
REMARK   13  A    between atoms: C_37  and  C_38
REMARK   14  A    between atoms: C_37  and  C_42
REMARK   15  A    between atoms: C_38  and  C_39
REMARK   16  A    between atoms: C_39  and  C_40
REMARK   17  A    between atoms: C_39  and  C_41
REMARK   18  A    between atoms: N_44  and  C_45
REMARK   19  A    between atoms: C_45  and  C_46
REMARK   20  A    between atoms: C_53  and  N_54
REMARK   21  A    between atoms: C_58  and  C_59
REMARK   22  A    between atoms: C_59  and  C_60
REMARK   23  A    between atoms: C_63  and  O_64
REMARK   24  A    between atoms: N_69  and  C_70
REMARK                            x       y       z     vdW  Elec       q    Type
REMARK                         _______ _______ _______ _____ _____    ______ ____
ROOT
ATOM      1  C   UNL     1      -7.387  -1.936 131.232  0.00  0.00    +0.000 C 
ATOM      2  C   UNL     1      -7.246  -3.182 133.052  0.00  0.00    +0.000 C 
ATOM      3  O   UNL     1      -8.321  -3.861 133.542  0.00  0.00    +0.000 OA
ATOM      4  N   UNL     1      -6.743  -3.916 134.861  0.00  0.00    +0.000 N 
ATOM      5  C   UNL     1      -6.072  -4.464 136.690  0.00  0.00    +0.000 C 
ATOM      6  C   UNL     1      -6.153  -3.601 138.252  0.00  0.00    +0.000 C 
ATOM      7  O   UNL     1      -6.953  -3.736 139.182  0.00  0.00    +0.000 OA
ATOM      8  N   UNL     1      -5.209  -2.642 138.407  0.00  0.00    +0.000 N 
ATOM      9  C   UNL     1      -4.025  -2.602 137.669  0.00  0.00    +0.000 C 
ATOM     10  C   UNL     1      -2.825  -3.639 138.365  0.00  0.00    +0.000 C 
ATOM     11  O   UNL     1      -3.008  -4.823 138.706  0.00  0.00    +0.000 OA
ATOM     12  N   UNL     1      -1.524  -3.263 138.421  0.00  0.00    +0.000 N 
ATOM     13  C   UNL     1      -1.037  -1.901 138.267  0.00  0.00    +0.000 C 
ATOM     14  C   UNL     1      -1.024  -1.521 136.671  0.00  0.00    +0.000 C 
ATOM     15  S   UNL     1      -2.397  -2.191 135.264  0.00  0.00    +0.000 S 
ATOM     16  S   UNL     1      -3.018  -0.763 134.090  0.00  0.00    +0.000 S 
ATOM     17  C   UNL     1      -4.780  -1.091 133.786  0.00  0.00    +0.000 C 
ATOM     18  C   UNL     1      -4.879  -0.656 132.389  0.00  0.00    +0.000 C 
ATOM     19  C   UNL     1      -4.492   0.851 132.173  0.00  0.00    +0.000 C 
ATOM     20  O   UNL     1      -3.357   1.279 132.368  0.00  0.00    +0.000 OA
ATOM     21  N   UNL     1      -5.391   1.754 131.703  0.00  0.00    +0.000 N 
ATOM     22  C   UNL     1      -6.777   1.555 131.455  0.00  0.00    +0.000 C 
ATOM     23  C   UNL     1      -6.740   0.469 130.542  0.00  0.00    +0.000 C 
ATOM     24  O   UNL     1      -5.833  -0.298 130.477  0.00  0.00    +0.000 OA
ATOM     25  N   UNL     1      -7.908  -0.122 130.381  0.00  0.00    +0.000 N 
ATOM     26  C   UNL     1      -8.171   1.102 128.889  0.00  0.00    +0.000 C 
ATOM     27  H   UNL     1      -6.943  -5.014 135.058  0.00  0.00    +0.000 HD
ATOM     28  H   UNL     1      -5.393  -1.804 138.937  0.00  0.00    +0.000 HD
ATOM     29  H   UNL     1      -0.924  -4.022 138.729  0.00  0.00    +0.000 HD
ATOM     30  H   UNL     1      -5.040   2.681 131.608  0.00  0.00    +0.000 HD
ENDROOT
BRANCH  13  31
ATOM     31  C   UNL     1      -1.855  -0.956 139.454  0.00  0.00    +0.000 C 
ATOM     32  O   UNL     1      -2.663  -1.387 140.272  0.00  0.00    +0.000 OA
ATOM     33  N   UNL     1      -1.440   0.195 139.911  0.00  0.00    +0.000 N 
ATOM     34  C   UNL     1      -1.071   1.247 139.078  0.00  0.00    +0.000 C 
ATOM     35  C   UNL     1      -0.075   1.845 140.016  0.00  0.00    +0.000 C 
ATOM     36  C   UNL     1      -0.735   1.791 141.392  0.00  0.00    +0.000 C 
ATOM     37  C   UNL     1      -1.611   0.592 141.335  0.00  0.00    +0.000 C 
BRANCH  37  38
ATOM     38  C   UNL     1      -2.976   1.265 141.690  0.00  0.00    +0.000 C 
ATOM     39  O   UNL     1      -2.988   2.203 142.497  0.00  0.00    +0.000 OA
ATOM     40  N   UNL     1      -4.083   0.954 140.843  0.00  0.00    +0.000 N 
ATOM     41  H   UNL     1      -4.092   0.127 140.248  0.00  0.00    +0.000 HD
BRANCH  40  42
ATOM     42  C   UNL     1      -5.278   1.859 140.701  0.00  0.00    +0.000 C 
BRANCH  42  43
ATOM     43  C   UNL     1      -4.890   3.122 139.872  0.00  0.00    +0.000 C 
ATOM     44  O   UNL     1      -3.960   3.072 139.066  0.00  0.00    +0.000 OA
ATOM     45  N   UNL     1      -5.614   4.284 140.071  0.00  0.00    +0.000 N 
ATOM     46  H   UNL     1      -6.363   4.313 140.738  0.00  0.00    +0.000 HD
BRANCH  45  47
ATOM     47  C   UNL     1      -5.329   5.516 139.330  0.00  0.00    +0.000 C 
BRANCH  47  48
ATOM     48  C   UNL     1      -6.178   5.712 138.057  0.00  0.00    +0.000 C 
ATOM     49  N   UNL     1      -7.177   6.657 138.094  0.00  0.00    +0.000 N 
ATOM     50  O   UNL     1      -5.980   5.054 137.038  0.00  0.00    +0.000 OA
ATOM     51  H   UNL     1      -7.411   7.239 138.877  0.00  0.00    +0.000 HD
ATOM     52  H   UNL     1      -7.752   6.807 137.271  0.00  0.00    +0.000 HD
ENDBRANCH  47  48
ENDBRANCH  45  47
ENDBRANCH  42  43
BRANCH  42  53
ATOM     53  C   UNL     1      -5.914   2.346 142.032  0.00  0.00    +0.000 C 
BRANCH  53  54
ATOM     54  C   UNL     1      -7.322   1.856 142.247  0.00  0.00    +0.000 C 
ATOM     55  C   UNL     1      -8.266   2.942 142.017  0.00  0.00    +0.000 C 
ATOM     56  C   UNL     1      -7.890   0.987 141.192  0.00  0.00    +0.000 C 
ENDBRANCH  53  54
ENDBRANCH  42  53
ENDBRANCH  40  42
ENDBRANCH  37  38
ENDBRANCH  13  31
BRANCH  18  57
ATOM     57  N   UNL     1      -4.076  -1.610 131.549  0.00  0.00    +0.000 NA
ATOM     58  H   UNL     1      -4.722  -1.969 130.850  0.00  0.00    +0.000 HD
ATOM     59  H   UNL     1      -3.942  -2.438 132.106  0.00  0.00    +0.000 HD
ENDBRANCH  18  57
BRANCH   1  60
ATOM     60  C   UNL     1      -6.795  -1.874 129.223  0.00  0.00    +0.000 C 
ATOM     61  C   UNL     1      -5.601  -1.256 127.817  0.00  0.00    +0.000 C 
BRANCH  60  63
ATOM     62  C   UNL     1      -8.233  -3.478 128.589  0.00  0.00    +0.000 C 
ATOM     63  C   UNL     1      -7.857  -2.259 127.890  0.00  0.00    +0.000 C 
ENDBRANCH  60  63
ENDBRANCH   1  60
BRANCH   9  64
ATOM     64  C   UNL     1      -3.648  -1.221 137.423  0.00  0.00    +0.000 C 
BRANCH  64  65
ATOM     65  C   UNL     1      -4.405  -0.011 137.436  0.00  0.00    +0.000 C 
ATOM     66  N   UNL     1      -3.649   0.981 136.924  0.00  0.00    +0.000 N 
ATOM     67  O   UNL     1      -5.488   0.090 137.994  0.00  0.00    +0.000 OA
ATOM     68  H   UNL     1      -2.694   0.828 136.617  0.00  0.00    +0.000 HD
ATOM     69  H   UNL     1      -4.020   1.903 136.938  0.00  0.00    +0.000 HD
ENDBRANCH  64  65
ENDBRANCH   9  64
BRANCH  22  70
ATOM     70  C   UNL     1      -7.528   2.740 130.970  0.00  0.00    +0.000 C 
BRANCH  70  71
ATOM     71  C   UNL     1      -7.874   3.613 132.073  0.00  0.00    +0.000 A 
ATOM     72  C   UNL     1      -8.579   3.119 133.156  0.00  0.00    +0.000 A 
ATOM     73  C   UNL     1      -8.726   3.937 134.258  0.00  0.00    +0.000 A 
ATOM     74  C   UNL     1      -8.166   5.210 134.240  0.00  0.00    +0.000 A 
ATOM     75  C   UNL     1      -7.508   5.688 133.124  0.00  0.00    +0.000 A 
ATOM     76  C   UNL     1      -7.388   4.900 132.021  0.00  0.00    +0.000 A 
BRANCH  74  77
ATOM     77  O   UNL     1      -8.230   6.077 135.284  0.00  0.00    +0.000 OA
ATOM     78  H   UNL     1      -8.354   5.613 136.124  0.00  0.00    +0.000 HD
ENDBRANCH  74  77
ENDBRANCH  70  71
ENDBRANCH  22  70
BRANCH   5  79
ATOM     79  C   UNL     1      -4.645  -4.918 136.500  0.00  0.00    +0.000 C 
BRANCH  79  80
ATOM     80  C   UNL     1      -4.047  -6.065 135.802  0.00  0.00    +0.000 C 
BRANCH  80  81
ATOM     81  C   UNL     1      -3.506  -5.621 134.439  0.00  0.00    +0.000 C 
ATOM     82  N   UNL     1      -2.228  -5.890 134.065  0.00  0.00    +0.000 N 
ATOM     83  O   UNL     1      -4.239  -5.037 133.652  0.00  0.00    +0.000 OA
ATOM     84  H   UNL     1      -1.513  -6.286 134.666  0.00  0.00    +0.000 HD
ATOM     85  H   UNL     1      -1.806  -5.504 133.226  0.00  0.00    +0.000 HD
ENDBRANCH  80  81
ENDBRANCH  79  80
ENDBRANCH   5  79
TORSDOF 19
ENDMDL
