MODEL 1
REMARK VINA RESULT:      -9.0      0.000      0.000
REMARK  Name = CHEMBL3814395
REMARK  24 active torsions:
REMARK  status: ('A' for Active; 'I' for Inactive)
REMARK    1  A    between atoms: C_1  and  C_2
REMARK    2  A    between atoms: C_2  and  C_3
REMARK    3  A    between atoms: C_3  and  C_4
REMARK    4  A    between atoms: C_3  and  C_5
REMARK    5  A    between atoms: C_9  and  C_10
REMARK    6  A    between atoms: C_10  and  C_11
REMARK    7  A    between atoms: C_14  and  O_15
REMARK    8  A    between atoms: C_21  and  N_22
REMARK    9  A    between atoms: N_22  and  C_23
REMARK   10  A    between atoms: C_28  and  C_29
REMARK   11  A    between atoms: C_35  and  C_36
REMARK   12  A    between atoms: N_38  and  C_39
REMARK   13  A    between atoms: C_39  and  C_40
REMARK   14  A    between atoms: C_39  and  C_44
REMARK   15  A    between atoms: C_40  and  C_41
REMARK   16  A    between atoms: C_41  and  C_42
REMARK   17  A    between atoms: C_41  and  C_43
REMARK   18  A    between atoms: N_46  and  C_47
REMARK   19  A    between atoms: C_47  and  C_48
REMARK   20  A    between atoms: C_54  and  C_55
REMARK   21  A    between atoms: C_55  and  C_56
REMARK   22  A    between atoms: C_62  and  C_63
REMARK   23  A    between atoms: C_63  and  C_64
REMARK   24  A    between atoms: C_64  and  C_65
REMARK                            x       y       z     vdW  Elec       q    Type
REMARK                         _______ _______ _______ _____ _____    ______ ____
ROOT
ATOM      1  C   UNL     1      -7.237   4.856 129.578  0.00  0.00    +0.000 C 
ATOM      2  N   UNL     1      -6.501   4.216 127.537  0.00  0.00    +0.000 N 
ATOM      3  C   UNL     1      -5.558   3.687 125.929  0.00  0.00    +0.000 C 
ATOM      4  O   UNL     1      -4.148   3.807 125.947  0.00  0.00    +0.000 OA
ATOM      5  C   UNL     1      -6.089   2.219 124.399  0.00  0.00    +0.000 C 
ATOM      6  N   UNL     1      -6.168   0.403 124.532  0.00  0.00    +0.000 N 
ATOM      7  C   UNL     1      -5.595  -0.165 125.663  0.00  0.00    +0.000 C 
ATOM      8  O   UNL     1      -5.598  -1.369 125.885  0.00  0.00    +0.000 OA
ATOM      9  C   UNL     1      -4.977   0.708 126.729  0.00  0.00    +0.000 C 
ATOM     10  C   UNL     1      -5.931   1.110 127.810  0.00  0.00    +0.000 C 
ATOM     11  S   UNL     1      -6.053  -0.619 128.410  0.00  0.00    +0.000 S 
ATOM     12  S   UNL     1      -7.577  -0.746 129.695  0.00  0.00    +0.000 S 
ATOM     13  C   UNL     1      -6.957  -1.801 131.456  0.00  0.00    +0.000 C 
ATOM     14  C   UNL     1      -7.714  -1.512 132.686  0.00  0.00    +0.000 C 
ATOM     15  N   UNL     1      -7.140  -0.357 133.432  0.00  0.00    +0.000 N 
ATOM     16  C   UNL     1      -7.063   0.924 133.036  0.00  0.00    +0.000 C 
ATOM     17  O   UNL     1      -6.628   1.757 133.810  0.00  0.00    +0.000 OA
ATOM     18  C   UNL     1      -7.535   1.206 131.647  0.00  0.00    +0.000 C 
ATOM     19  N   UNL     1      -8.698   1.885 131.618  0.00  0.00    +0.000 N 
ATOM     20  C   UNL     1      -8.132   3.015 131.422  0.00  0.00    +0.000 C 
ATOM     21  O   UNL     1      -8.862   3.494 130.530  0.00  0.00    +0.000 OA
ATOM     22  C   UNL     1      -6.854   3.899 132.592  0.00  0.00    +0.000 C 
ATOM     23  N   UNL     1      -6.145   5.216 131.887  0.00  0.00    +0.000 N 
ATOM     24  C   UNL     1      -6.643   5.973 130.787  0.00  0.00    +0.000 C 
ATOM     25  O   UNL     1      -6.932   7.173 130.949  0.00  0.00    +0.000 OA
ATOM     26  H   UNL     1      -6.322   4.504 126.279  0.00  0.00    +0.000 HD
ATOM     27  H   UNL     1      -6.382  -0.377 123.806  0.00  0.00    +0.000 HD
ATOM     28  H   UNL     1      -6.794  -0.499 134.384  0.00  0.00    +0.000 HD
ATOM     29  H   UNL     1      -9.628   1.844 131.127  0.00  0.00    +0.000 HD
ATOM     30  H   UNL     1      -5.433   4.860 131.329  0.00  0.00    +0.000 HD
ENDROOT
BRANCH  14  31
ATOM     31  C   UNL     1      -7.606  -2.797 133.491  0.00  0.00    +0.000 C 
ATOM     32  O   UNL     1      -8.690  -3.165 133.941  0.00  0.00    +0.000 OA
ATOM     33  N   UNL     1      -6.344  -3.444 133.528  0.00  0.00    +0.000 N 
ATOM     34  C   UNL     1      -5.061  -2.847 133.842  0.00  0.00    +0.000 C 
ATOM     35  C   UNL     1      -4.094  -3.594 132.981  0.00  0.00    +0.000 C 
ATOM     36  C   UNL     1      -4.534  -5.008 133.209  0.00  0.00    +0.000 C 
ATOM     37  C   UNL     1      -6.036  -4.916 133.461  0.00  0.00    +0.000 C 
BRANCH  37  38
ATOM     38  C   UNL     1      -6.007  -5.622 134.855  0.00  0.00    +0.000 C 
ATOM     39  O   UNL     1      -4.907  -6.000 135.288  0.00  0.00    +0.000 OA
ATOM     40  N   UNL     1      -7.162  -5.441 135.682  0.00  0.00    +0.000 N 
ATOM     41  H   UNL     1      -8.081  -5.213 135.304  0.00  0.00    +0.000 HD
BRANCH  40  42
ATOM     42  C   UNL     1      -7.100  -5.528 137.186  0.00  0.00    +0.000 C 
BRANCH  42  43
ATOM     43  C   UNL     1      -8.472  -6.011 137.755  0.00  0.00    +0.000 C 
ATOM     44  O   UNL     1      -8.550  -6.382 138.926  0.00  0.00    +0.000 OA
ATOM     45  N   UNL     1      -9.574  -6.007 136.917  0.00  0.00    +0.000 N 
ATOM     46  H   UNL     1      -9.497  -5.707 135.962  0.00  0.00    +0.000 HD
BRANCH  45  47
ATOM     47  C   UNL     1     -10.900  -6.434 137.373  0.00  0.00    +0.000 C 
BRANCH  47  48
ATOM     48  C   UNL     1     -11.777  -5.295 137.937  0.00  0.00    +0.000 C 
ATOM     49  N   UNL     1     -11.468  -4.005 137.567  0.00  0.00    +0.000 N 
ATOM     50  O   UNL     1     -12.721  -5.524 138.692  0.00  0.00    +0.000 OA
ATOM     51  H   UNL     1     -10.720  -3.729 136.958  0.00  0.00    +0.000 HD
ATOM     52  H   UNL     1     -12.024  -3.233 137.919  0.00  0.00    +0.000 HD
ENDBRANCH  47  48
ENDBRANCH  45  47
ENDBRANCH  42  43
BRANCH  42  53
ATOM     53  C   UNL     1      -6.715  -4.206 137.893  0.00  0.00    +0.000 C 
BRANCH  53  54
ATOM     54  C   UNL     1      -7.357  -2.976 137.274  0.00  0.00    +0.000 C 
ATOM     55  C   UNL     1      -8.264  -2.302 138.232  0.00  0.00    +0.000 C 
ATOM     56  C   UNL     1      -6.453  -1.819 137.111  0.00  0.00    +0.000 C 
ENDBRANCH  53  54
ENDBRANCH  42  53
ENDBRANCH  40  42
ENDBRANCH  37  38
ENDBRANCH  14  31
BRANCH   9  57
ATOM     57  N   UNL     1      -4.846   1.890 126.118  0.00  0.00    +0.000 NA
ATOM     58  C   UNL     1      -3.350   2.521 125.992  0.00  0.00    +0.000 C 
ATOM     59  H   UNL     1      -5.576   2.630 126.461  0.00  0.00    +0.000 HD
ENDBRANCH   9  57
BRANCH   1  60
ATOM     60  C   UNL     1      -8.451   5.383 131.343  0.00  0.00    +0.000 C 
ATOM     61  C   UNL     1      -9.880   6.032 132.802  0.00  0.00    +0.000 C 
BRANCH  60  63
ATOM     62  C   UNL     1     -10.318   5.942 132.887  0.00  0.00    +0.000 C 
ATOM     63  C   UNL     1      -9.939   6.397 131.372  0.00  0.00    +0.000 C 
ENDBRANCH  60  63
ENDBRANCH   1  60
BRANCH  18  64
ATOM     64  C   UNL     1      -6.362   1.772 130.708  0.00  0.00    +0.000 C 
BRANCH  64  65
ATOM     65  C   UNL     1      -4.912   1.451 131.083  0.00  0.00    +0.000 C 
ATOM     66  N   UNL     1      -4.068   2.486 131.093  0.00  0.00    +0.000 N 
ATOM     67  O   UNL     1      -4.542   0.393 131.558  0.00  0.00    +0.000 OA
ATOM     68  H   UNL     1      -4.782   3.178 131.123  0.00  0.00    +0.000 HD
ATOM     69  H   UNL     1      -3.521   2.702 131.975  0.00  0.00    +0.000 HD
ENDBRANCH  64  65
ENDBRANCH  18  64
BRANCH   5  70
ATOM     70  C   UNL     1      -7.341   2.683 124.598  0.00  0.00    +0.000 C 
BRANCH  70  71
ATOM     71  C   UNL     1      -7.513   3.113 123.192  0.00  0.00    +0.000 A 
ATOM     72  C   UNL     1      -8.651   3.014 122.330  0.00  0.00    +0.000 A 
ATOM     73  C   UNL     1      -8.554   3.429 121.018  0.00  0.00    +0.000 A 
ATOM     74  C   UNL     1      -7.326   3.889 120.585  0.00  0.00    +0.000 A 
ATOM     75  C   UNL     1      -6.203   3.829 121.398  0.00  0.00    +0.000 A 
ATOM     76  C   UNL     1      -6.286   3.411 122.687  0.00  0.00    +0.000 A 
BRANCH  74  77
ATOM     77  O   UNL     1      -7.122   4.430 119.358  0.00  0.00    +0.000 OA
ATOM     78  H   UNL     1      -6.961   5.384 119.402  0.00  0.00    +0.000 HD
ENDBRANCH  74  77
ENDBRANCH  70  71
ENDBRANCH   5  70
BRANCH  22  79
ATOM     79  C   UNL     1      -7.121   4.324 134.133  0.00  0.00    +0.000 C 
BRANCH  79  80
ATOM     80  C   UNL     1      -6.361   5.562 134.457  0.00  0.00    +0.000 C 
BRANCH  80  81
ATOM     81  C   UNL     1      -6.778   6.092 135.809  0.00  0.00    +0.000 C 
ATOM     82  N   UNL     1      -8.110   6.077 136.168  0.00  0.00    +0.000 N 
ATOM     83  O   UNL     1      -5.921   6.531 136.568  0.00  0.00    +0.000 OA
ATOM     84  H   UNL     1      -8.875   5.744 135.593  0.00  0.00    +0.000 HD
ATOM     85  H   UNL     1      -8.391   6.415 137.078  0.00  0.00    +0.000 HD
ENDBRANCH  80  81
ENDBRANCH  79  80
ENDBRANCH  22  79
TORSDOF 19
ENDMDL
MODEL 2
REMARK VINA RESULT:      -8.7      5.287     10.903
REMARK  Name = CHEMBL3814395
REMARK  24 active torsions:
REMARK  status: ('A' for Active; 'I' for Inactive)
REMARK    1  A    between atoms: C_1  and  C_2
REMARK    2  A    between atoms: C_2  and  C_3
REMARK    3  A    between atoms: C_3  and  C_4
REMARK    4  A    between atoms: C_3  and  C_5
REMARK    5  A    between atoms: C_9  and  C_10
REMARK    6  A    between atoms: C_10  and  C_11
REMARK    7  A    between atoms: C_14  and  O_15
REMARK    8  A    between atoms: C_21  and  N_22
REMARK    9  A    between atoms: N_22  and  C_23
REMARK   10  A    between atoms: C_28  and  C_29
REMARK   11  A    between atoms: C_35  and  C_36
REMARK   12  A    between atoms: N_38  and  C_39
REMARK   13  A    between atoms: C_39  and  C_40
REMARK   14  A    between atoms: C_39  and  C_44
REMARK   15  A    between atoms: C_40  and  C_41
REMARK   16  A    between atoms: C_41  and  C_42
REMARK   17  A    between atoms: C_41  and  C_43
REMARK   18  A    between atoms: N_46  and  C_47
REMARK   19  A    between atoms: C_47  and  C_48
REMARK   20  A    between atoms: C_54  and  C_55
REMARK   21  A    between atoms: C_55  and  C_56
REMARK   22  A    between atoms: C_62  and  C_63
REMARK   23  A    between atoms: C_63  and  C_64
REMARK   24  A    between atoms: C_64  and  C_65
REMARK                            x       y       z     vdW  Elec       q    Type
REMARK                         _______ _______ _______ _____ _____    ______ ____
ROOT
ATOM      1  C   UNL     1      -7.928   0.723 130.019  0.00  0.00    +0.000 C 
ATOM      2  N   UNL     1      -8.081   0.883 127.768  0.00  0.00    +0.000 N 
ATOM      3  C   UNL     1      -8.424   1.283 125.903  0.00  0.00    +0.000 C 
ATOM      4  O   UNL     1      -9.447   2.221 125.628  0.00  0.00    +0.000 OA
ATOM      5  C   UNL     1      -7.083   1.226 124.176  0.00  0.00    +0.000 C 
ATOM      6  N   UNL     1      -5.669   2.308 123.787  0.00  0.00    +0.000 N 
ATOM      7  C   UNL     1      -5.548   3.471 124.539  0.00  0.00    +0.000 C 
ATOM      8  O   UNL     1      -4.634   4.272 124.394  0.00  0.00    +0.000 OA
ATOM      9  C   UNL     1      -6.535   3.777 125.640  0.00  0.00    +0.000 C 
ATOM     10  C   UNL     1      -6.126   3.252 126.982  0.00  0.00    +0.000 C 
ATOM     11  S   UNL     1      -4.716   4.422 127.062  0.00  0.00    +0.000 S 
ATOM     12  S   UNL     1      -3.521   3.885 128.570  0.00  0.00    +0.000 S 
ATOM     13  C   UNL     1      -3.026   5.604 129.752  0.00  0.00    +0.000 C 
ATOM     14  C   UNL     1      -2.653   5.343 131.153  0.00  0.00    +0.000 C 
ATOM     15  N   UNL     1      -3.843   5.330 132.050  0.00  0.00    +0.000 N 
ATOM     16  C   UNL     1      -4.875   4.472 132.039  0.00  0.00    +0.000 C 
ATOM     17  O   UNL     1      -5.731   4.565 132.899  0.00  0.00    +0.000 OA
ATOM     18  C   UNL     1      -4.868   3.459 130.941  0.00  0.00    +0.000 C 
ATOM     19  N   UNL     1      -4.604   2.213 131.382  0.00  0.00    +0.000 N 
ATOM     20  C   UNL     1      -5.835   1.866 131.399  0.00  0.00    +0.000 C 
ATOM     21  O   UNL     1      -5.769   0.733 130.879  0.00  0.00    +0.000 OA
ATOM     22  C   UNL     1      -7.261   2.673 132.448  0.00  0.00    +0.000 C 
ATOM     23  N   UNL     1      -8.761   2.130 132.014  0.00  0.00    +0.000 N 
ATOM     24  C   UNL     1      -9.070   0.918 131.330  0.00  0.00    +0.000 C 
ATOM     25  O   UNL     1      -9.761   0.053 131.897  0.00  0.00    +0.000 OA
ATOM     26  H   UNL     1      -8.501   0.377 126.642  0.00  0.00    +0.000 HD
ATOM     27  H   UNL     1      -4.996   2.358 122.936  0.00  0.00    +0.000 HD
ATOM     28  H   UNL     1      -3.901   6.010 132.812  0.00  0.00    +0.000 HD
ATOM     29  H   UNL     1      -3.991   1.397 131.129  0.00  0.00    +0.000 HD
ATOM     30  H   UNL     1      -9.007   2.645 131.228  0.00  0.00    +0.000 HD
ENDROOT
BRANCH  14  31
ATOM     31  C   UNL     1      -1.712   6.484 131.500  0.00  0.00    +0.000 C 
ATOM     32  O   UNL     1      -0.938   6.754 130.583  0.00  0.00    +0.000 OA
ATOM     33  N   UNL     1      -1.909   7.142 132.742  0.00  0.00    +0.000 N 
ATOM     34  C   UNL     1      -2.046   6.528 134.048  0.00  0.00    +0.000 C 
ATOM     35  C   UNL     1      -3.002   7.421 134.769  0.00  0.00    +0.000 C 
ATOM     36  C   UNL     1      -2.444   8.772 134.440  0.00  0.00    +0.000 C 
ATOM     37  C   UNL     1      -1.821   8.611 133.056  0.00  0.00    +0.000 C 
BRANCH  37  38
ATOM     38  C   UNL     1      -0.391   9.087 133.470  0.00  0.00    +0.000 C 
ATOM     39  O   UNL     1       0.580   8.489 132.983  0.00  0.00    +0.000 OA
ATOM     40  N   UNL     1      -0.303  10.389 134.062  0.00  0.00    +0.000 N 
ATOM     41  H   UNL     1      -1.088  10.834 134.535  0.00  0.00    +0.000 HD
BRANCH  40  42
ATOM     42  C   UNL     1       0.951  11.224 133.991  0.00  0.00    +0.000 C 
BRANCH  42  43
ATOM     43  C   UNL     1       0.813  12.480 134.910  0.00  0.00    +0.000 C 
ATOM     44  O   UNL     1       1.780  13.225 135.072  0.00  0.00    +0.000 OA
ATOM     45  N   UNL     1      -0.405  12.722 135.521  0.00  0.00    +0.000 N 
ATOM     46  H   UNL     1      -1.184  12.105 135.385  0.00  0.00    +0.000 HD
BRANCH  45  47
ATOM     47  C   UNL     1      -0.622  13.884 136.390  0.00  0.00    +0.000 C 
BRANCH  47  48
ATOM     48  C   UNL     1      -1.211  15.116 135.671  0.00  0.00    +0.000 C 
ATOM     49  N   UNL     1      -0.801  16.361 136.093  0.00  0.00    +0.000 N 
ATOM     50  O   UNL     1      -2.020  14.999 134.752  0.00  0.00    +0.000 OA
ATOM     51  H   UNL     1      -0.147  16.549 136.831  0.00  0.00    +0.000 HD
ATOM     52  H   UNL     1      -1.168  17.193 135.643  0.00  0.00    +0.000 HD
ENDBRANCH  47  48
ENDBRANCH  45  47
ENDBRANCH  42  43
BRANCH  42  53
ATOM     53  C   UNL     1       1.329  11.698 132.567  0.00  0.00    +0.000 C 
BRANCH  53  54
ATOM     54  C   UNL     1       0.451  12.823 132.046  0.00  0.00    +0.000 C 
ATOM     55  C   UNL     1       0.780  13.159 130.642  0.00  0.00    +0.000 C 
ATOM     56  C   UNL     1      -0.949  12.440 131.767  0.00  0.00    +0.000 C 
ENDBRANCH  53  54
ENDBRANCH  42  53
ENDBRANCH  40  42
ENDBRANCH  37  38
ENDBRANCH  14  31
BRANCH   9  57
ATOM     57  N   UNL     1      -7.545   2.937 125.389  0.00  0.00    +0.000 NA
ATOM     58  C   UNL     1      -8.647   3.383 124.276  0.00  0.00    +0.000 C 
ATOM     59  H   UNL     1      -8.013   2.549 126.298  0.00  0.00    +0.000 HD
ENDBRANCH   9  57
BRANCH   1  60
ATOM     60  C   UNL     1      -7.393   0.190 132.091  0.00  0.00    +0.000 C 
ATOM     61  C   UNL     1      -6.771  -0.666 133.955  0.00  0.00    +0.000 C 
BRANCH  60  63
ATOM     62  C   UNL     1      -6.233  -0.830 134.040  0.00  0.00    +0.000 C 
ATOM     63  C   UNL     1      -6.943  -1.441 132.709  0.00  0.00    +0.000 C 
ENDBRANCH  60  63
ENDBRANCH   1  60
BRANCH  18  64
ATOM     64  C   UNL     1      -6.134   3.610 129.964  0.00  0.00    +0.000 C 
BRANCH  64  65
ATOM     65  C   UNL     1      -6.837   4.968 129.891  0.00  0.00    +0.000 C 
ATOM     66  N   UNL     1      -8.168   4.943 129.993  0.00  0.00    +0.000 N 
ATOM     67  O   UNL     1      -6.268   6.042 129.956  0.00  0.00    +0.000 OA
ATOM     68  H   UNL     1      -8.208   4.026 130.376  0.00  0.00    +0.000 HD
ATOM     69  H   UNL     1      -8.643   5.514 130.749  0.00  0.00    +0.000 HD
ENDBRANCH  64  65
ENDBRANCH  18  64
BRANCH   5  70
ATOM     70  C   UNL     1      -6.584   0.130 124.787  0.00  0.00    +0.000 C 
BRANCH  70  71
ATOM     71  C   UNL     1      -7.597  -0.778 124.203  0.00  0.00    +0.000 A 
ATOM     72  C   UNL     1      -8.512  -0.567 123.124  0.00  0.00    +0.000 A 
ATOM     73  C   UNL     1      -9.421  -1.550 122.795  0.00  0.00    +0.000 A 
ATOM     74  C   UNL     1      -9.430  -2.695 123.568  0.00  0.00    +0.000 A 
ATOM     75  C   UNL     1      -8.638  -2.808 124.702  0.00  0.00    +0.000 A 
ATOM     76  C   UNL     1      -7.748  -1.840 125.040  0.00  0.00    +0.000 A 
BRANCH  74  77
ATOM     77  O   UNL     1     -10.192  -3.781 123.287  0.00  0.00    +0.000 OA
ATOM     78  H   UNL     1     -10.498  -4.229 124.089  0.00  0.00    +0.000 HD
ENDBRANCH  74  77
ENDBRANCH  70  71
ENDBRANCH   5  70
BRANCH  22  79
ATOM     79  C   UNL     1      -7.294   2.793 134.063  0.00  0.00    +0.000 C 
BRANCH  79  80
ATOM     80  C   UNL     1      -8.529   3.502 134.494  0.00  0.00    +0.000 C 
BRANCH  80  81
ATOM     81  C   UNL     1      -8.241   4.969 134.713  0.00  0.00    +0.000 C 
ATOM     82  N   UNL     1      -8.595   5.887 133.746  0.00  0.00    +0.000 N 
ATOM     83  O   UNL     1      -7.691   5.321 135.752  0.00  0.00    +0.000 OA
ATOM     84  H   UNL     1      -9.038   5.674 132.861  0.00  0.00    +0.000 HD
ATOM     85  H   UNL     1      -8.419   6.871 133.896  0.00  0.00    +0.000 HD
ENDBRANCH  80  81
ENDBRANCH  79  80
ENDBRANCH  22  79
TORSDOF 19
ENDMDL
MODEL 3
REMARK VINA RESULT:      -8.4      5.474     11.596
REMARK  Name = CHEMBL3814395
REMARK  24 active torsions:
REMARK  status: ('A' for Active; 'I' for Inactive)
REMARK    1  A    between atoms: C_1  and  C_2
REMARK    2  A    between atoms: C_2  and  C_3
REMARK    3  A    between atoms: C_3  and  C_4
REMARK    4  A    between atoms: C_3  and  C_5
REMARK    5  A    between atoms: C_9  and  C_10
REMARK    6  A    between atoms: C_10  and  C_11
REMARK    7  A    between atoms: C_14  and  O_15
REMARK    8  A    between atoms: C_21  and  N_22
REMARK    9  A    between atoms: N_22  and  C_23
REMARK   10  A    between atoms: C_28  and  C_29
REMARK   11  A    between atoms: C_35  and  C_36
REMARK   12  A    between atoms: N_38  and  C_39
REMARK   13  A    between atoms: C_39  and  C_40
REMARK   14  A    between atoms: C_39  and  C_44
REMARK   15  A    between atoms: C_40  and  C_41
REMARK   16  A    between atoms: C_41  and  C_42
REMARK   17  A    between atoms: C_41  and  C_43
REMARK   18  A    between atoms: N_46  and  C_47
REMARK   19  A    between atoms: C_47  and  C_48
REMARK   20  A    between atoms: C_54  and  C_55
REMARK   21  A    between atoms: C_55  and  C_56
REMARK   22  A    between atoms: C_62  and  C_63
REMARK   23  A    between atoms: C_63  and  C_64
REMARK   24  A    between atoms: C_64  and  C_65
REMARK                            x       y       z     vdW  Elec       q    Type
REMARK                         _______ _______ _______ _____ _____    ______ ____
ROOT
ATOM      1  C   UNL     1      -4.935  -0.308 132.691  0.00  0.00    +0.000 C 
ATOM      2  N   UNL     1      -5.897   0.073 130.679  0.00  0.00    +0.000 N 
ATOM      3  C   UNL     1      -6.998   0.488 129.140  0.00  0.00    +0.000 C 
ATOM      4  O   UNL     1      -8.371   0.728 129.382  0.00  0.00    +0.000 OA
ATOM      5  C   UNL     1      -6.473   1.441 127.243  0.00  0.00    +0.000 C 
ATOM      6  N   UNL     1      -5.989   3.169 126.925  0.00  0.00    +0.000 N 
ATOM      7  C   UNL     1      -6.202   4.076 127.956  0.00  0.00    +0.000 C 
ATOM      8  O   UNL     1      -5.902   5.261 127.881  0.00  0.00    +0.000 OA
ATOM      9  C   UNL     1      -6.774   3.615 129.276  0.00  0.00    +0.000 C 
ATOM     10  C   UNL     1      -5.736   3.214 130.278  0.00  0.00    +0.000 C 
ATOM     11  S   UNL     1      -5.140   4.942 130.423  0.00  0.00    +0.000 S 
ATOM     12  S   UNL     1      -3.406   4.941 131.414  0.00  0.00    +0.000 S 
ATOM     13  C   UNL     1      -3.440   6.447 132.940  0.00  0.00    +0.000 C 
ATOM     14  C   UNL     1      -2.539   6.232 134.085  0.00  0.00    +0.000 C 
ATOM     15  N   UNL     1      -3.189   5.428 135.159  0.00  0.00    +0.000 N 
ATOM     16  C   UNL     1      -3.609   4.154 135.096  0.00  0.00    +0.000 C 
ATOM     17  O   UNL     1      -4.054   3.628 136.099  0.00  0.00    +0.000 OA
ATOM     18  C   UNL     1      -3.483   3.492 133.763  0.00  0.00    +0.000 C 
ATOM     19  N   UNL     1      -2.517   2.554 133.735  0.00  0.00    +0.000 N 
ATOM     20  C   UNL     1      -3.336   1.584 133.897  0.00  0.00    +0.000 C 
ATOM     21  O   UNL     1      -2.908   0.770 133.052  0.00  0.00    +0.000 OA
ATOM     22  C   UNL     1      -4.522   1.298 135.411  0.00  0.00    +0.000 C 
ATOM     23  N   UNL     1      -5.615   0.085 135.148  0.00  0.00    +0.000 N 
ATOM     24  C   UNL     1      -5.508  -0.977 134.203  0.00  0.00    +0.000 C 
ATOM     25  O   UNL     1      -5.453  -2.153 134.606  0.00  0.00    +0.000 OA
ATOM     26  H   UNL     1      -6.371  -0.407 129.564  0.00  0.00    +0.000 HD
ATOM     27  H   UNL     1      -5.758   3.710 126.011  0.00  0.00    +0.000 HD
ATOM     28  H   UNL     1      -3.308   5.839 136.088  0.00  0.00    +0.000 HD
ATOM     29  H   UNL     1      -1.712   2.263 133.124  0.00  0.00    +0.000 HD
ATOM     30  H   UNL     1      -6.329   0.487 134.626  0.00  0.00    +0.000 HD
ENDROOT
BRANCH  14  31
ATOM     31  C   UNL     1      -2.217   7.637 134.566  0.00  0.00    +0.000 C 
ATOM     32  O   UNL     1      -3.183   8.394 134.497  0.00  0.00    +0.000 OA
ATOM     33  N   UNL     1      -0.928   7.862 135.117  0.00  0.00    +0.000 N 
ATOM     34  C   UNL     1       0.350   7.499 134.535  0.00  0.00    +0.000 C 
ATOM     35  C   UNL     1       1.201   7.163 135.716  0.00  0.00    +0.000 C 
ATOM     36  C   UNL     1       0.897   8.310 136.631  0.00  0.00    +0.000 C 
ATOM     37  C   UNL     1      -0.544   8.696 136.309  0.00  0.00    +0.000 C 
BRANCH  37  38
ATOM     38  C   UNL     1      -0.235  10.189 135.966  0.00  0.00    +0.000 C 
ATOM     39  O   UNL     1       0.909  10.609 136.195  0.00  0.00    +0.000 OA
ATOM     40  N   UNL     1      -1.152  10.839 135.078  0.00  0.00    +0.000 N 
ATOM     41  H   UNL     1      -2.118  10.534 134.963  0.00  0.00    +0.000 HD
BRANCH  40  42
ATOM     42  C   UNL     1      -0.747  12.002 134.208  0.00  0.00    +0.000 C 
BRANCH  42  43
ATOM     43  C   UNL     1      -1.862  13.095 134.217  0.00  0.00    +0.000 C 
ATOM     44  O   UNL     1      -2.047  13.769 135.231  0.00  0.00    +0.000 OA
ATOM     45  N   UNL     1      -2.619  13.279 133.072  0.00  0.00    +0.000 N 
ATOM     46  H   UNL     1      -2.462  12.720 132.254  0.00  0.00    +0.000 HD
BRANCH  45  47
ATOM     47  C   UNL     1      -3.678  14.290 132.994  0.00  0.00    +0.000 C 
BRANCH  47  48
ATOM     48  C   UNL     1      -3.174  15.718 132.693  0.00  0.00    +0.000 C 
ATOM     49  N   UNL     1      -2.998  16.573 133.759  0.00  0.00    +0.000 N 
ATOM     50  O   UNL     1      -2.936  16.088 131.544  0.00  0.00    +0.000 OA
ATOM     51  H   UNL     1      -3.166  16.355 134.724  0.00  0.00    +0.000 HD
ATOM     52  H   UNL     1      -2.668  17.518 133.598  0.00  0.00    +0.000 HD
ENDBRANCH  47  48
ENDBRANCH  45  47
ENDBRANCH  42  43
BRANCH  42  53
ATOM     53  C   UNL     1      -0.439  11.629 132.738  0.00  0.00    +0.000 C 
BRANCH  53  54
ATOM     54  C   UNL     1       0.943  12.060 132.277  0.00  0.00    +0.000 C 
ATOM     55  C   UNL     1       0.874  12.835 131.016  0.00  0.00    +0.000 C 
ATOM     56  C   UNL     1       1.550  13.150 133.069  0.00  0.00    +0.000 C 
ENDBRANCH  53  54
ENDBRANCH  42  53
ENDBRANCH  40  42
ENDBRANCH  37  38
ENDBRANCH  14  31
BRANCH   9  57
ATOM     57  N   UNL     1      -7.266   2.405 128.990  0.00  0.00    +0.000 NA
ATOM     58  C   UNL     1      -8.844   2.296 128.604  0.00  0.00    +0.000 C 
ATOM     59  H   UNL     1      -6.966   1.642 129.715  0.00  0.00    +0.000 HD
ENDBRANCH   9  57
BRANCH   1  60
ATOM     60  C   UNL     1      -3.544  -0.755 134.343  0.00  0.00    +0.000 C 
ATOM     61  C   UNL     1      -2.007  -1.403 135.689  0.00  0.00    +0.000 C 
BRANCH  60  63
ATOM     62  C   UNL     1      -1.896  -1.740 135.923  0.00  0.00    +0.000 C 
ATOM     63  C   UNL     1      -2.226  -1.982 134.349  0.00  0.00    +0.000 C 
ENDBRANCH  60  63
ENDBRANCH   1  60
BRANCH  18  64
ATOM     64  C   UNL     1      -4.907   3.059 133.160  0.00  0.00    +0.000 C 
BRANCH  64  65
ATOM     65  C   UNL     1      -6.156   3.802 133.643  0.00  0.00    +0.000 C 
ATOM     66  N   UNL     1      -7.179   3.035 134.031  0.00  0.00    +0.000 N 
ATOM     67  O   UNL     1      -6.198   4.994 133.884  0.00  0.00    +0.000 OA
ATOM     68  H   UNL     1      -6.633   2.209 134.132  0.00  0.00    +0.000 HD
ATOM     69  H   UNL     1      -7.576   3.153 135.007  0.00  0.00    +0.000 HD
ENDBRANCH  64  65
ENDBRANCH  18  64
BRANCH   5  70
ATOM     70  C   UNL     1      -5.332   0.730 127.371  0.00  0.00    +0.000 C 
BRANCH  70  71
ATOM     71  C   UNL     1      -5.649  -0.170 126.239  0.00  0.00    +0.000 A 
ATOM     72  C   UNL     1      -6.310   0.104 125.000  0.00  0.00    +0.000 A 
ATOM     73  C   UNL     1      -6.555  -0.923 124.113  0.00  0.00    +0.000 A 
ATOM     74  C   UNL     1      -6.180  -2.196 124.493  0.00  0.00    +0.000 A 
ATOM     75  C   UNL     1      -5.683  -2.455 125.763  0.00  0.00    +0.000 A 
ATOM     76  C   UNL     1      -5.449  -1.452 126.647  0.00  0.00    +0.000 A 
BRANCH  74  77
ATOM     77  O   UNL     1      -6.261  -3.275 123.675  0.00  0.00    +0.000 OA
ATOM     78  H   UNL     1      -5.846  -3.111 122.815  0.00  0.00    +0.000 HD
ENDBRANCH  74  77
ENDBRANCH  70  71
ENDBRANCH   5  70
BRANCH  22  79
ATOM     79  C   UNL     1      -4.060   1.138 136.956  0.00  0.00    +0.000 C 
BRANCH  79  80
ATOM     80  C   UNL     1      -5.134   0.468 137.740  0.00  0.00    +0.000 C 
BRANCH  80  81
ATOM     81  C   UNL     1      -4.635  -0.846 138.293  0.00  0.00    +0.000 C 
ATOM     82  N   UNL     1      -3.731  -0.850 139.336  0.00  0.00    +0.000 N 
ATOM     83  O   UNL     1      -5.042  -1.894 137.802  0.00  0.00    +0.000 OA
ATOM     84  H   UNL     1      -3.340  -0.030 139.783  0.00  0.00    +0.000 HD
ATOM     85  H   UNL     1      -3.408  -1.728 139.720  0.00  0.00    +0.000 HD
ENDBRANCH  80  81
ENDBRANCH  79  80
ENDBRANCH  22  79
TORSDOF 19
ENDMDL
MODEL 4
REMARK VINA RESULT:      -8.3      4.101      8.690
REMARK  Name = CHEMBL3814395
REMARK  24 active torsions:
REMARK  status: ('A' for Active; 'I' for Inactive)
REMARK    1  A    between atoms: C_1  and  C_2
REMARK    2  A    between atoms: C_2  and  C_3
REMARK    3  A    between atoms: C_3  and  C_4
REMARK    4  A    between atoms: C_3  and  C_5
REMARK    5  A    between atoms: C_9  and  C_10
REMARK    6  A    between atoms: C_10  and  C_11
REMARK    7  A    between atoms: C_14  and  O_15
REMARK    8  A    between atoms: C_21  and  N_22
REMARK    9  A    between atoms: N_22  and  C_23
REMARK   10  A    between atoms: C_28  and  C_29
REMARK   11  A    between atoms: C_35  and  C_36
REMARK   12  A    between atoms: N_38  and  C_39
REMARK   13  A    between atoms: C_39  and  C_40
REMARK   14  A    between atoms: C_39  and  C_44
REMARK   15  A    between atoms: C_40  and  C_41
REMARK   16  A    between atoms: C_41  and  C_42
REMARK   17  A    between atoms: C_41  and  C_43
REMARK   18  A    between atoms: N_46  and  C_47
REMARK   19  A    between atoms: C_47  and  C_48
REMARK   20  A    between atoms: C_54  and  C_55
REMARK   21  A    between atoms: C_55  and  C_56
REMARK   22  A    between atoms: C_62  and  C_63
REMARK   23  A    between atoms: C_63  and  C_64
REMARK   24  A    between atoms: C_64  and  C_65
REMARK                            x       y       z     vdW  Elec       q    Type
REMARK                         _______ _______ _______ _____ _____    ______ ____
ROOT
ATOM      1  C   UNL     1      -3.673   6.470 131.648  0.00  0.00    +0.000 C 
ATOM      2  N   UNL     1      -2.995   7.230 133.668  0.00  0.00    +0.000 N 
ATOM      3  C   UNL     1      -2.744   7.964 135.444  0.00  0.00    +0.000 C 
ATOM      4  O   UNL     1      -3.844   8.648 136.014  0.00  0.00    +0.000 OA
ATOM      5  C   UNL     1      -1.445   7.303 137.074  0.00  0.00    +0.000 C 
ATOM      6  N   UNL     1      -1.560   5.796 138.092  0.00  0.00    +0.000 N 
ATOM      7  C   UNL     1      -2.745   5.074 138.007  0.00  0.00    +0.000 C 
ATOM      8  O   UNL     1      -2.943   4.034 138.621  0.00  0.00    +0.000 OA
ATOM      9  C   UNL     1      -3.850   5.524 137.080  0.00  0.00    +0.000 C 
ATOM     10  C   UNL     1      -3.768   4.930 135.708  0.00  0.00    +0.000 C 
ATOM     11  S   UNL     1      -4.138   3.256 136.359  0.00  0.00    +0.000 S 
ATOM     12  S   UNL     1      -3.769   1.914 134.926  0.00  0.00    +0.000 S 
ATOM     13  C   UNL     1      -5.410   0.543 134.774  0.00  0.00    +0.000 C 
ATOM     14  C   UNL     1      -5.581  -0.123 133.472  0.00  0.00    +0.000 C 
ATOM     15  N   UNL     1      -6.436   0.674 132.548  0.00  0.00    +0.000 N 
ATOM     16  C   UNL     1      -6.181   1.886 132.029  0.00  0.00    +0.000 C 
ATOM     17  O   UNL     1      -6.963   2.361 131.226  0.00  0.00    +0.000 OA
ATOM     18  C   UNL     1      -4.928   2.547 132.503  0.00  0.00    +0.000 C 
ATOM     19  N   UNL     1      -3.972   2.594 131.554  0.00  0.00    +0.000 N 
ATOM     20  C   UNL     1      -4.231   3.805 131.232  0.00  0.00    +0.000 C 
ATOM     21  O   UNL     1      -3.079   4.279 131.151  0.00  0.00    +0.000 OA
ATOM     22  C   UNL     1      -5.913   4.495 130.540  0.00  0.00    +0.000 C 
ATOM     23  N   UNL     1      -5.954   6.147 130.486  0.00  0.00    +0.000 N 
ATOM     24  C   UNL     1      -4.837   7.032 130.468  0.00  0.00    +0.000 C 
ATOM     25  O   UNL     1      -4.654   7.768 129.481  0.00  0.00    +0.000 OA
ATOM     26  H   UNL     1      -2.329   8.112 134.358  0.00  0.00    +0.000 HD
ATOM     27  H   UNL     1      -0.978   5.434 138.934  0.00  0.00    +0.000 HD
ATOM     28  H   UNL     1      -7.310   0.271 132.203  0.00  0.00    +0.000 HD
ATOM     29  H   UNL     1      -2.945   2.394 131.455  0.00  0.00    +0.000 HD
ATOM     30  H   UNL     1      -6.174   6.431 131.389  0.00  0.00    +0.000 HD
ENDROOT
BRANCH  14  31
ATOM     31  C   UNL     1      -6.236  -1.450 133.823  0.00  0.00    +0.000 C 
ATOM     32  O   UNL     1      -7.423  -1.327 134.116  0.00  0.00    +0.000 OA
ATOM     33  N   UNL     1      -5.458  -2.627 133.667  0.00  0.00    +0.000 N 
ATOM     34  C   UNL     1      -4.121  -2.868 134.172  0.00  0.00    +0.000 C 
ATOM     35  C   UNL     1      -3.492  -3.734 133.130  0.00  0.00    +0.000 C 
ATOM     36  C   UNL     1      -4.580  -4.735 132.886  0.00  0.00    +0.000 C 
ATOM     37  C   UNL     1      -5.878  -3.970 133.134  0.00  0.00    +0.000 C 
BRANCH  37  38
ATOM     38  C   UNL     1      -6.427  -4.943 134.227  0.00  0.00    +0.000 C 
ATOM     39  O   UNL     1      -5.761  -5.956 134.486  0.00  0.00    +0.000 OA
ATOM     40  N   UNL     1      -7.431  -4.412 135.100  0.00  0.00    +0.000 N 
ATOM     41  H   UNL     1      -8.031  -3.630 134.841  0.00  0.00    +0.000 HD
BRANCH  40  42
ATOM     42  C   UNL     1      -7.650  -4.942 136.495  0.00  0.00    +0.000 C 
BRANCH  42  43
ATOM     43  C   UNL     1      -9.171  -4.914 136.850  0.00  0.00    +0.000 C 
ATOM     44  O   UNL     1      -9.947  -5.673 136.268  0.00  0.00    +0.000 OA
ATOM     45  N   UNL     1      -9.608  -4.027 137.818  0.00  0.00    +0.000 N 
ATOM     46  H   UNL     1      -8.967  -3.409 138.281  0.00  0.00    +0.000 HD
BRANCH  45  47
ATOM     47  C   UNL     1     -11.017  -3.943 138.217  0.00  0.00    +0.000 C 
BRANCH  47  48
ATOM     48  C   UNL     1     -11.559  -2.503 138.342  0.00  0.00    +0.000 C 
ATOM     49  N   UNL     1     -12.505  -2.093 137.429  0.00  0.00    +0.000 N 
ATOM     50  O   UNL     1     -11.165  -1.742 139.224  0.00  0.00    +0.000 OA
ATOM     51  H   UNL     1     -12.882  -2.646 136.681  0.00  0.00    +0.000 HD
ATOM     52  H   UNL     1     -12.883  -1.153 137.482  0.00  0.00    +0.000 HD
ENDBRANCH  47  48
ENDBRANCH  45  47
ENDBRANCH  42  43
BRANCH  42  53
ATOM     53  C   UNL     1      -6.875  -4.185 137.601  0.00  0.00    +0.000 C 
BRANCH  53  54
ATOM     54  C   UNL     1      -6.286  -2.864 137.136  0.00  0.00    +0.000 C 
ATOM     55  C   UNL     1      -6.930  -1.717 137.816  0.00  0.00    +0.000 C 
ATOM     56  C   UNL     1      -4.929  -2.576 137.644  0.00  0.00    +0.000 C 
ENDBRANCH  53  54
ENDBRANCH  42  53
ENDBRANCH  40  42
ENDBRANCH  37  38
ENDBRANCH  14  31
BRANCH   9  57
ATOM     57  N   UNL     1      -3.507   6.782 136.782  0.00  0.00    +0.000 NA
ATOM     58  C   UNL     1      -4.106   7.975 137.714  0.00  0.00    +0.000 C 
ATOM     59  H   UNL     1      -3.601   7.008 135.716  0.00  0.00    +0.000 HD
ENDBRANCH   9  57
BRANCH   1  60
ATOM     60  C   UNL     1      -3.813   5.547 129.650  0.00  0.00    +0.000 C 
ATOM     61  C   UNL     1      -3.577   4.739 127.679  0.00  0.00    +0.000 C 
BRANCH  60  63
ATOM     62  C   UNL     1      -3.165   4.255 127.627  0.00  0.00    +0.000 C 
ATOM     63  C   UNL     1      -2.568   5.585 128.349  0.00  0.00    +0.000 C 
ENDBRANCH  60  63
ENDBRANCH   1  60
BRANCH  18  64
ATOM     64  C   UNL     1      -5.220   3.921 133.281  0.00  0.00    +0.000 C 
BRANCH  64  65
ATOM     65  C   UNL     1      -6.613   4.135 133.879  0.00  0.00    +0.000 C 
ATOM     66  N   UNL     1      -7.225   5.274 133.544  0.00  0.00    +0.000 N 
ATOM     67  O   UNL     1      -7.258   3.273 134.448  0.00  0.00    +0.000 OA
ATOM     68  H   UNL     1      -6.638   5.460 132.762  0.00  0.00    +0.000 HD
ATOM     69  H   UNL     1      -8.183   5.236 133.091  0.00  0.00    +0.000 HD
ENDBRANCH  64  65
ENDBRANCH  18  64
BRANCH   5  70
ATOM     70  C   UNL     1      -0.575   7.039 136.076  0.00  0.00    +0.000 C 
BRANCH  70  71
ATOM     71  C   UNL     1       0.519   7.829 136.687  0.00  0.00    +0.000 A 
ATOM     72  C   UNL     1       0.581   9.221 137.010  0.00  0.00    +0.000 A 
ATOM     73  C   UNL     1       1.746   9.754 137.520  0.00  0.00    +0.000 A 
ATOM     74  C   UNL     1       2.829   8.907 137.654  0.00  0.00    +0.000 A 
ATOM     75  C   UNL     1       2.787   7.600 137.189  0.00  0.00    +0.000 A 
ATOM     76  C   UNL     1       1.647   7.070 136.675  0.00  0.00    +0.000 A 
BRANCH  74  77
ATOM     77  O   UNL     1       3.995   9.273 138.243  0.00  0.00    +0.000 OA
ATOM     78  H   UNL     1       4.038   8.994 139.170  0.00  0.00    +0.000 HD
ENDBRANCH  74  77
ENDBRANCH  70  71
ENDBRANCH   5  70
BRANCH  22  79
ATOM     79  C   UNL     1      -6.652   3.998 129.187  0.00  0.00    +0.000 C 
BRANCH  79  80
ATOM     80  C   UNL     1      -7.883   4.803 128.957  0.00  0.00    +0.000 C 
BRANCH  80  81
ATOM     81  C   UNL     1      -8.890   4.543 130.054  0.00  0.00    +0.000 C 
ATOM     82  N   UNL     1      -9.590   3.354 130.072  0.00  0.00    +0.000 N 
ATOM     83  O   UNL     1      -9.069   5.400 130.914  0.00  0.00    +0.000 OA
ATOM     84  H   UNL     1      -9.507   2.608 129.393  0.00  0.00    +0.000 HD
ATOM     85  H   UNL     1     -10.251   3.170 130.814  0.00  0.00    +0.000 HD
ENDBRANCH  80  81
ENDBRANCH  79  80
ENDBRANCH  22  79
TORSDOF 19
ENDMDL
MODEL 5
REMARK VINA RESULT:      -8.2      3.757     11.297
REMARK  Name = CHEMBL3814395
REMARK  24 active torsions:
REMARK  status: ('A' for Active; 'I' for Inactive)
REMARK    1  A    between atoms: C_1  and  C_2
REMARK    2  A    between atoms: C_2  and  C_3
REMARK    3  A    between atoms: C_3  and  C_4
REMARK    4  A    between atoms: C_3  and  C_5
REMARK    5  A    between atoms: C_9  and  C_10
REMARK    6  A    between atoms: C_10  and  C_11
REMARK    7  A    between atoms: C_14  and  O_15
REMARK    8  A    between atoms: C_21  and  N_22
REMARK    9  A    between atoms: N_22  and  C_23
REMARK   10  A    between atoms: C_28  and  C_29
REMARK   11  A    between atoms: C_35  and  C_36
REMARK   12  A    between atoms: N_38  and  C_39
REMARK   13  A    between atoms: C_39  and  C_40
REMARK   14  A    between atoms: C_39  and  C_44
REMARK   15  A    between atoms: C_40  and  C_41
REMARK   16  A    between atoms: C_41  and  C_42
REMARK   17  A    between atoms: C_41  and  C_43
REMARK   18  A    between atoms: N_46  and  C_47
REMARK   19  A    between atoms: C_47  and  C_48
REMARK   20  A    between atoms: C_54  and  C_55
REMARK   21  A    between atoms: C_55  and  C_56
REMARK   22  A    between atoms: C_62  and  C_63
REMARK   23  A    between atoms: C_63  and  C_64
REMARK   24  A    between atoms: C_64  and  C_65
REMARK                            x       y       z     vdW  Elec       q    Type
REMARK                         _______ _______ _______ _____ _____    ______ ____
ROOT
ATOM      1  C   UNL     1      -4.052   0.697 137.610  0.00  0.00    +0.000 C 
ATOM      2  N   UNL     1      -4.363   2.927 137.394  0.00  0.00    +0.000 N 
ATOM      3  C   UNL     1      -4.326   4.833 137.047  0.00  0.00    +0.000 C 
ATOM      4  O   UNL     1      -3.118   5.367 136.541  0.00  0.00    +0.000 OA
ATOM      5  C   UNL     1      -5.944   6.203 136.510  0.00  0.00    +0.000 C 
ATOM      6  N   UNL     1      -6.902   6.292 134.962  0.00  0.00    +0.000 N 
ATOM      7  C   UNL     1      -6.408   5.573 133.880  0.00  0.00    +0.000 C 
ATOM      8  O   UNL     1      -6.966   5.531 132.791  0.00  0.00    +0.000 OA
ATOM      9  C   UNL     1      -5.157   4.739 134.022  0.00  0.00    +0.000 C 
ATOM     10  C   UNL     1      -5.418   3.322 134.431  0.00  0.00    +0.000 C 
ATOM     11  S   UNL     1      -6.233   2.960 132.829  0.00  0.00    +0.000 S 
ATOM     12  S   UNL     1      -7.168   1.201 132.968  0.00  0.00    +0.000 S 
ATOM     13  C   UNL     1      -6.708  -0.004 131.256  0.00  0.00    +0.000 C 
ATOM     14  C   UNL     1      -6.824  -1.461 131.437  0.00  0.00    +0.000 C 
ATOM     15  N   UNL     1      -5.555  -2.061 131.938  0.00  0.00    +0.000 N 
ATOM     16  C   UNL     1      -4.948  -1.842 133.116  0.00  0.00    +0.000 C 
ATOM     17  O   UNL     1      -3.949  -2.479 133.393  0.00  0.00    +0.000 OA
ATOM     18  C   UNL     1      -5.580  -0.810 133.992  0.00  0.00    +0.000 C 
ATOM     19  N   UNL     1      -6.182  -1.342 135.074  0.00  0.00    +0.000 N 
ATOM     20  C   UNL     1      -5.199  -1.088 135.852  0.00  0.00    +0.000 C 
ATOM     21  O   UNL     1      -5.798  -0.636 136.850  0.00  0.00    +0.000 OA
ATOM     22  C   UNL     1      -3.378  -1.753 135.688  0.00  0.00    +0.000 C 
ATOM     23  N   UNL     1      -2.327  -1.005 136.724  0.00  0.00    +0.000 N 
ATOM     24  C   UNL     1      -2.655  -0.309 137.924  0.00  0.00    +0.000 C 
ATOM     25  O   UNL     1      -2.227  -0.732 139.013  0.00  0.00    +0.000 OA
ATOM     26  H   UNL     1      -4.427   4.101 137.957  0.00  0.00    +0.000 HD
ATOM     27  H   UNL     1      -7.681   6.967 134.620  0.00  0.00    +0.000 HD
ATOM     28  H   UNL     1      -5.078  -2.766 131.371  0.00  0.00    +0.000 HD
ATOM     29  H   UNL     1      -7.095  -1.265 135.590  0.00  0.00    +0.000 HD
ATOM     30  H   UNL     1      -2.092  -0.166 136.293  0.00  0.00    +0.000 HD
ENDROOT
BRANCH  14  31
ATOM     31  C   UNL     1      -7.168  -1.977 130.050  0.00  0.00    +0.000 C 
ATOM     32  O   UNL     1      -7.906  -2.960 130.080  0.00  0.00    +0.000 OA
ATOM     33  N   UNL     1      -6.707  -1.225 128.938  0.00  0.00    +0.000 N 
ATOM     34  C   UNL     1      -5.359  -0.749 128.699  0.00  0.00    +0.000 C 
ATOM     35  C   UNL     1      -5.554   0.555 127.996  0.00  0.00    +0.000 C 
ATOM     36  C   UNL     1      -6.595   0.187 126.983  0.00  0.00    +0.000 C 
ATOM     37  C   UNL     1      -7.421  -0.910 127.651  0.00  0.00    +0.000 C 
BRANCH  37  38
ATOM     38  C   UNL     1      -7.205  -1.975 126.528  0.00  0.00    +0.000 C 
ATOM     39  O   UNL     1      -8.019  -2.908 126.453  0.00  0.00    +0.000 OA
ATOM     40  N   UNL     1      -6.333  -1.598 125.456  0.00  0.00    +0.000 N 
ATOM     41  H   UNL     1      -5.610  -0.887 125.556  0.00  0.00    +0.000 HD
BRANCH  40  42
ATOM     42  C   UNL     1      -6.448  -2.194 124.075  0.00  0.00    +0.000 C 
BRANCH  42  43
ATOM     43  C   UNL     1      -7.848  -1.869 123.463  0.00  0.00    +0.000 C 
ATOM     44  O   UNL     1      -8.572  -2.786 123.075  0.00  0.00    +0.000 OA
ATOM     45  N   UNL     1      -8.240  -0.544 123.374  0.00  0.00    +0.000 N 
ATOM     46  H   UNL     1      -7.639   0.195 123.688  0.00  0.00    +0.000 HD
BRANCH  45  47
ATOM     47  C   UNL     1      -9.541  -0.153 122.823  0.00  0.00    +0.000 C 
BRANCH  47  48
ATOM     48  C   UNL     1      -9.921   1.322 123.071  0.00  0.00    +0.000 C 
ATOM     49  N   UNL     1     -10.876   1.586 124.028  0.00  0.00    +0.000 N 
ATOM     50  O   UNL     1      -9.394   2.237 122.440  0.00  0.00    +0.000 OA
ATOM     51  H   UNL     1     -11.355   0.904 124.588  0.00  0.00    +0.000 HD
ATOM     52  H   UNL     1     -11.149   2.544 124.217  0.00  0.00    +0.000 HD
ENDBRANCH  47  48
ENDBRANCH  45  47
ENDBRANCH  42  43
BRANCH  42  53
ATOM     53  C   UNL     1      -6.231  -3.725 124.015  0.00  0.00    +0.000 C 
BRANCH  53  54
ATOM     54  C   UNL     1      -4.773  -4.138 124.121  0.00  0.00    +0.000 C 
ATOM     55  C   UNL     1      -4.499  -5.359 123.328  0.00  0.00    +0.000 C 
ATOM     56  C   UNL     1      -3.829  -3.280 123.375  0.00  0.00    +0.000 C 
ENDBRANCH  53  54
ENDBRANCH  42  53
ENDBRANCH  40  42
ENDBRANCH  37  38
ENDBRANCH  14  31
BRANCH   9  57
ATOM     57  N   UNL     1      -4.618   5.188 135.161  0.00  0.00    +0.000 NA
ATOM     58  C   UNL     1      -3.531   6.396 135.064  0.00  0.00    +0.000 C 
ATOM     59  H   UNL     1      -4.278   4.381 135.817  0.00  0.00    +0.000 HD
ENDBRANCH   9  57
BRANCH   1  60
ATOM     60  C   UNL     1      -4.265  -1.460 138.021  0.00  0.00    +0.000 C 
ATOM     61  C   UNL     1      -4.737  -3.446 138.673  0.00  0.00    +0.000 C 
BRANCH  60  63
ATOM     62  C   UNL     1      -4.465  -3.660 139.162  0.00  0.00    +0.000 C 
ATOM     63  C   UNL     1      -5.201  -2.222 139.357  0.00  0.00    +0.000 C 
ENDBRANCH  60  63
ENDBRANCH   1  60
BRANCH  18  64
ATOM     64  C   UNL     1      -4.605   0.436 134.266  0.00  0.00    +0.000 C 
BRANCH  64  65
ATOM     65  C   UNL     1      -3.518   0.748 133.234  0.00  0.00    +0.000 C 
ATOM     66  N   UNL     1      -2.279   0.889 133.714  0.00  0.00    +0.000 N 
ATOM     67  O   UNL     1      -3.670   0.671 132.029  0.00  0.00    +0.000 OA
ATOM     68  H   UNL     1      -2.473   0.444 134.583  0.00  0.00    +0.000 HD
ATOM     69  H   UNL     1      -1.500   0.282 133.329  0.00  0.00    +0.000 HD
ENDBRANCH  64  65
ENDBRANCH  18  64
BRANCH   5  70
ATOM     70  C   UNL     1      -6.664   5.457 137.375  0.00  0.00    +0.000 C 
BRANCH  70  71
ATOM     71  C   UNL     1      -7.330   6.629 137.986  0.00  0.00    +0.000 A 
ATOM     72  C   UNL     1      -8.597   7.226 137.695  0.00  0.00    +0.000 A 
ATOM     73  C   UNL     1      -8.985   8.370 138.360  0.00  0.00    +0.000 A 
ATOM     74  C   UNL     1      -8.093   8.916 139.261  0.00  0.00    +0.000 A 
ATOM     75  C   UNL     1      -6.811   8.405 139.410  0.00  0.00    +0.000 A 
ATOM     76  C   UNL     1      -6.416   7.286 138.750  0.00  0.00    +0.000 A 
BRANCH  74  77
ATOM     77  O   UNL     1      -8.389   9.971 140.061  0.00  0.00    +0.000 OA
ATOM     78  H   UNL     1      -9.263  10.341 139.865  0.00  0.00    +0.000 HD
ENDBRANCH  74  77
ENDBRANCH  70  71
ENDBRANCH   5  70
BRANCH  22  79
ATOM     79  C   UNL     1      -2.940  -3.312 135.678  0.00  0.00    +0.000 C 
BRANCH  79  80
ATOM     80  C   UNL     1      -1.689  -3.493 136.466  0.00  0.00    +0.000 C 
BRANCH  80  81
ATOM     81  C   UNL     1      -0.628  -4.153 135.617  0.00  0.00    +0.000 C 
ATOM     82  N   UNL     1      -0.308  -3.619 134.385  0.00  0.00    +0.000 N 
ATOM     83  O   UNL     1      -0.066  -5.159 136.039  0.00  0.00    +0.000 OA
ATOM     84  H   UNL     1      -0.735  -2.803 133.965  0.00  0.00    +0.000 HD
ATOM     85  H   UNL     1       0.414  -4.048 133.822  0.00  0.00    +0.000 HD
ENDBRANCH  80  81
ENDBRANCH  79  80
ENDBRANCH  22  79
TORSDOF 19
ENDMDL
MODEL 6
REMARK VINA RESULT:      -8.0      6.083     11.953
REMARK  Name = CHEMBL3814395
REMARK  24 active torsions:
REMARK  status: ('A' for Active; 'I' for Inactive)
REMARK    1  A    between atoms: C_1  and  C_2
REMARK    2  A    between atoms: C_2  and  C_3
REMARK    3  A    between atoms: C_3  and  C_4
REMARK    4  A    between atoms: C_3  and  C_5
REMARK    5  A    between atoms: C_9  and  C_10
REMARK    6  A    between atoms: C_10  and  C_11
REMARK    7  A    between atoms: C_14  and  O_15
REMARK    8  A    between atoms: C_21  and  N_22
REMARK    9  A    between atoms: N_22  and  C_23
REMARK   10  A    between atoms: C_28  and  C_29
REMARK   11  A    between atoms: C_35  and  C_36
REMARK   12  A    between atoms: N_38  and  C_39
REMARK   13  A    between atoms: C_39  and  C_40
REMARK   14  A    between atoms: C_39  and  C_44
REMARK   15  A    between atoms: C_40  and  C_41
REMARK   16  A    between atoms: C_41  and  C_42
REMARK   17  A    between atoms: C_41  and  C_43
REMARK   18  A    between atoms: N_46  and  C_47
REMARK   19  A    between atoms: C_47  and  C_48
REMARK   20  A    between atoms: C_54  and  C_55
REMARK   21  A    between atoms: C_55  and  C_56
REMARK   22  A    between atoms: C_62  and  C_63
REMARK   23  A    between atoms: C_63  and  C_64
REMARK   24  A    between atoms: C_64  and  C_65
REMARK                            x       y       z     vdW  Elec       q    Type
REMARK                         _______ _______ _______ _____ _____    ______ ____
ROOT
ATOM      1  C   UNL     1      -5.016   0.153 132.562  0.00  0.00    +0.000 C 
ATOM      2  N   UNL     1      -5.903   0.478 130.507  0.00  0.00    +0.000 N 
ATOM      3  C   UNL     1      -6.931   0.889 128.916  0.00  0.00    +0.000 C 
ATOM      4  O   UNL     1      -8.271   1.299 129.109  0.00  0.00    +0.000 OA
ATOM      5  C   UNL     1      -6.277   1.624 126.963  0.00  0.00    +0.000 C 
ATOM      6  N   UNL     1      -5.597   3.257 126.523  0.00  0.00    +0.000 N 
ATOM      7  C   UNL     1      -5.719   4.261 127.476  0.00  0.00    +0.000 C 
ATOM      8  O   UNL     1      -5.287   5.395 127.315  0.00  0.00    +0.000 OA
ATOM      9  C   UNL     1      -6.357   3.973 128.814  0.00  0.00    +0.000 C 
ATOM     10  C   UNL     1      -5.383   3.539 129.866  0.00  0.00    +0.000 C 
ATOM     11  S   UNL     1      -4.598   5.196 129.890  0.00  0.00    +0.000 S 
ATOM     12  S   UNL     1      -2.888   5.081 130.916  0.00  0.00    +0.000 S 
ATOM     13  C   UNL     1      -2.772   6.697 132.319  0.00  0.00    +0.000 C 
ATOM     14  C   UNL     1      -1.916   6.475 133.497  0.00  0.00    +0.000 C 
ATOM     15  N   UNL     1      -2.666   5.837 134.615  0.00  0.00    +0.000 N 
ATOM     16  C   UNL     1      -3.226   4.616 134.642  0.00  0.00    +0.000 C 
ATOM     17  O   UNL     1      -3.740   4.224 135.673  0.00  0.00    +0.000 OA
ATOM     18  C   UNL     1      -3.158   3.841 133.367  0.00  0.00    +0.000 C 
ATOM     19  N   UNL     1      -2.304   2.801 133.434  0.00  0.00    +0.000 N 
ATOM     20  C   UNL     1      -3.229   1.944 133.652  0.00  0.00    +0.000 C 
ATOM     21  O   UNL     1      -2.884   1.024 132.882  0.00  0.00    +0.000 OA
ATOM     22  C   UNL     1      -4.459   1.913 135.158  0.00  0.00    +0.000 C 
ATOM     23  N   UNL     1      -5.678   0.813 134.966  0.00  0.00    +0.000 N 
ATOM     24  C   UNL     1      -5.679  -0.326 134.109  0.00  0.00    +0.000 C 
ATOM     25  O   UNL     1      -5.763  -1.465 134.603  0.00  0.00    +0.000 OA
ATOM     26  H   UNL     1      -6.414  -0.034 129.422  0.00  0.00    +0.000 HD
ATOM     27  H   UNL     1      -5.296   3.694 125.575  0.00  0.00    +0.000 HD
ATOM     28  H   UNL     1      -2.750   6.331 135.506  0.00  0.00    +0.000 HD
ATOM     29  H   UNL     1      -1.529   2.375 132.864  0.00  0.00    +0.000 HD
ATOM     30  H   UNL     1      -6.336   1.249 134.399  0.00  0.00    +0.000 HD
ENDROOT
BRANCH  14  31
ATOM     31  C   UNL     1      -1.443   7.869 133.874  0.00  0.00    +0.000 C 
ATOM     32  O   UNL     1      -1.859   8.733 133.105  0.00  0.00    +0.000 OA
ATOM     33  N   UNL     1      -0.705   8.008 135.079  0.00  0.00    +0.000 N 
ATOM     34  C   UNL     1       0.447   7.234 135.496  0.00  0.00    +0.000 C 
ATOM     35  C   UNL     1       0.306   7.145 136.981  0.00  0.00    +0.000 C 
ATOM     36  C   UNL     1      -0.026   8.565 137.327  0.00  0.00    +0.000 C 
ATOM     37  C   UNL     1      -0.788   9.096 136.115  0.00  0.00    +0.000 C 
BRANCH  37  38
ATOM     38  C   UNL     1       0.167  10.303 135.845  0.00  0.00    +0.000 C 
ATOM     39  O   UNL     1       1.344  10.053 135.546  0.00  0.00    +0.000 OA
ATOM     40  N   UNL     1      -0.463  11.564 135.589  0.00  0.00    +0.000 N 
ATOM     41  H   UNL     1      -1.402  11.788 135.915  0.00  0.00    +0.000 HD
BRANCH  40  42
ATOM     42  C   UNL     1       0.200  12.647 134.775  0.00  0.00    +0.000 C 
BRANCH  42  43
ATOM     43  C   UNL     1       0.123  14.012 135.531  0.00  0.00    +0.000 C 
ATOM     44  O   UNL     1      -0.957  14.400 135.979  0.00  0.00    +0.000 OA
ATOM     45  N   UNL     1       1.282  14.754 135.678  0.00  0.00    +0.000 N 
ATOM     46  H   UNL     1       2.155  14.430 135.304  0.00  0.00    +0.000 HD
BRANCH  45  47
ATOM     47  C   UNL     1       1.298  16.040 136.382  0.00  0.00    +0.000 C 
BRANCH  47  48
ATOM     48  C   UNL     1       1.961  15.995 137.776  0.00  0.00    +0.000 C 
ATOM     49  N   UNL     1       1.325  15.278 138.765  0.00  0.00    +0.000 N 
ATOM     50  O   UNL     1       3.021  16.576 138.003  0.00  0.00    +0.000 OA
ATOM     51  H   UNL     1       0.462  14.775 138.668  0.00  0.00    +0.000 HD
ATOM     52  H   UNL     1       1.733  15.227 139.692  0.00  0.00    +0.000 HD
ENDBRANCH  47  48
ENDBRANCH  45  47
ENDBRANCH  42  43
BRANCH  42  53
ATOM     53  C   UNL     1      -0.389  12.838 133.357  0.00  0.00    +0.000 C 
BRANCH  53  54
ATOM     54  C   UNL     1       0.329  12.034 132.286  0.00  0.00    +0.000 C 
ATOM     55  C   UNL     1       0.618  12.862 131.092  0.00  0.00    +0.000 C 
ATOM     56  C   UNL     1       1.745  11.730 132.583  0.00  0.00    +0.000 C 
ENDBRANCH  53  54
ENDBRANCH  42  53
ENDBRANCH  40  42
ENDBRANCH  37  38
ENDBRANCH  14  31
BRANCH   9  57
ATOM     57  N   UNL     1      -6.978   2.806 128.613  0.00  0.00    +0.000 NA
ATOM     58  C   UNL     1      -8.535   2.845 128.135  0.00  0.00    +0.000 C 
ATOM     59  H   UNL     1      -6.815   2.091 129.425  0.00  0.00    +0.000 HD
ENDBRANCH   9  57
BRANCH   1  60
ATOM     60  C   UNL     1      -3.705  -0.314 134.274  0.00  0.00    +0.000 C 
ATOM     61  C   UNL     1      -2.268  -1.019 135.698  0.00  0.00    +0.000 C 
BRANCH  60  63
ATOM     62  C   UNL     1      -2.358  -1.482 136.007  0.00  0.00    +0.000 C 
ATOM     63  C   UNL     1      -2.530  -1.673 134.400  0.00  0.00    +0.000 C 
ENDBRANCH  60  63
ENDBRANCH   1  60
BRANCH  18  64
ATOM     64  C   UNL     1      -4.614   3.522 132.769  0.00  0.00    +0.000 C 
BRANCH  64  65
ATOM     65  C   UNL     1      -5.778   4.435 133.166  0.00  0.00    +0.000 C 
ATOM     66  N   UNL     1      -6.892   3.820 133.570  0.00  0.00    +0.000 N 
ATOM     67  O   UNL     1      -5.684   5.638 133.330  0.00  0.00    +0.000 OA
ATOM     68  H   UNL     1      -6.450   2.945 133.740  0.00  0.00    +0.000 HD
ATOM     69  H   UNL     1      -7.295   4.047 134.524  0.00  0.00    +0.000 HD
ENDBRANCH  64  65
ENDBRANCH  18  64
BRANCH   5  70
ATOM     70  C   UNL     1      -5.226   0.803 127.171  0.00  0.00    +0.000 C 
BRANCH  70  71
ATOM     71  C   UNL     1      -5.632  -0.148 126.111  0.00  0.00    +0.000 A 
ATOM     72  C   UNL     1      -6.382   0.072 124.913  0.00  0.00    +0.000 A 
ATOM     73  C   UNL     1      -6.700  -0.994 124.098  0.00  0.00    +0.000 A 
ATOM     74  C   UNL     1      -6.306  -2.252 124.512  0.00  0.00    +0.000 A 
ATOM     75  C   UNL     1      -5.716  -2.453 125.752  0.00  0.00    +0.000 A 
ATOM     76  C   UNL     1      -5.410  -1.410 126.566  0.00  0.00    +0.000 A 
BRANCH  74  77
ATOM     77  O   UNL     1      -6.455  -3.368 123.756  0.00  0.00    +0.000 OA
ATOM     78  H   UNL     1      -7.334  -3.761 123.856  0.00  0.00    +0.000 HD
ENDBRANCH  74  77
ENDBRANCH  70  71
ENDBRANCH   5  70
BRANCH  22  79
ATOM     79  C   UNL     1      -4.038   1.826 136.720  0.00  0.00    +0.000 C 
BRANCH  79  80
ATOM     80  C   UNL     1      -4.950   0.896 137.440  0.00  0.00    +0.000 C 
BRANCH  80  81
ATOM     81  C   UNL     1      -4.280   0.369 138.688  0.00  0.00    +0.000 C 
ATOM     82  N   UNL     1      -3.530   1.221 139.472  0.00  0.00    +0.000 N 
ATOM     83  O   UNL     1      -4.415  -0.814 138.984  0.00  0.00    +0.000 OA
ATOM     84  H   UNL     1      -3.363   2.202 139.288  0.00  0.00    +0.000 HD
ATOM     85  H   UNL     1      -3.095   0.876 140.317  0.00  0.00    +0.000 HD
ENDBRANCH  80  81
ENDBRANCH  79  80
ENDBRANCH  22  79
TORSDOF 19
ENDMDL
MODEL 7
REMARK VINA RESULT:      -8.0      4.379     13.054
REMARK  Name = CHEMBL3814395
REMARK  24 active torsions:
REMARK  status: ('A' for Active; 'I' for Inactive)
REMARK    1  A    between atoms: C_1  and  C_2
REMARK    2  A    between atoms: C_2  and  C_3
REMARK    3  A    between atoms: C_3  and  C_4
REMARK    4  A    between atoms: C_3  and  C_5
REMARK    5  A    between atoms: C_9  and  C_10
REMARK    6  A    between atoms: C_10  and  C_11
REMARK    7  A    between atoms: C_14  and  O_15
REMARK    8  A    between atoms: C_21  and  N_22
REMARK    9  A    between atoms: N_22  and  C_23
REMARK   10  A    between atoms: C_28  and  C_29
REMARK   11  A    between atoms: C_35  and  C_36
REMARK   12  A    between atoms: N_38  and  C_39
REMARK   13  A    between atoms: C_39  and  C_40
REMARK   14  A    between atoms: C_39  and  C_44
REMARK   15  A    between atoms: C_40  and  C_41
REMARK   16  A    between atoms: C_41  and  C_42
REMARK   17  A    between atoms: C_41  and  C_43
REMARK   18  A    between atoms: N_46  and  C_47
REMARK   19  A    between atoms: C_47  and  C_48
REMARK   20  A    between atoms: C_54  and  C_55
REMARK   21  A    between atoms: C_55  and  C_56
REMARK   22  A    between atoms: C_62  and  C_63
REMARK   23  A    between atoms: C_63  and  C_64
REMARK   24  A    between atoms: C_64  and  C_65
REMARK                            x       y       z     vdW  Elec       q    Type
REMARK                         _______ _______ _______ _____ _____    ______ ____
ROOT
ATOM      1  C   UNL     1      -5.756  -3.089 138.462  0.00  0.00    +0.000 C 
ATOM      2  N   UNL     1      -3.545  -2.793 138.836  0.00  0.00    +0.000 N 
ATOM      3  C   UNL     1      -1.624  -2.874 139.082  0.00  0.00    +0.000 C 
ATOM      4  O   UNL     1      -1.032  -4.158 139.069  0.00  0.00    +0.000 OA
ATOM      5  C   UNL     1      -0.074  -1.414 138.584  0.00  0.00    +0.000 C 
ATOM      6  N   UNL     1       0.508  -0.875 136.943  0.00  0.00    +0.000 N 
ATOM      7  C   UNL     1       0.105  -1.641 135.856  0.00  0.00    +0.000 C 
ATOM      8  O   UNL     1       0.409  -1.378 134.700  0.00  0.00    +0.000 OA
ATOM      9  C   UNL     1      -0.799  -2.835 136.053  0.00  0.00    +0.000 C 
ATOM     10  C   UNL     1      -2.258  -2.511 135.953  0.00  0.00    +0.000 C 
ATOM     11  S   UNL     1      -2.099  -2.134 134.165  0.00  0.00    +0.000 S 
ATOM     12  S   UNL     1      -3.772  -1.233 133.549  0.00  0.00    +0.000 S 
ATOM     13  C   UNL     1      -4.456  -2.137 131.729  0.00  0.00    +0.000 C 
ATOM     14  C   UNL     1      -5.895  -2.011 131.443  0.00  0.00    +0.000 C 
ATOM     15  N   UNL     1      -6.680  -3.125 132.044  0.00  0.00    +0.000 N 
ATOM     16  C   UNL     1      -6.842  -3.411 133.346  0.00  0.00    +0.000 C 
ATOM     17  O   UNL     1      -7.584  -4.322 133.663  0.00  0.00    +0.000 OA
ATOM     18  C   UNL     1      -6.074  -2.556 134.301  0.00  0.00    +0.000 C 
ATOM     19  N   UNL     1      -6.862  -1.713 134.996  0.00  0.00    +0.000 N 
ATOM     20  C   UNL     1      -6.895  -2.462 136.033  0.00  0.00    +0.000 C 
ATOM     21  O   UNL     1      -6.719  -1.621 136.938  0.00  0.00    +0.000 OA
ATOM     22  C   UNL     1      -7.581  -4.280 136.138  0.00  0.00    +0.000 C 
ATOM     23  N   UNL     1      -7.219  -5.018 137.572  0.00  0.00    +0.000 N 
ATOM     24  C   UNL     1      -6.882  -4.383 138.803  0.00  0.00    +0.000 C 
ATOM     25  O   UNL     1      -7.623  -4.532 139.792  0.00  0.00    +0.000 OA
ATOM     26  H   UNL     1      -2.581  -2.563 139.683  0.00  0.00    +0.000 HD
ATOM     27  H   UNL     1       1.293  -0.192 136.632  0.00  0.00    +0.000 HD
ATOM     28  H   UNL     1      -7.216  -3.745 131.433  0.00  0.00    +0.000 HD
ATOM     29  H   UNL     1      -6.889  -0.697 135.270  0.00  0.00    +0.000 HD
ATOM     30  H   UNL     1      -6.306  -5.336 137.478  0.00  0.00    +0.000 HD
ENDROOT
BRANCH  14  31
ATOM     31  C   UNL     1      -5.970  -2.039 129.925  0.00  0.00    +0.000 C 
ATOM     32  O   UNL     1      -5.563  -3.098 129.451  0.00  0.00    +0.000 OA
ATOM     33  N   UNL     1      -6.578  -0.933 129.277  0.00  0.00    +0.000 N 
ATOM     34  C   UNL     1      -6.289   0.473 129.485  0.00  0.00    +0.000 C 
ATOM     35  C   UNL     1      -7.609   1.146 129.293  0.00  0.00    +0.000 C 
ATOM     36  C   UNL     1      -8.097   0.480 128.043  0.00  0.00    +0.000 C 
ATOM     37  C   UNL     1      -7.504  -0.926 128.091  0.00  0.00    +0.000 C 
BRANCH  37  38
ATOM     38  C   UNL     1      -6.771  -0.835 126.714  0.00  0.00    +0.000 C 
ATOM     39  O   UNL     1      -6.303  -1.881 126.239  0.00  0.00    +0.000 OA
ATOM     40  N   UNL     1      -7.024   0.341 125.937  0.00  0.00    +0.000 N 
ATOM     41  H   UNL     1      -7.329   1.221 126.352  0.00  0.00    +0.000 HD
BRANCH  40  42
ATOM     42  C   UNL     1      -6.904   0.358 124.434  0.00  0.00    +0.000 C 
BRANCH  42  43
ATOM     43  C   UNL     1      -6.591   1.805 123.935  0.00  0.00    +0.000 C 
ATOM     44  O   UNL     1      -6.127   2.633 124.719  0.00  0.00    +0.000 OA
ATOM     45  N   UNL     1      -6.846   2.118 122.611  0.00  0.00    +0.000 N 
ATOM     46  H   UNL     1      -7.229   1.435 121.982  0.00  0.00    +0.000 HD
BRANCH  45  47
ATOM     47  C   UNL     1      -6.572   3.448 122.059  0.00  0.00    +0.000 C 
BRANCH  47  48
ATOM     48  C   UNL     1      -7.430   3.818 120.831  0.00  0.00    +0.000 C 
ATOM     49  N   UNL     1      -8.799   3.737 120.957  0.00  0.00    +0.000 N 
ATOM     50  O   UNL     1      -6.916   4.174 119.771  0.00  0.00    +0.000 OA
ATOM     51  H   UNL     1      -9.300   3.457 121.781  0.00  0.00    +0.000 HD
ATOM     52  H   UNL     1      -9.393   3.972 120.170  0.00  0.00    +0.000 HD
ENDBRANCH  47  48
ENDBRANCH  45  47
ENDBRANCH  42  43
BRANCH  42  53
ATOM     53  C   UNL     1      -8.153  -0.161 123.682  0.00  0.00    +0.000 C 
BRANCH  53  54
ATOM     54  C   UNL     1      -7.888  -1.395 122.837  0.00  0.00    +0.000 C 
ATOM     55  C   UNL     1      -6.445  -1.732 122.813  0.00  0.00    +0.000 C 
ATOM     56  C   UNL     1      -8.312  -2.670 123.451  0.00  0.00    +0.000 C 
ENDBRANCH  53  54
ENDBRANCH  42  53
ENDBRANCH  40  42
ENDBRANCH  37  38
ENDBRANCH  14  31
BRANCH   9  57
ATOM     57  N   UNL     1      -0.727  -3.059 137.370  0.00  0.00    +0.000 NA
ATOM     58  C   UNL     1       0.414  -4.091 137.905  0.00  0.00    +0.000 C 
ATOM     59  H   UNL     1      -1.703  -3.256 137.822  0.00  0.00    +0.000 HD
ENDBRANCH   9  57
BRANCH   1  60
ATOM     60  C   UNL     1      -7.925  -2.827 138.158  0.00  0.00    +0.000 C 
ATOM     61  C   UNL     1      -9.991  -2.262 138.084  0.00  0.00    +0.000 C 
BRANCH  60  63
ATOM     62  C   UNL     1     -10.329  -2.193 138.223  0.00  0.00    +0.000 C 
ATOM     63  C   UNL     1      -9.005  -1.661 139.005  0.00  0.00    +0.000 C 
ENDBRANCH  60  63
ENDBRANCH   1  60
BRANCH  18  64
ATOM     64  C   UNL     1      -5.013  -3.403 135.159  0.00  0.00    +0.000 C 
BRANCH  64  65
ATOM     65  C   UNL     1      -4.712  -4.840 134.727  0.00  0.00    +0.000 C 
ATOM     66  N   UNL     1      -3.983  -4.977 133.616  0.00  0.00    +0.000 N 
ATOM     67  O   UNL     1      -4.906  -5.822 135.420  0.00  0.00    +0.000 OA
ATOM     68  H   UNL     1      -3.646  -4.040 133.619  0.00  0.00    +0.000 HD
ATOM     69  H   UNL     1      -3.080  -5.531 133.651  0.00  0.00    +0.000 HD
ENDBRANCH  64  65
ENDBRANCH  18  64
BRANCH   5  70
ATOM     70  C   UNL     1      -0.998  -0.515 138.988  0.00  0.00    +0.000 C 
BRANCH  70  71
ATOM     71  C   UNL     1      -0.024   0.288 139.761  0.00  0.00    +0.000 A 
ATOM     72  C   UNL     1       0.539   1.574 139.480  0.00  0.00    +0.000 A 
ATOM     73  C   UNL     1       1.492   2.103 140.325  0.00  0.00    +0.000 A 
ATOM     74  C   UNL     1       1.892   1.330 141.398  0.00  0.00    +0.000 A 
ATOM     75  C   UNL     1       1.443   0.026 141.558  0.00  0.00    +0.000 A 
ATOM     76  C   UNL     1       0.514  -0.507 140.724  0.00  0.00    +0.000 A 
BRANCH  74  77
ATOM     77  O   UNL     1       2.734   1.772 142.364  0.00  0.00    +0.000 OA
ATOM     78  H   UNL     1       2.830   1.132 143.085  0.00  0.00    +0.000 HD
ENDBRANCH  74  77
ENDBRANCH  70  71
ENDBRANCH   5  70
BRANCH  22  79
ATOM     79  C   UNL     1      -9.092  -4.741 135.781  0.00  0.00    +0.000 C 
BRANCH  79  80
ATOM     80  C   UNL     1      -9.356  -6.094 136.343  0.00  0.00    +0.000 C 
BRANCH  80  81
ATOM     81  C   UNL     1     -10.335  -6.001 137.491  0.00  0.00    +0.000 C 
ATOM     82  N   UNL     1     -11.581  -5.448 137.282  0.00  0.00    +0.000 N 
ATOM     83  O   UNL     1     -10.003  -6.422 138.594  0.00  0.00    +0.000 OA
ATOM     84  H   UNL     1     -11.922  -5.069 136.408  0.00  0.00    +0.000 HD
ATOM     85  H   UNL     1     -12.245  -5.400 138.043  0.00  0.00    +0.000 HD
ENDBRANCH  80  81
ENDBRANCH  79  80
ENDBRANCH  22  79
TORSDOF 19
ENDMDL
MODEL 8
REMARK VINA RESULT:      -7.9      2.401      2.999
REMARK  Name = CHEMBL3814395
REMARK  24 active torsions:
REMARK  status: ('A' for Active; 'I' for Inactive)
REMARK    1  A    between atoms: C_1  and  C_2
REMARK    2  A    between atoms: C_2  and  C_3
REMARK    3  A    between atoms: C_3  and  C_4
REMARK    4  A    between atoms: C_3  and  C_5
REMARK    5  A    between atoms: C_9  and  C_10
REMARK    6  A    between atoms: C_10  and  C_11
REMARK    7  A    between atoms: C_14  and  O_15
REMARK    8  A    between atoms: C_21  and  N_22
REMARK    9  A    between atoms: N_22  and  C_23
REMARK   10  A    between atoms: C_28  and  C_29
REMARK   11  A    between atoms: C_35  and  C_36
REMARK   12  A    between atoms: N_38  and  C_39
REMARK   13  A    between atoms: C_39  and  C_40
REMARK   14  A    between atoms: C_39  and  C_44
REMARK   15  A    between atoms: C_40  and  C_41
REMARK   16  A    between atoms: C_41  and  C_42
REMARK   17  A    between atoms: C_41  and  C_43
REMARK   18  A    between atoms: N_46  and  C_47
REMARK   19  A    between atoms: C_47  and  C_48
REMARK   20  A    between atoms: C_54  and  C_55
REMARK   21  A    between atoms: C_55  and  C_56
REMARK   22  A    between atoms: C_62  and  C_63
REMARK   23  A    between atoms: C_63  and  C_64
REMARK   24  A    between atoms: C_64  and  C_65
REMARK                            x       y       z     vdW  Elec       q    Type
REMARK                         _______ _______ _______ _____ _____    ______ ____
ROOT
ATOM      1  C   UNL     1      -5.727   3.043 129.206  0.00  0.00    +0.000 C 
ATOM      2  N   UNL     1      -6.360   1.956 127.326  0.00  0.00    +0.000 N 
ATOM      3  C   UNL     1      -6.584   0.893 125.721  0.00  0.00    +0.000 C 
ATOM      4  O   UNL     1      -5.423   0.284 125.190  0.00  0.00    +0.000 OA
ATOM      5  C   UNL     1      -8.320  -0.223 124.998  0.00  0.00    +0.000 C 
ATOM      6  N   UNL     1      -9.078  -1.732 125.683  0.00  0.00    +0.000 N 
ATOM      7  C   UNL     1      -8.345  -2.418 126.644  0.00  0.00    +0.000 C 
ATOM      8  O   UNL     1      -8.748  -3.432 127.199  0.00  0.00    +0.000 OA
ATOM      9  C   UNL     1      -7.004  -1.894 127.102  0.00  0.00    +0.000 C 
ATOM     10  C   UNL     1      -7.085  -0.978 128.284  0.00  0.00    +0.000 C 
ATOM     11  S   UNL     1      -7.625  -2.352 129.372  0.00  0.00    +0.000 S 
ATOM     12  S   UNL     1      -8.278  -1.587 131.097  0.00  0.00    +0.000 S 
ATOM     13  C   UNL     1      -7.420  -2.663 132.740  0.00  0.00    +0.000 C 
ATOM     14  C   UNL     1      -7.325  -1.933 134.016  0.00  0.00    +0.000 C 
ATOM     15  N   UNL     1      -6.049  -1.170 134.124  0.00  0.00    +0.000 N 
ATOM     16  C   UNL     1      -5.637  -0.141 133.366  0.00  0.00    +0.000 C 
ATOM     17  O   UNL     1      -4.592   0.416 133.644  0.00  0.00    +0.000 OA
ATOM     18  C   UNL     1      -6.530   0.227 132.226  0.00  0.00    +0.000 C 
ATOM     19  N   UNL     1      -7.170   1.396 132.420  0.00  0.00    +0.000 N 
ATOM     20  C   UNL     1      -6.345   2.065 131.706  0.00  0.00    +0.000 C 
ATOM     21  O   UNL     1      -7.129   2.772 131.040  0.00  0.00    +0.000 OA
ATOM     22  C   UNL     1      -4.435   2.272 132.014  0.00  0.00    +0.000 C 
ATOM     23  N   UNL     1      -3.656   2.987 130.743  0.00  0.00    +0.000 N 
ATOM     24  C   UNL     1      -4.238   3.800 129.727  0.00  0.00    +0.000 C 
ATOM     25  O   UNL     1      -3.887   4.989 129.619  0.00  0.00    +0.000 OA
ATOM     26  H   UNL     1      -6.680   2.010 126.064  0.00  0.00    +0.000 HD
ATOM     27  H   UNL     1      -9.906  -2.352 125.352  0.00  0.00    +0.000 HD
ATOM     28  H   UNL     1      -5.399  -1.390 134.882  0.00  0.00    +0.000 HD
ATOM     29  H   UNL     1      -8.141   1.791 132.336  0.00  0.00    +0.000 HD
ATOM     30  H   UNL     1      -3.505   2.276 130.098  0.00  0.00    +0.000 HD
ENDROOT
BRANCH  14  31
ATOM     31  C   UNL     1      -7.406  -3.025 135.070  0.00  0.00    +0.000 C 
ATOM     32  O   UNL     1      -8.441  -2.968 135.730  0.00  0.00    +0.000 OA
ATOM     33  N   UNL     1      -6.373  -3.999 135.086  0.00  0.00    +0.000 N 
ATOM     34  C   UNL     1      -4.943  -3.761 135.084  0.00  0.00    +0.000 C 
ATOM     35  C   UNL     1      -4.388  -4.903 134.295  0.00  0.00    +0.000 C 
ATOM     36  C   UNL     1      -5.130  -6.058 134.894  0.00  0.00    +0.000 C 
ATOM     37  C   UNL     1      -6.480  -5.482 135.314  0.00  0.00    +0.000 C 
BRANCH  37  38
ATOM     38  C   UNL     1      -6.371  -5.903 136.815  0.00  0.00    +0.000 C 
ATOM     39  O   UNL     1      -5.311  -6.424 137.193  0.00  0.00    +0.000 OA
ATOM     40  N   UNL     1      -7.328  -5.321 137.708  0.00  0.00    +0.000 N 
ATOM     41  H   UNL     1      -8.233  -4.972 137.395  0.00  0.00    +0.000 HD
BRANCH  40  42
ATOM     42  C   UNL     1      -7.051  -5.135 139.179  0.00  0.00    +0.000 C 
BRANCH  42  43
ATOM     43  C   UNL     1      -8.379  -4.826 139.941  0.00  0.00    +0.000 C 
ATOM     44  O   UNL     1      -8.412  -4.915 141.169  0.00  0.00    +0.000 OA
ATOM     45  N   UNL     1      -9.493  -4.456 139.207  0.00  0.00    +0.000 N 
ATOM     46  H   UNL     1      -9.455  -4.393 138.206  0.00  0.00    +0.000 HD
BRANCH  45  47
ATOM     47  C   UNL     1     -10.775  -4.139 139.845  0.00  0.00    +0.000 C 
BRANCH  47  48
ATOM     48  C   UNL     1     -11.490  -2.903 139.257  0.00  0.00    +0.000 C 
ATOM     49  N   UNL     1     -11.769  -2.905 137.909  0.00  0.00    +0.000 N 
ATOM     50  O   UNL     1     -11.802  -1.945 139.963  0.00  0.00    +0.000 OA
ATOM     51  H   UNL     1     -11.551  -3.641 137.262  0.00  0.00    +0.000 HD
ATOM     52  H   UNL     1     -12.238  -2.109 137.490  0.00  0.00    +0.000 HD
ENDBRANCH  47  48
ENDBRANCH  45  47
ENDBRANCH  42  43
BRANCH  42  53
ATOM     53  C   UNL     1      -6.028  -4.021 139.506  0.00  0.00    +0.000 C 
BRANCH  53  54
ATOM     54  C   UNL     1      -6.213  -2.762 138.677  0.00  0.00    +0.000 C 
ATOM     55  C   UNL     1      -6.701  -1.636 139.506  0.00  0.00    +0.000 C 
ATOM     56  C   UNL     1      -4.957  -2.095 138.273  0.00  0.00    +0.000 C 
ENDBRANCH  53  54
ENDBRANCH  42  53
ENDBRANCH  40  42
ENDBRANCH  37  38
ENDBRANCH  14  31
BRANCH   9  57
ATOM     57  N   UNL     1      -6.690  -0.995 126.164  0.00  0.00    +0.000 NA
ATOM     58  C   UNL     1      -5.831  -1.504 124.877  0.00  0.00    +0.000 C 
ATOM     59  H   UNL     1      -6.292  -0.065 126.581  0.00  0.00    +0.000 HD
ENDBRANCH   9  57
BRANCH   1  60
ATOM     60  C   UNL     1      -5.642   4.252 131.049  0.00  0.00    +0.000 C 
ATOM     61  C   UNL     1      -5.845   5.629 132.679  0.00  0.00    +0.000 C 
BRANCH  60  63
ATOM     62  C   UNL     1      -5.722   6.036 132.779  0.00  0.00    +0.000 C 
ATOM     63  C   UNL     1      -6.490   5.810 131.363  0.00  0.00    +0.000 C 
ENDBRANCH  60  63
ENDBRANCH   1  60
BRANCH  18  64
ATOM     64  C   UNL     1      -5.808   0.043 130.803  0.00  0.00    +0.000 C 
BRANCH  64  65
ATOM     65  C   UNL     1      -4.658  -0.962 130.696  0.00  0.00    +0.000 C 
ATOM     66  N   UNL     1      -3.602  -0.568 129.980  0.00  0.00    +0.000 N 
ATOM     67  O   UNL     1      -4.561  -1.972 131.369  0.00  0.00    +0.000 OA
ATOM     68  H   UNL     1      -3.838   0.398 130.002  0.00  0.00    +0.000 HD
ATOM     69  H   UNL     1      -2.641  -0.566 130.428  0.00  0.00    +0.000 HD
ENDBRANCH  64  65
ENDBRANCH  18  64
BRANCH   5  70
ATOM     70  C   UNL     1      -9.014   0.825 125.490  0.00  0.00    +0.000 C 
BRANCH  70  71
ATOM     71  C   UNL     1      -8.856   1.635 124.261  0.00  0.00    +0.000 A 
ATOM     72  C   UNL     1      -8.123   2.844 124.040  0.00  0.00    +0.000 A 
ATOM     73  C   UNL     1      -8.177   3.462 122.809  0.00  0.00    +0.000 A 
ATOM     74  C   UNL     1      -8.987   2.894 121.845  0.00  0.00    +0.000 A 
ATOM     75  C   UNL     1      -9.805   1.811 122.135  0.00  0.00    +0.000 A 
ATOM     76  C   UNL     1      -9.768   1.203 123.348  0.00  0.00    +0.000 A 
BRANCH  74  77
ATOM     77  O   UNL     1      -9.045   3.334 120.564  0.00  0.00    +0.000 OA
ATOM     78  H   UNL     1      -8.294   3.022 120.037  0.00  0.00    +0.000 HD
ENDBRANCH  74  77
ENDBRANCH  70  71
ENDBRANCH   5  70
BRANCH  22  79
ATOM     79  C   UNL     1      -3.756   2.896 133.346  0.00  0.00    +0.000 C 
BRANCH  79  80
ATOM     80  C   UNL     1      -2.360   3.320 133.052  0.00  0.00    +0.000 C 
BRANCH  80  81
ATOM     81  C   UNL     1      -2.234   4.821 133.171  0.00  0.00    +0.000 C 
ATOM     82  N   UNL     1      -2.293   5.416 134.415  0.00  0.00    +0.000 N 
ATOM     83  O   UNL     1      -2.081   5.490 132.154  0.00  0.00    +0.000 OA
ATOM     84  H   UNL     1      -2.430   4.935 135.295  0.00  0.00    +0.000 HD
ATOM     85  H   UNL     1      -2.192   6.418 134.500  0.00  0.00    +0.000 HD
ENDBRANCH  80  81
ENDBRANCH  79  80
ENDBRANCH  22  79
TORSDOF 19
ENDMDL
MODEL 9
REMARK VINA RESULT:      -7.9      3.511     11.638
REMARK  Name = CHEMBL3814395
REMARK  24 active torsions:
REMARK  status: ('A' for Active; 'I' for Inactive)
REMARK    1  A    between atoms: C_1  and  C_2
REMARK    2  A    between atoms: C_2  and  C_3
REMARK    3  A    between atoms: C_3  and  C_4
REMARK    4  A    between atoms: C_3  and  C_5
REMARK    5  A    between atoms: C_9  and  C_10
REMARK    6  A    between atoms: C_10  and  C_11
REMARK    7  A    between atoms: C_14  and  O_15
REMARK    8  A    between atoms: C_21  and  N_22
REMARK    9  A    between atoms: N_22  and  C_23
REMARK   10  A    between atoms: C_28  and  C_29
REMARK   11  A    between atoms: C_35  and  C_36
REMARK   12  A    between atoms: N_38  and  C_39
REMARK   13  A    between atoms: C_39  and  C_40
REMARK   14  A    between atoms: C_39  and  C_44
REMARK   15  A    between atoms: C_40  and  C_41
REMARK   16  A    between atoms: C_41  and  C_42
REMARK   17  A    between atoms: C_41  and  C_43
REMARK   18  A    between atoms: N_46  and  C_47
REMARK   19  A    between atoms: C_47  and  C_48
REMARK   20  A    between atoms: C_54  and  C_55
REMARK   21  A    between atoms: C_55  and  C_56
REMARK   22  A    between atoms: C_62  and  C_63
REMARK   23  A    between atoms: C_63  and  C_64
REMARK   24  A    between atoms: C_64  and  C_65
REMARK                            x       y       z     vdW  Elec       q    Type
REMARK                         _______ _______ _______ _____ _____    ______ ____
ROOT
ATOM      1  C   UNL     1      -4.880   0.121 137.574  0.00  0.00    +0.000 C 
ATOM      2  N   UNL     1      -4.577   2.323 137.990  0.00  0.00    +0.000 N 
ATOM      3  C   UNL     1      -3.985   4.145 138.284  0.00  0.00    +0.000 C 
ATOM      4  O   UNL     1      -2.588   4.363 138.335  0.00  0.00    +0.000 OA
ATOM      5  C   UNL     1      -4.943   6.042 137.768  0.00  0.00    +0.000 C 
ATOM      6  N   UNL     1      -5.230   6.770 136.122  0.00  0.00    +0.000 N 
ATOM      7  C   UNL     1      -4.557   6.187 135.056  0.00  0.00    +0.000 C 
ATOM      8  O   UNL     1      -4.677   6.565 133.898  0.00  0.00    +0.000 OA
ATOM      9  C   UNL     1      -3.666   4.987 135.277  0.00  0.00    +0.000 C 
ATOM     10  C   UNL     1      -4.371   3.675 135.130  0.00  0.00    +0.000 C 
ATOM     11  S   UNL     1      -4.612   3.953 133.333  0.00  0.00    +0.000 S 
ATOM     12  S   UNL     1      -5.908   2.599 132.643  0.00  0.00    +0.000 S 
ATOM     13  C   UNL     1      -5.147   1.716 130.843  0.00  0.00    +0.000 C 
ATOM     14  C   UNL     1      -5.649   0.370 130.518  0.00  0.00    +0.000 C 
ATOM     15  N   UNL     1      -4.819  -0.698 131.142  0.00  0.00    +0.000 N 
ATOM     16  C   UNL     1      -4.645  -0.948 132.450  0.00  0.00    +0.000 C 
ATOM     17  O   UNL     1      -3.986  -1.915 132.785  0.00  0.00    +0.000 OA
ATOM     18  C   UNL     1      -5.298   0.013 133.390  0.00  0.00    +0.000 C 
ATOM     19  N   UNL     1      -6.354  -0.523 134.033  0.00  0.00    +0.000 N 
ATOM     20  C   UNL     1      -5.688  -0.773 135.097  0.00  0.00    +0.000 C 
ATOM     21  O   UNL     1      -6.488  -0.384 135.973  0.00  0.00    +0.000 OA
ATOM     22  C   UNL     1      -4.133  -1.931 135.255  0.00  0.00    +0.000 C 
ATOM     23  N   UNL     1      -3.387  -1.804 136.725  0.00  0.00    +0.000 N 
ATOM     24  C   UNL     1      -3.959  -1.321 137.938  0.00  0.00    +0.000 C 
ATOM     25  O   UNL     1      -4.061  -2.087 138.914  0.00  0.00    +0.000 OA
ATOM     26  H   UNL     1      -4.571   3.303 138.850  0.00  0.00    +0.000 HD
ATOM     27  H   UNL     1      -5.658   7.716 135.804  0.00  0.00    +0.000 HD
ATOM     28  H   UNL     1      -4.342  -1.375 130.543  0.00  0.00    +0.000 HD
ATOM     29  H   UNL     1      -7.349  -0.274 134.267  0.00  0.00    +0.000 HD
ATOM     30  H   UNL     1      -2.828  -1.011 136.665  0.00  0.00    +0.000 HD
ENDROOT
BRANCH  14  31
ATOM     31  C   UNL     1      -5.576   0.309 129.001  0.00  0.00    +0.000 C 
ATOM     32  O   UNL     1      -4.740   1.081 128.537  0.00  0.00    +0.000 OA
ATOM     33  N   UNL     1      -6.368  -0.668 128.345  0.00  0.00    +0.000 N 
ATOM     34  C   UNL     1      -7.783  -0.924 128.535  0.00  0.00    +0.000 C 
ATOM     35  C   UNL     1      -7.912  -2.400 128.344  0.00  0.00    +0.000 C 
ATOM     36  C   UNL     1      -7.097  -2.606 127.104  0.00  0.00    +0.000 C 
ATOM     37  C   UNL     1      -6.015  -1.532 127.164  0.00  0.00    +0.000 C 
BRANCH  37  38
ATOM     38  C   UNL     1      -6.355  -0.887 125.782  0.00  0.00    +0.000 C 
ATOM     39  O   UNL     1      -7.246  -1.418 125.101  0.00  0.00    +0.000 OA
ATOM     40  N   UNL     1      -5.899   0.456 125.579  0.00  0.00    +0.000 N 
ATOM     41  H   UNL     1      -5.110   0.853 126.087  0.00  0.00    +0.000 HD
BRANCH  40  42
ATOM     42  C   UNL     1      -6.583   1.405 124.627  0.00  0.00    +0.000 C 
BRANCH  42  43
ATOM     43  C   UNL     1      -5.910   2.813 124.696  0.00  0.00    +0.000 C 
ATOM     44  O   UNL     1      -6.086   3.619 123.782  0.00  0.00    +0.000 OA
ATOM     45  N   UNL     1      -5.126   3.119 125.796  0.00  0.00    +0.000 N 
ATOM     46  H   UNL     1      -4.985   2.452 126.532  0.00  0.00    +0.000 HD
BRANCH  45  47
ATOM     47  C   UNL     1      -4.467   4.421 125.944  0.00  0.00    +0.000 C 
BRANCH  47  48
ATOM     48  C   UNL     1      -4.608   5.050 127.346  0.00  0.00    +0.000 C 
ATOM     49  N   UNL     1      -5.088   4.253 128.361  0.00  0.00    +0.000 N 
ATOM     50  O   UNL     1      -4.304   6.223 127.558  0.00  0.00    +0.000 OA
ATOM     51  H   UNL     1      -5.358   3.290 128.278  0.00  0.00    +0.000 HD
ATOM     52  H   UNL     1      -5.193   4.634 129.296  0.00  0.00    +0.000 HD
ENDBRANCH  47  48
ENDBRANCH  45  47
ENDBRANCH  42  43
BRANCH  42  53
ATOM     53  C   UNL     1      -8.102   1.576 124.869  0.00  0.00    +0.000 C 
BRANCH  53  54
ATOM     54  C   UNL     1      -8.949   1.304 123.638  0.00  0.00    +0.000 C 
ATOM     55  C   UNL     1     -10.394   1.335 123.959  0.00  0.00    +0.000 C 
ATOM     56  C   UNL     1      -9.005   2.414 122.665  0.00  0.00    +0.000 C 
ENDBRANCH  53  54
ENDBRANCH  42  53
ENDBRANCH  40  42
ENDBRANCH  37  38
ENDBRANCH  14  31
BRANCH   9  57
ATOM     57  N   UNL     1      -3.487   4.979 136.603  0.00  0.00    +0.000 NA
ATOM     58  C   UNL     1      -2.351   5.966 137.224  0.00  0.00    +0.000 C 
ATOM     59  H   UNL     1      -3.425   3.968 137.018  0.00  0.00    +0.000 HD
ENDBRANCH   9  57
BRANCH   1  60
ATOM     60  C   UNL     1      -5.711  -1.890 137.209  0.00  0.00    +0.000 C 
ATOM     61  C   UNL     1      -6.817  -3.720 137.061  0.00  0.00    +0.000 C 
BRANCH  60  63
ATOM     62  C   UNL     1      -7.156  -3.900 136.977  0.00  0.00    +0.000 C 
ATOM     63  C   UNL     1      -7.172  -2.614 137.974  0.00  0.00    +0.000 C 
ENDBRANCH  60  63
ENDBRANCH   1  60
BRANCH  18  64
ATOM     64  C   UNL     1      -4.232   0.790 134.305  0.00  0.00    +0.000 C 
BRANCH  64  65
ATOM     65  C   UNL     1      -2.797   0.931 133.789  0.00  0.00    +0.000 C 
ATOM     66  N   UNL     1      -1.982  -0.096 134.042  0.00  0.00    +0.000 N 
ATOM     67  O   UNL     1      -2.426   1.792 133.012  0.00  0.00    +0.000 OA
ATOM     68  H   UNL     1      -2.714  -0.738 134.246  0.00  0.00    +0.000 HD
ATOM     69  H   UNL     1      -1.489  -0.579 133.237  0.00  0.00    +0.000 HD
ENDBRANCH  64  65
ENDBRANCH  18  64
BRANCH   5  70
ATOM     70  C   UNL     1      -6.076   5.394 138.115  0.00  0.00    +0.000 C 
BRANCH  70  71
ATOM     71  C   UNL     1      -6.797   6.638 138.468  0.00  0.00    +0.000 A 
ATOM     72  C   UNL     1      -6.507   7.621 139.467  0.00  0.00    +0.000 A 
ATOM     73  C   UNL     1      -7.372   8.678 139.659  0.00  0.00    +0.000 A 
ATOM     74  C   UNL     1      -8.519   8.711 138.890  0.00  0.00    +0.000 A 
ATOM     75  C   UNL     1      -8.850   7.665 138.040  0.00  0.00    +0.000 A 
ATOM     76  C   UNL     1      -8.011   6.614 137.854  0.00  0.00    +0.000 A 
BRANCH  74  77
ATOM     77  O   UNL     1      -9.394   9.747 138.898  0.00  0.00    +0.000 OA
ATOM     78  H   UNL     1      -9.848   9.847 138.048  0.00  0.00    +0.000 HD
ENDBRANCH  74  77
ENDBRANCH  70  71
ENDBRANCH   5  70
BRANCH  22  79
ATOM     79  C   UNL     1      -4.087  -3.507 134.880  0.00  0.00    +0.000 C 
BRANCH  79  80
ATOM     80  C   UNL     1      -2.918  -4.151 135.538  0.00  0.00    +0.000 C 
BRANCH  80  81
ATOM     81  C   UNL     1      -1.824  -4.404 134.526  0.00  0.00    +0.000 C 
ATOM     82  N   UNL     1      -1.924  -5.477 133.665  0.00  0.00    +0.000 N 
ATOM     83  O   UNL     1      -0.859  -3.647 134.489  0.00  0.00    +0.000 OA
ATOM     84  H   UNL     1      -2.679  -6.151 133.644  0.00  0.00    +0.000 HD
ATOM     85  H   UNL     1      -1.202  -5.639 132.976  0.00  0.00    +0.000 HD
ENDBRANCH  80  81
ENDBRANCH  79  80
ENDBRANCH  22  79
TORSDOF 19
ENDMDL
