MODEL 1
REMARK VINA RESULT:      -8.5      0.000      0.000
REMARK  Name = CHEMBL438609
REMARK  8 active torsions:
REMARK  status: ('A' for Active; 'I' for Inactive)
REMARK    1  A    between atoms: CD1_1  and  CG_2
REMARK    2  A    between atoms: CG_2  and  CD2_3
REMARK    3  A    between atoms: CG_2  and  CB_4
REMARK    4  A    between atoms: CB_4  and  CA_5
REMARK    5  A    between atoms: C_9  and  C_10
REMARK    6  A    between atoms: N_21  and  C_22
REMARK    7  A    between atoms: C_22  and  C_23
REMARK    8  A    between atoms: C_22  and  C_26
REMARK                            x       y       z     vdW  Elec       q    Type
REMARK                         _______ _______ _______ _____ _____    ______ ____
ROOT
ATOM      1  CA  LEU A   2      -7.892   2.274 125.759  0.00  0.00    +0.000 C 
ATOM      2  C   LEU A   2      -7.362   3.532 126.476  0.00  0.00    +0.000 C 
ATOM      3  O   LEU A   2      -6.862   4.514 125.970  0.00  0.00    +0.000 OA
ATOM      4  N   UNK A   1      -7.610   3.521 127.812  0.00  0.00    +0.000 N 
ATOM      5  C   UNK A   1      -8.368   2.484 128.468  0.00  0.00    +0.000 C 
ATOM      6  C   UNK A   1      -7.934   1.121 127.938  0.00  0.00    +0.000 C 
ATOM      7  O   UNK A   1      -8.028   0.176 128.708  0.00  0.00    +0.000 OA
ATOM      8  N   LEU A   2      -7.499   1.072 126.600  0.00  0.00    +0.000 N 
ATOM      9  H   UNK A   1      -7.313   4.365 128.283  0.00  0.00    +0.000 HD
ENDROOT
BRANCH   5  10
ATOM     10  C   UNK A   1      -8.108   2.434 130.000  0.00  0.00    +0.000 C 
ATOM     11  C   UNK A   1      -9.390   2.702 130.792  0.00  0.00    +0.000 C 
ATOM     12  C   UNK A   1      -9.326   4.192 130.934  0.00  0.00    +0.000 A 
ATOM     13  C   UNK A   1     -10.381   5.064 131.107  0.00  0.00    +0.000 A 
ATOM     14  C   UNK A   1     -10.115   6.433 131.070  0.00  0.00    +0.000 A 
ATOM     15  C   UNK A   1      -8.811   6.909 130.855  0.00  0.00    +0.000 A 
ATOM     16  C   UNK A   1      -7.749   6.024 130.670  0.00  0.00    +0.000 A 
ATOM     17  C   UNK A   1      -8.022   4.668 130.720  0.00  0.00    +0.000 A 
ATOM     18  C   UNK A   1      -7.090   3.531 130.434  0.00  0.00    +0.000 C 
ENDBRANCH   5  10
BRANCH   1  19
ATOM     19  CB  LEU A   2      -7.400   2.356 124.335  0.00  0.00    +0.000 C 
BRANCH  19  21
ATOM     20  CD1 LEU A   2      -9.736   1.705 123.835  0.00  0.00    +0.000 C 
ATOM     21  CG  LEU A   2      -8.369   1.998 123.219  0.00  0.00    +0.000 C 
ATOM     22  CD2 LEU A   2      -8.564   3.065 122.159  0.00  0.00    +0.000 C 
ENDBRANCH  19  21
ENDBRANCH   1  19
BRANCH   8  23
ATOM     23  C   UNK A   0      -6.800  -0.180 126.069  0.00  0.00    +0.000 C 
BRANCH  23  24
ATOM     24  C   UNK A   0      -7.754  -1.162 125.368  0.00  0.00    +0.000 A 
ATOM     25  C   UNK A   0      -8.713  -1.955 126.043  0.00  0.00    +0.000 A 
ATOM     26  C   UNK A   0      -9.418  -2.930 125.325  0.00  0.00    +0.000 A 
ATOM     27  C   UNK A   0      -9.346  -2.942 123.936  0.00  0.00    +0.000 A 
ATOM     28  F   UNK A   0     -10.040  -3.838 123.229  0.00  0.00    +0.000 F 
ATOM     29  C   UNK A   0      -8.474  -2.119 123.265  0.00  0.00    +0.000 A 
ATOM     30  C   UNK A   0      -7.571  -1.418 124.018  0.00  0.00    +0.000 A 
ATOM     31  F   UNK A   0      -6.476  -0.971 123.392  0.00  0.00    +0.000 F 
ENDBRANCH  23  24
BRANCH  23  32
ATOM     32  C   UNK A   0      -5.674  -0.965 127.013  0.00  0.00    +0.000 C 
ATOM     33  N   UNK A   0      -4.927  -0.357 127.965  0.00  0.00    +0.000 N 
ATOM     34  O   UNK A   0      -5.391  -2.162 127.037  0.00  0.00    +0.000 OA
ATOM     35  H   UNK A   0      -4.772   0.633 127.968  0.00  0.00    +0.000 HD
ATOM     36  H   UNK A   0      -4.053  -0.877 128.025  0.00  0.00    +0.000 HD
ENDBRANCH  23  32
ENDBRANCH   8  23
TORSDOF 6
ENDMDL
MODEL 2
REMARK VINA RESULT:      -8.2      4.910      7.564
REMARK  Name = CHEMBL438609
REMARK  8 active torsions:
REMARK  status: ('A' for Active; 'I' for Inactive)
REMARK    1  A    between atoms: CD1_1  and  CG_2
REMARK    2  A    between atoms: CG_2  and  CD2_3
REMARK    3  A    between atoms: CG_2  and  CB_4
REMARK    4  A    between atoms: CB_4  and  CA_5
REMARK    5  A    between atoms: C_9  and  C_10
REMARK    6  A    between atoms: N_21  and  C_22
REMARK    7  A    between atoms: C_22  and  C_23
REMARK    8  A    between atoms: C_22  and  C_26
REMARK                            x       y       z     vdW  Elec       q    Type
REMARK                         _______ _______ _______ _____ _____    ______ ____
ROOT
ATOM      1  CA  LEU A   2      -8.049   3.621 130.293  0.00  0.00    +0.000 C 
ATOM      2  C   LEU A   2      -8.421   4.336 128.978  0.00  0.00    +0.000 C 
ATOM      3  O   LEU A   2      -8.125   4.005 127.849  0.00  0.00    +0.000 OA
ATOM      4  N   UNK A   1      -9.262   5.386 129.169  0.00  0.00    +0.000 N 
ATOM      5  C   UNK A   1      -9.817   5.733 130.454  0.00  0.00    +0.000 C 
ATOM      6  C   UNK A   1      -8.728   5.649 131.519  0.00  0.00    +0.000 C 
ATOM      7  O   UNK A   1      -8.841   6.397 132.480  0.00  0.00    +0.000 OA
ATOM      8  N   LEU A   2      -7.715   4.693 131.315  0.00  0.00    +0.000 N 
ATOM      9  H   UNK A   1      -9.553   5.829 128.307  0.00  0.00    +0.000 HD
ENDROOT
BRANCH   5  10
ATOM     10  C   UNK A   1     -10.333   7.199 130.505  0.00  0.00    +0.000 C 
ATOM     11  C   UNK A   1     -11.861   7.248 130.588  0.00  0.00    +0.000 C 
ATOM     12  C   UNK A   1     -12.221   7.281 129.134  0.00  0.00    +0.000 A 
ATOM     13  C   UNK A   1     -13.395   6.850 128.552  0.00  0.00    +0.000 A 
ATOM     14  C   UNK A   1     -13.470   6.835 127.159  0.00  0.00    +0.000 A 
ATOM     15  C   UNK A   1     -12.377   7.237 126.373  0.00  0.00    +0.000 A 
ATOM     16  C   UNK A   1     -11.188   7.660 126.967  0.00  0.00    +0.000 A 
ATOM     17  C   UNK A   1     -11.129   7.684 128.349  0.00  0.00    +0.000 A 
ATOM     18  C   UNK A   1      -9.942   7.978 129.213  0.00  0.00    +0.000 C 
ENDBRANCH   5  10
BRANCH   1  19
ATOM     19  CB  LEU A   2      -6.996   2.600 129.940  0.00  0.00    +0.000 C 
BRANCH  19  21
ATOM     20  CD1 LEU A   2      -8.596   0.946 130.856  0.00  0.00    +0.000 C 
ATOM     21  CG  LEU A   2      -7.392   1.132 129.932  0.00  0.00    +0.000 C 
ATOM     22  CD2 LEU A   2      -7.765   0.566 128.576  0.00  0.00    +0.000 C 
ENDBRANCH  19  21
ENDBRANCH   1  19
BRANCH   8  23
ATOM     23  C   UNK A   0      -6.454   4.719 132.179  0.00  0.00    +0.000 C 
BRANCH  23  24
ATOM     24  C   UNK A   0      -5.180   5.069 131.393  0.00  0.00    +0.000 A 
ATOM     25  C   UNK A   0      -4.043   4.230 131.309  0.00  0.00    +0.000 A 
ATOM     26  C   UNK A   0      -2.880   4.718 130.699  0.00  0.00    +0.000 A 
ATOM     27  C   UNK A   0      -2.932   5.908 129.979  0.00  0.00    +0.000 A 
ATOM     28  F   UNK A   0      -1.844   6.371 129.358  0.00  0.00    +0.000 F 
ATOM     29  C   UNK A   0      -4.059   6.692 129.990  0.00  0.00    +0.000 A 
ATOM     30  C   UNK A   0      -5.057   6.343 130.862  0.00  0.00    +0.000 A 
ATOM     31  F   UNK A   0      -5.935   7.297 131.191  0.00  0.00    +0.000 F 
ENDBRANCH  23  24
BRANCH  23  32
ATOM     32  C   UNK A   0      -6.189   3.510 133.295  0.00  0.00    +0.000 C 
ATOM     33  N   UNK A   0      -5.792   3.731 134.571  0.00  0.00    +0.000 N 
ATOM     34  O   UNK A   0      -6.352   2.297 133.168  0.00  0.00    +0.000 OA
ATOM     35  H   UNK A   0      -5.343   4.583 134.849  0.00  0.00    +0.000 HD
ATOM     36  H   UNK A   0      -5.258   2.911 134.855  0.00  0.00    +0.000 HD
ENDBRANCH  23  32
ENDBRANCH   8  23
TORSDOF 6
ENDMDL
MODEL 3
REMARK VINA RESULT:      -8.0      4.240      8.371
REMARK  Name = CHEMBL438609
REMARK  8 active torsions:
REMARK  status: ('A' for Active; 'I' for Inactive)
REMARK    1  A    between atoms: CD1_1  and  CG_2
REMARK    2  A    between atoms: CG_2  and  CD2_3
REMARK    3  A    between atoms: CG_2  and  CB_4
REMARK    4  A    between atoms: CB_4  and  CA_5
REMARK    5  A    between atoms: C_9  and  C_10
REMARK    6  A    between atoms: N_21  and  C_22
REMARK    7  A    between atoms: C_22  and  C_23
REMARK    8  A    between atoms: C_22  and  C_26
REMARK                            x       y       z     vdW  Elec       q    Type
REMARK                         _______ _______ _______ _____ _____    ______ ____
ROOT
ATOM      1  CA  LEU A   2      -7.273   2.104 131.649  0.00  0.00    +0.000 C 
ATOM      2  C   LEU A   2      -6.096   1.111 131.563  0.00  0.00    +0.000 C 
ATOM      3  O   LEU A   2      -5.120   1.061 132.280  0.00  0.00    +0.000 OA
ATOM      4  N   UNK A   1      -6.289   0.146 130.626  0.00  0.00    +0.000 N 
ATOM      5  C   UNK A   1      -7.504   0.016 129.861  0.00  0.00    +0.000 C 
ATOM      6  C   UNK A   1      -7.961   1.393 129.391  0.00  0.00    +0.000 C 
ATOM      7  O   UNK A   1      -8.585   1.437 128.340  0.00  0.00    +0.000 OA
ATOM      8  N   LEU A   2      -7.653   2.482 130.228  0.00  0.00    +0.000 N 
ATOM      9  H   UNK A   1      -5.546  -0.540 130.598  0.00  0.00    +0.000 HD
ENDROOT
BRANCH   5  10
ATOM     10  C   UNK A   1      -7.306  -0.819 128.565  0.00  0.00    +0.000 C 
ATOM     11  C   UNK A   1      -7.831  -2.247 128.737  0.00  0.00    +0.000 C 
ATOM     12  C   UNK A   1      -6.603  -2.938 129.246  0.00  0.00    +0.000 A 
ATOM     13  C   UNK A   1      -6.543  -4.073 130.028  0.00  0.00    +0.000 A 
ATOM     14  C   UNK A   1      -5.298  -4.470 130.516  0.00  0.00    +0.000 A 
ATOM     15  C   UNK A   1      -4.140  -3.729 130.226  0.00  0.00    +0.000 A 
ATOM     16  C   UNK A   1      -4.207  -2.575 129.445  0.00  0.00    +0.000 A 
ATOM     17  C   UNK A   1      -5.445  -2.198 128.955  0.00  0.00    +0.000 A 
ATOM     18  C   UNK A   1      -5.796  -0.950 128.205  0.00  0.00    +0.000 C 
ENDBRANCH   5  10
BRANCH   1  19
ATOM     19  CB  LEU A   2      -6.842   3.194 132.600  0.00  0.00    +0.000 C 
BRANCH  19  21
ATOM     20  CD1 LEU A   2      -7.514   4.930 134.234  0.00  0.00    +0.000 C 
ATOM     21  CG  LEU A   2      -7.717   3.475 133.812  0.00  0.00    +0.000 C 
ATOM     22  CD2 LEU A   2      -9.204   3.262 133.604  0.00  0.00    +0.000 C 
ENDBRANCH  19  21
ENDBRANCH   1  19
BRANCH   8  23
ATOM     23  C   UNK A   0      -7.831   3.913 129.719  0.00  0.00    +0.000 C 
BRANCH  23  24
ATOM     24  C   UNK A   0      -9.060   4.623 130.308  0.00  0.00    +0.000 A 
ATOM     25  C   UNK A   0     -10.392   4.168 130.151  0.00  0.00    +0.000 A 
ATOM     26  C   UNK A   0     -11.446   4.979 130.593  0.00  0.00    +0.000 A 
ATOM     27  C   UNK A   0     -11.170   6.087 131.387  0.00  0.00    +0.000 A 
ATOM     28  F   UNK A   0     -12.162   6.851 131.852  0.00  0.00    +0.000 F 
ATOM     29  C   UNK A   0      -9.877   6.493 131.611  0.00  0.00    +0.000 A 
ATOM     30  C   UNK A   0      -8.892   5.869 130.893  0.00  0.00    +0.000 A 
ATOM     31  F   UNK A   0      -7.727   6.515 130.774  0.00  0.00    +0.000 F 
ENDBRANCH  23  24
BRANCH  23  32
ATOM     32  C   UNK A   0      -7.630   4.247 128.099  0.00  0.00    +0.000 C 
ATOM     33  N   UNK A   0      -6.602   3.779 127.350  0.00  0.00    +0.000 N 
ATOM     34  O   UNK A   0      -8.364   4.891 127.350  0.00  0.00    +0.000 OA
ATOM     35  H   UNK A   0      -5.746   3.461 127.762  0.00  0.00    +0.000 HD
ATOM     36  H   UNK A   0      -6.439   4.469 126.619  0.00  0.00    +0.000 HD
ENDBRANCH  23  32
ENDBRANCH   8  23
TORSDOF 6
ENDMDL
MODEL 4
REMARK VINA RESULT:      -7.8      4.817      7.135
REMARK  Name = CHEMBL438609
REMARK  8 active torsions:
REMARK  status: ('A' for Active; 'I' for Inactive)
REMARK    1  A    between atoms: CD1_1  and  CG_2
REMARK    2  A    between atoms: CG_2  and  CD2_3
REMARK    3  A    between atoms: CG_2  and  CB_4
REMARK    4  A    between atoms: CB_4  and  CA_5
REMARK    5  A    between atoms: C_9  and  C_10
REMARK    6  A    between atoms: N_21  and  C_22
REMARK    7  A    between atoms: C_22  and  C_23
REMARK    8  A    between atoms: C_22  and  C_26
REMARK                            x       y       z     vdW  Elec       q    Type
REMARK                         _______ _______ _______ _____ _____    ______ ____
ROOT
ATOM      1  CA  LEU A   2      -7.182   5.908 131.348  0.00  0.00    +0.000 C 
ATOM      2  C   LEU A   2      -8.409   6.121 132.257  0.00  0.00    +0.000 C 
ATOM      3  O   LEU A   2      -8.416   6.319 133.453  0.00  0.00    +0.000 OA
ATOM      4  N   UNK A   1      -9.574   6.188 131.561  0.00  0.00    +0.000 N 
ATOM      5  C   UNK A   1      -9.640   6.156 130.120  0.00  0.00    +0.000 C 
ATOM      6  C   UNK A   1      -8.700   5.078 129.592  0.00  0.00    +0.000 C 
ATOM      7  O   UNK A   1      -9.013   4.544 128.537  0.00  0.00    +0.000 OA
ATOM      8  N   LEU A   2      -7.540   4.823 130.348  0.00  0.00    +0.000 N 
ATOM      9  H   UNK A   1     -10.379   6.380 132.143  0.00  0.00    +0.000 HD
ENDROOT
BRANCH   5  10
ATOM     10  C   UNK A   1     -11.051   5.767 129.597  0.00  0.00    +0.000 C 
ATOM     11  C   UNK A   1     -11.473   6.656 128.424  0.00  0.00    +0.000 C 
ATOM     12  C   UNK A   1     -12.164   7.770 129.150  0.00  0.00    +0.000 A 
ATOM     13  C   UNK A   1     -12.326   9.073 128.726  0.00  0.00    +0.000 A 
ATOM     14  C   UNK A   1     -12.873   9.992 129.621  0.00  0.00    +0.000 A 
ATOM     15  C   UNK A   1     -13.239   9.604 130.921  0.00  0.00    +0.000 A 
ATOM     16  C   UNK A   1     -13.061   8.288 131.349  0.00  0.00    +0.000 A 
ATOM     17  C   UNK A   1     -12.530   7.381 130.448  0.00  0.00    +0.000 A 
ATOM     18  C   UNK A   1     -12.134   5.959 130.701  0.00  0.00    +0.000 C 
ENDBRANCH   5  10
BRANCH   1  19
ATOM     19  CB  LEU A   2      -6.005   5.690 132.267  0.00  0.00    +0.000 C 
BRANCH  19  21
ATOM     20  CD1 LEU A   2      -4.857   7.259 130.732  0.00  0.00    +0.000 C 
ATOM     21  CG  LEU A   2      -4.647   6.217 131.830  0.00  0.00    +0.000 C 
ATOM     22  CD2 LEU A   2      -3.819   6.866 132.924  0.00  0.00    +0.000 C 
ENDBRANCH  19  21
ENDBRANCH   1  19
BRANCH   8  23
ATOM     23  C   UNK A   0      -6.685   3.592 130.045  0.00  0.00    +0.000 C 
BRANCH  23  24
ATOM     24  C   UNK A   0      -5.505   3.883 129.105  0.00  0.00    +0.000 A 
ATOM     25  C   UNK A   0      -5.645   4.329 127.768  0.00  0.00    +0.000 A 
ATOM     26  C   UNK A   0      -4.508   4.409 126.954  0.00  0.00    +0.000 A 
ATOM     27  C   UNK A   0      -3.246   4.288 127.526  0.00  0.00    +0.000 A 
ATOM     28  F   UNK A   0      -2.148   4.399 126.774  0.00  0.00    +0.000 F 
ATOM     29  C   UNK A   0      -3.098   3.932 128.844  0.00  0.00    +0.000 A 
ATOM     30  C   UNK A   0      -4.226   3.543 129.518  0.00  0.00    +0.000 A 
ATOM     31  F   UNK A   0      -4.049   2.806 130.620  0.00  0.00    +0.000 F 
ENDBRANCH  23  24
BRANCH  23  32
ATOM     32  C   UNK A   0      -7.420   2.137 129.697  0.00  0.00    +0.000 C 
ATOM     33  N   UNK A   0      -8.176   1.440 130.580  0.00  0.00    +0.000 N 
ATOM     34  O   UNK A   0      -7.439   1.521 128.633  0.00  0.00    +0.000 OA
ATOM     35  H   UNK A   0      -8.104   1.581 131.569  0.00  0.00    +0.000 HD
ATOM     36  H   UNK A   0      -8.083   0.458 130.328  0.00  0.00    +0.000 HD
ENDBRANCH  23  32
ENDBRANCH   8  23
TORSDOF 6
ENDMDL
MODEL 5
REMARK VINA RESULT:      -7.6      2.747      4.225
REMARK  Name = CHEMBL438609
REMARK  8 active torsions:
REMARK  status: ('A' for Active; 'I' for Inactive)
REMARK    1  A    between atoms: CD1_1  and  CG_2
REMARK    2  A    between atoms: CG_2  and  CD2_3
REMARK    3  A    between atoms: CG_2  and  CB_4
REMARK    4  A    between atoms: CB_4  and  CA_5
REMARK    5  A    between atoms: C_9  and  C_10
REMARK    6  A    between atoms: N_21  and  C_22
REMARK    7  A    between atoms: C_22  and  C_23
REMARK    8  A    between atoms: C_22  and  C_26
REMARK                            x       y       z     vdW  Elec       q    Type
REMARK                         _______ _______ _______ _____ _____    ______ ____
ROOT
ATOM      1  CA  LEU A   2      -5.345   2.720 128.238  0.00  0.00    +0.000 C 
ATOM      2  C   LEU A   2      -5.373   2.409 129.748  0.00  0.00    +0.000 C 
ATOM      3  O   LEU A   2      -4.428   2.166 130.469  0.00  0.00    +0.000 OA
ATOM      4  N   UNK A   1      -6.611   2.543 130.291  0.00  0.00    +0.000 N 
ATOM      5  C   UNK A   1      -7.755   3.014 129.549  0.00  0.00    +0.000 C 
ATOM      6  C   UNK A   1      -7.782   2.349 128.177  0.00  0.00    +0.000 C 
ATOM      7  O   UNK A   1      -8.881   2.183 127.667  0.00  0.00    +0.000 OA
ATOM      8  N   LEU A   2      -6.537   2.020 127.608  0.00  0.00    +0.000 N 
ATOM      9  H   UNK A   1      -6.630   2.392 131.291  0.00  0.00    +0.000 HD
ENDROOT
BRANCH   5  10
ATOM     10  C   UNK A   1      -9.102   2.629 130.222  0.00  0.00    +0.000 C 
ATOM     11  C   UNK A   1      -9.949   3.869 130.522  0.00  0.00    +0.000 C 
ATOM     12  C   UNK A   1      -9.474   4.206 131.902  0.00  0.00    +0.000 A 
ATOM     13  C   UNK A   1      -9.483   5.443 132.513  0.00  0.00    +0.000 A 
ATOM     14  C   UNK A   1      -8.858   5.568 133.754  0.00  0.00    +0.000 A 
ATOM     15  C   UNK A   1      -8.230   4.467 134.360  0.00  0.00    +0.000 A 
ATOM     16  C   UNK A   1      -8.214   3.220 133.733  0.00  0.00    +0.000 A 
ATOM     17  C   UNK A   1      -8.848   3.105 132.508  0.00  0.00    +0.000 A 
ATOM     18  C   UNK A   1      -8.866   1.922 131.590  0.00  0.00    +0.000 C 
ENDBRANCH   5  10
BRANCH   1  19
ATOM     19  CB  LEU A   2      -3.959   2.370 127.756  0.00  0.00    +0.000 C 
BRANCH  19  21
ATOM     20  CD1 LEU A   2      -2.797   4.496 128.272  0.00  0.00    +0.000 C 
ATOM     21  CG  LEU A   2      -3.101   3.480 127.171  0.00  0.00    +0.000 C 
ATOM     22  CD2 LEU A   2      -1.777   3.036 126.579  0.00  0.00    +0.000 C 
ENDBRANCH  19  21
ENDBRANCH   1  19
BRANCH   8  23
ATOM     23  C   UNK A   0      -6.473   1.120 126.373  0.00  0.00    +0.000 C 
BRANCH  23  24
ATOM     24  C   UNK A   0      -7.146   1.734 125.135  0.00  0.00    +0.000 A 
ATOM     25  C   UNK A   0      -8.304   1.205 124.515  0.00  0.00    +0.000 A 
ATOM     26  C   UNK A   0      -8.737   1.752 123.300  0.00  0.00    +0.000 A 
ATOM     27  C   UNK A   0      -8.179   2.943 122.848  0.00  0.00    +0.000 A 
ATOM     28  F   UNK A   0      -8.604   3.501 121.711  0.00  0.00    +0.000 F 
ATOM     29  C   UNK A   0      -7.103   3.508 123.488  0.00  0.00    +0.000 A 
ATOM     30  C   UNK A   0      -6.504   2.771 124.475  0.00  0.00    +0.000 A 
ATOM     31  F   UNK A   0      -5.247   3.096 124.796  0.00  0.00    +0.000 F 
ENDBRANCH  23  24
BRANCH  23  32
ATOM     32  C   UNK A   0      -6.792  -0.509 126.518  0.00  0.00    +0.000 C 
ATOM     33  N   UNK A   0      -6.054  -1.480 125.928  0.00  0.00    +0.000 N 
ATOM     34  O   UNK A   0      -7.664  -1.066 127.184  0.00  0.00    +0.000 OA
ATOM     35  H   UNK A   0      -5.466  -1.297 125.138  0.00  0.00    +0.000 HD
ATOM     36  H   UNK A   0      -6.686  -2.261 125.758  0.00  0.00    +0.000 HD
ENDBRANCH  23  32
ENDBRANCH   8  23
TORSDOF 6
ENDMDL
MODEL 6
REMARK VINA RESULT:      -7.6      3.737      5.594
REMARK  Name = CHEMBL438609
REMARK  8 active torsions:
REMARK  status: ('A' for Active; 'I' for Inactive)
REMARK    1  A    between atoms: CD1_1  and  CG_2
REMARK    2  A    between atoms: CG_2  and  CD2_3
REMARK    3  A    between atoms: CG_2  and  CB_4
REMARK    4  A    between atoms: CB_4  and  CA_5
REMARK    5  A    between atoms: C_9  and  C_10
REMARK    6  A    between atoms: N_21  and  C_22
REMARK    7  A    between atoms: C_22  and  C_23
REMARK    8  A    between atoms: C_22  and  C_26
REMARK                            x       y       z     vdW  Elec       q    Type
REMARK                         _______ _______ _______ _____ _____    ______ ____
ROOT
ATOM      1  CA  LEU A   2      -7.741   2.746 128.995  0.00  0.00    +0.000 C 
ATOM      2  C   LEU A   2      -7.781   4.162 128.388  0.00  0.00    +0.000 C 
ATOM      3  O   LEU A   2      -7.239   4.545 127.372  0.00  0.00    +0.000 OA
ATOM      4  N   UNK A   1      -8.620   4.998 129.053  0.00  0.00    +0.000 N 
ATOM      5  C   UNK A   1      -9.450   4.575 130.155  0.00  0.00    +0.000 C 
ATOM      6  C   UNK A   1      -8.641   3.684 131.090  0.00  0.00    +0.000 C 
ATOM      7  O   UNK A   1      -8.957   3.697 132.272  0.00  0.00    +0.000 OA
ATOM      8  N   LEU A   2      -7.629   2.901 130.502  0.00  0.00    +0.000 N 
ATOM      9  H   UNK A   1      -8.693   5.914 128.631  0.00  0.00    +0.000 HD
ENDROOT
BRANCH   5  10
ATOM     10  C   UNK A   1      -9.931   5.766 131.030  0.00  0.00    +0.000 C 
ATOM     11  C   UNK A   1     -11.460   5.850 131.064  0.00  0.00    +0.000 C 
ATOM     12  C   UNK A   1     -11.717   6.745 129.890  0.00  0.00    +0.000 A 
ATOM     13  C   UNK A   1     -12.859   6.806 129.117  0.00  0.00    +0.000 A 
ATOM     14  C   UNK A   1     -12.837   7.608 127.976  0.00  0.00    +0.000 A 
ATOM     15  C   UNK A   1     -11.683   8.325 127.619  0.00  0.00    +0.000 A 
ATOM     16  C   UNK A   1     -10.527   8.251 128.397  0.00  0.00    +0.000 A 
ATOM     17  C   UNK A   1     -10.564   7.462 129.534  0.00  0.00    +0.000 A 
ATOM     18  C   UNK A   1      -9.432   7.125 130.455  0.00  0.00    +0.000 C 
ENDBRANCH   5  10
BRANCH   1  19
ATOM     19  CB  LEU A   2      -6.657   1.997 128.260  0.00  0.00    +0.000 C 
BRANCH  19  21
ATOM     20  CD1 LEU A   2      -8.147   0.433 127.049  0.00  0.00    +0.000 C 
ATOM     21  CG  LEU A   2      -6.897   0.534 127.923  0.00  0.00    +0.000 C 
ATOM     22  CD2 LEU A   2      -5.767  -0.159 127.187  0.00  0.00    +0.000 C 
ENDBRANCH  19  21
ENDBRANCH   1  19
BRANCH   8  23
ATOM     23  C   UNK A   0      -6.603   2.189 131.384  0.00  0.00    +0.000 C 
BRANCH  23  24
ATOM     24  C   UNK A   0      -6.906   0.696 131.591  0.00  0.00    +0.000 A 
ATOM     25  C   UNK A   0      -8.114   0.199 132.138  0.00  0.00    +0.000 A 
ATOM     26  C   UNK A   0      -8.219  -1.167 132.429  0.00  0.00    +0.000 A 
ATOM     27  C   UNK A   0      -7.246  -2.044 131.961  0.00  0.00    +0.000 A 
ATOM     28  F   UNK A   0      -7.347  -3.355 132.194  0.00  0.00    +0.000 F 
ATOM     29  C   UNK A   0      -6.104  -1.576 131.357  0.00  0.00    +0.000 A 
ATOM     30  C   UNK A   0      -5.889  -0.224 131.387  0.00  0.00    +0.000 A 
ATOM     31  F   UNK A   0      -4.632   0.194 131.204  0.00  0.00    +0.000 F 
ENDBRANCH  23  24
BRANCH  23  32
ATOM     32  C   UNK A   0      -6.061   2.918 132.780  0.00  0.00    +0.000 C 
ATOM     33  N   UNK A   0      -6.601   2.706 134.005  0.00  0.00    +0.000 N 
ATOM     34  O   UNK A   0      -5.107   3.681 132.929  0.00  0.00    +0.000 OA
ATOM     35  H   UNK A   0      -7.529   2.348 134.122  0.00  0.00    +0.000 HD
ATOM     36  H   UNK A   0      -6.454   3.561 134.538  0.00  0.00    +0.000 HD
ENDBRANCH  23  32
ENDBRANCH   8  23
TORSDOF 6
ENDMDL
MODEL 7
REMARK VINA RESULT:      -7.5      3.801      8.179
REMARK  Name = CHEMBL438609
REMARK  8 active torsions:
REMARK  status: ('A' for Active; 'I' for Inactive)
REMARK    1  A    between atoms: CD1_1  and  CG_2
REMARK    2  A    between atoms: CG_2  and  CD2_3
REMARK    3  A    between atoms: CG_2  and  CB_4
REMARK    4  A    between atoms: CB_4  and  CA_5
REMARK    5  A    between atoms: C_9  and  C_10
REMARK    6  A    between atoms: N_21  and  C_22
REMARK    7  A    between atoms: C_22  and  C_23
REMARK    8  A    between atoms: C_22  and  C_26
REMARK                            x       y       z     vdW  Elec       q    Type
REMARK                         _______ _______ _______ _____ _____    ______ ____
ROOT
ATOM      1  CA  LEU A   2      -4.865   2.930 126.998  0.00  0.00    +0.000 C 
ATOM      2  C   LEU A   2      -5.474   2.711 125.598  0.00  0.00    +0.000 C 
ATOM      3  O   LEU A   2      -5.374   3.434 124.629  0.00  0.00    +0.000 OA
ATOM      4  N   UNK A   1      -6.087   1.505 125.472  0.00  0.00    +0.000 N 
ATOM      5  C   UNK A   1      -6.086   0.504 126.510  0.00  0.00    +0.000 C 
ATOM      6  C   UNK A   1      -6.358   1.166 127.857  0.00  0.00    +0.000 C 
ATOM      7  O   UNK A   1      -6.924   0.484 128.701  0.00  0.00    +0.000 OA
ATOM      8  N   LEU A   2      -5.900   2.487 128.017  0.00  0.00    +0.000 N 
ATOM      9  H   UNK A   1      -6.444   1.331 124.542  0.00  0.00    +0.000 HD
ENDROOT
BRANCH   5  10
ATOM     10  C   UNK A   1      -7.219  -0.545 126.328  0.00  0.00    +0.000 C 
ATOM     11  C   UNK A   1      -6.684  -1.972 126.472  0.00  0.00    +0.000 C 
ATOM     12  C   UNK A   1      -6.315  -2.278 125.052  0.00  0.00    +0.000 A 
ATOM     13  C   UNK A   1      -5.366  -3.175 124.607  0.00  0.00    +0.000 A 
ATOM     14  C   UNK A   1      -5.074  -3.201 123.243  0.00  0.00    +0.000 A 
ATOM     15  C   UNK A   1      -5.723  -2.332 122.350  0.00  0.00    +0.000 A 
ATOM     16  C   UNK A   1      -6.674  -1.418 122.806  0.00  0.00    +0.000 A 
ATOM     17  C   UNK A   1      -6.964  -1.410 124.159  0.00  0.00    +0.000 A 
ATOM     18  C   UNK A   1      -7.845  -0.455 124.904  0.00  0.00    +0.000 C 
ENDBRANCH   5  10
BRANCH   1  19
ATOM     19  CB  LEU A   2      -4.375   4.356 127.032  0.00  0.00    +0.000 C 
BRANCH  19  21
ATOM     20  CD1 LEU A   2      -2.629   5.222 128.561  0.00  0.00    +0.000 C 
ATOM     21  CG  LEU A   2      -2.882   4.598 127.189  0.00  0.00    +0.000 C 
ATOM     22  CD2 LEU A   2      -2.007   3.364 127.079  0.00  0.00    +0.000 C 
ENDBRANCH  19  21
ENDBRANCH   1  19
BRANCH   8  23
ATOM     23  C   UNK A   0      -6.356   3.314 129.220  0.00  0.00    +0.000 C 
BRANCH  23  24
ATOM     24  C   UNK A   0      -5.333   3.340 130.367  0.00  0.00    +0.000 A 
ATOM     25  C   UNK A   0      -4.639   2.199 130.839  0.00  0.00    +0.000 A 
ATOM     26  C   UNK A   0      -3.851   2.309 131.992  0.00  0.00    +0.000 A 
ATOM     27  C   UNK A   0      -3.569   3.568 132.511  0.00  0.00    +0.000 A 
ATOM     28  F   UNK A   0      -2.789   3.698 133.588  0.00  0.00    +0.000 F 
ATOM     29  C   UNK A   0      -4.179   4.693 132.010  0.00  0.00    +0.000 A 
ATOM     30  C   UNK A   0      -5.187   4.506 131.102  0.00  0.00    +0.000 A 
ATOM     31  F   UNK A   0      -6.050   5.516 130.939  0.00  0.00    +0.000 F 
ENDBRANCH  23  24
BRANCH  23  32
ATOM     32  C   UNK A   0      -7.920   3.175 129.777  0.00  0.00    +0.000 C 
ATOM     33  N   UNK A   0      -8.278   2.434 130.853  0.00  0.00    +0.000 N 
ATOM     34  O   UNK A   0      -8.936   3.730 129.361  0.00  0.00    +0.000 OA
ATOM     35  H   UNK A   0      -7.703   1.691 131.202  0.00  0.00    +0.000 HD
ATOM     36  H   UNK A   0      -9.235   2.127 130.688  0.00  0.00    +0.000 HD
ENDBRANCH  23  32
ENDBRANCH   8  23
TORSDOF 6
ENDMDL
MODEL 8
REMARK VINA RESULT:      -7.5      5.292      8.855
REMARK  Name = CHEMBL438609
REMARK  8 active torsions:
REMARK  status: ('A' for Active; 'I' for Inactive)
REMARK    1  A    between atoms: CD1_1  and  CG_2
REMARK    2  A    between atoms: CG_2  and  CD2_3
REMARK    3  A    between atoms: CG_2  and  CB_4
REMARK    4  A    between atoms: CB_4  and  CA_5
REMARK    5  A    between atoms: C_9  and  C_10
REMARK    6  A    between atoms: N_21  and  C_22
REMARK    7  A    between atoms: C_22  and  C_23
REMARK    8  A    between atoms: C_22  and  C_26
REMARK                            x       y       z     vdW  Elec       q    Type
REMARK                         _______ _______ _______ _____ _____    ______ ____
ROOT
ATOM      1  CA  LEU A   2      -4.713   2.949 129.416  0.00  0.00    +0.000 C 
ATOM      2  C   LEU A   2      -5.852   2.171 128.728  0.00  0.00    +0.000 C 
ATOM      3  O   LEU A   2      -6.182   2.223 127.562  0.00  0.00    +0.000 OA
ATOM      4  N   UNK A   1      -6.443   1.265 129.550  0.00  0.00    +0.000 N 
ATOM      5  C   UNK A   1      -5.989   0.999 130.894  0.00  0.00    +0.000 C 
ATOM      6  C   UNK A   1      -5.677   2.317 131.596  0.00  0.00    +0.000 C 
ATOM      7  O   UNK A   1      -5.824   2.341 132.810  0.00  0.00    +0.000 OA
ATOM      8  N   LEU A   2      -5.214   3.372 130.786  0.00  0.00    +0.000 N 
ATOM      9  H   UNK A   1      -7.156   0.712 129.093  0.00  0.00    +0.000 HD
ENDROOT
BRANCH   5  10
ATOM     10  C   UNK A   1      -7.077   0.313 131.766  0.00  0.00    +0.000 C 
ATOM     11  C   UNK A   1      -6.511  -0.903 132.506  0.00  0.00    +0.000 C 
ATOM     12  C   UNK A   1      -6.775  -1.988 131.507  0.00  0.00    +0.000 A 
ATOM     13  C   UNK A   1      -6.091  -3.177 131.362  0.00  0.00    +0.000 A 
ATOM     14  C   UNK A   1      -6.406  -3.986 130.270  0.00  0.00    +0.000 A 
ATOM     15  C   UNK A   1      -7.385  -3.596 129.341  0.00  0.00    +0.000 A 
ATOM     16  C   UNK A   1      -8.065  -2.387 129.486  0.00  0.00    +0.000 A 
ATOM     17  C   UNK A   1      -7.754  -1.598 130.579  0.00  0.00    +0.000 A 
ATOM     18  C   UNK A   1      -8.250  -0.219 130.888  0.00  0.00    +0.000 C 
ENDBRANCH   5  10
BRANCH   1  19
ATOM     19  CB  LEU A   2      -4.276   4.016 128.442  0.00  0.00    +0.000 C 
BRANCH  19  21
ATOM     20  CD1 LEU A   2      -2.235   3.562 127.115  0.00  0.00    +0.000 C 
ATOM     21  CG  LEU A   2      -2.790   4.314 128.324  0.00  0.00    +0.000 C 
ATOM     22  CD2 LEU A   2      -2.432   5.778 128.156  0.00  0.00    +0.000 C 
ENDBRANCH  19  21
ENDBRANCH   1  19
BRANCH   8  23
ATOM     23  C   UNK A   0      -5.133   4.790 131.351  0.00  0.00    +0.000 C 
BRANCH  23  24
ATOM     24  C   UNK A   0      -3.700   5.232 131.690  0.00  0.00    +0.000 A 
ATOM     25  C   UNK A   0      -2.712   4.376 132.235  0.00  0.00    +0.000 A 
ATOM     26  C   UNK A   0      -1.492   4.922 132.653  0.00  0.00    +0.000 A 
ATOM     27  C   UNK A   0      -1.175   6.233 132.310  0.00  0.00    +0.000 A 
ATOM     28  F   UNK A   0      -0.001   6.761 132.665  0.00  0.00    +0.000 F 
ATOM     29  C   UNK A   0      -2.101   7.050 131.709  0.00  0.00    +0.000 A 
ATOM     30  C   UNK A   0      -3.385   6.580 131.616  0.00  0.00    +0.000 A 
ATOM     31  F   UNK A   0      -4.351   7.488 131.442  0.00  0.00    +0.000 F 
ENDBRANCH  23  24
BRANCH  23  32
ATOM     32  C   UNK A   0      -6.231   5.289 132.500  0.00  0.00    +0.000 C 
ATOM     33  N   UNK A   0      -6.009   5.233 133.836  0.00  0.00    +0.000 N 
ATOM     34  O   UNK A   0      -7.335   5.808 132.336  0.00  0.00    +0.000 OA
ATOM     35  H   UNK A   0      -5.320   4.625 134.236  0.00  0.00    +0.000 HD
ATOM     36  H   UNK A   0      -6.920   5.116 134.276  0.00  0.00    +0.000 HD
ENDBRANCH  23  32
ENDBRANCH   8  23
TORSDOF 6
ENDMDL
MODEL 9
REMARK VINA RESULT:      -7.4      8.552     10.854
REMARK  Name = CHEMBL438609
REMARK  8 active torsions:
REMARK  status: ('A' for Active; 'I' for Inactive)
REMARK    1  A    between atoms: CD1_1  and  CG_2
REMARK    2  A    between atoms: CG_2  and  CD2_3
REMARK    3  A    between atoms: CG_2  and  CB_4
REMARK    4  A    between atoms: CB_4  and  CA_5
REMARK    5  A    between atoms: C_9  and  C_10
REMARK    6  A    between atoms: N_21  and  C_22
REMARK    7  A    between atoms: C_22  and  C_23
REMARK    8  A    between atoms: C_22  and  C_26
REMARK                            x       y       z     vdW  Elec       q    Type
REMARK                         _______ _______ _______ _____ _____    ______ ____
ROOT
ATOM      1  CA  LEU A   2      -2.992   7.674 135.313  0.00  0.00    +0.000 C 
ATOM      2  C   LEU A   2      -3.140   7.686 136.848  0.00  0.00    +0.000 C 
ATOM      3  O   LEU A   2      -2.336   8.087 137.663  0.00  0.00    +0.000 OA
ATOM      4  N   UNK A   1      -4.371   7.290 137.262  0.00  0.00    +0.000 N 
ATOM      5  C   UNK A   1      -5.450   6.980 136.356  0.00  0.00    +0.000 C 
ATOM      6  C   UNK A   1      -4.919   6.140 135.199  0.00  0.00    +0.000 C 
ATOM      7  O   UNK A   1      -5.703   5.357 134.683  0.00  0.00    +0.000 OA
ATOM      8  N   LEU A   2      -3.585   6.370 134.811  0.00  0.00    +0.000 N 
ATOM      9  H   UNK A   1      -4.495   7.345 138.265  0.00  0.00    +0.000 HD
ENDROOT
BRANCH   5  10
ATOM     10  C   UNK A   1      -6.558   6.115 137.021  0.00  0.00    +0.000 C 
ATOM     11  C   UNK A   1      -7.938   6.437 136.442  0.00  0.00    +0.000 C 
ATOM     12  C   UNK A   1      -8.382   7.530 137.365  0.00  0.00    +0.000 A 
ATOM     13  C   UNK A   1      -9.283   8.539 137.097  0.00  0.00    +0.000 A 
ATOM     14  C   UNK A   1      -9.446   9.545 138.050  0.00  0.00    +0.000 A 
ATOM     15  C   UNK A   1      -8.708   9.534 139.245  0.00  0.00    +0.000 A 
ATOM     16  C   UNK A   1      -7.789   8.517 139.507  0.00  0.00    +0.000 A 
ATOM     17  C   UNK A   1      -7.644   7.518 138.560  0.00  0.00    +0.000 A 
ATOM     18  C   UNK A   1      -6.650   6.398 138.551  0.00  0.00    +0.000 C 
ENDBRANCH   5  10
BRANCH   1  19
ATOM     19  CB  LEU A   2      -1.542   7.972 135.022  0.00  0.00    +0.000 C 
BRANCH  19  21
ATOM     20  CD1 LEU A   2       0.098   8.775 133.349  0.00  0.00    +0.000 C 
ATOM     21  CG  LEU A   2      -1.222   9.096 134.049  0.00  0.00    +0.000 C 
ATOM     22  CD2 LEU A   2      -2.263   9.341 132.974  0.00  0.00    +0.000 C 
ENDBRANCH  19  21
ENDBRANCH   1  19
BRANCH   8  23
ATOM     23  C   UNK A   0      -2.891   5.402 133.852  0.00  0.00    +0.000 C 
BRANCH  23  24
ATOM     24  C   UNK A   0      -2.875   5.891 132.395  0.00  0.00    +0.000 A 
ATOM     25  C   UNK A   0      -4.036   6.208 131.650  0.00  0.00    +0.000 A 
ATOM     26  C   UNK A   0      -3.914   6.490 130.283  0.00  0.00    +0.000 A 
ATOM     27  C   UNK A   0      -2.651   6.692 129.736  0.00  0.00    +0.000 A 
ATOM     28  F   UNK A   0      -2.514   6.999 128.444  0.00  0.00    +0.000 F 
ATOM     29  C   UNK A   0      -1.516   6.463 130.475  0.00  0.00    +0.000 A 
ATOM     30  C   UNK A   0      -1.675   5.874 131.701  0.00  0.00    +0.000 A 
ATOM     31  F   UNK A   0      -0.603   5.267 132.225  0.00  0.00    +0.000 F 
ENDBRANCH  23  24
BRANCH  23  32
ATOM     32  C   UNK A   0      -3.193   3.767 133.961  0.00  0.00    +0.000 C 
ATOM     33  N   UNK A   0      -3.387   3.108 135.129  0.00  0.00    +0.000 N 
ATOM     34  O   UNK A   0      -3.333   2.948 133.053  0.00  0.00    +0.000 OA
ATOM     35  H   UNK A   0      -3.071   3.476 136.006  0.00  0.00    +0.000 HD
ATOM     36  H   UNK A   0      -3.066   2.153 134.981  0.00  0.00    +0.000 HD
ENDBRANCH  23  32
ENDBRANCH   8  23
TORSDOF 6
ENDMDL
