MODEL 1
REMARK VINA RESULT:     -11.6      0.000      0.000
REMARK  Name = CHEMBL286771
REMARK  6 active torsions:
REMARK  status: ('A' for Active; 'I' for Inactive)
REMARK    1  A    between atoms: C_2  and  C_3
REMARK    2  A    between atoms: C_8  and  C_9
REMARK    3  A    between atoms: C_13  and  C_14
REMARK    4  A    between atoms: C_14  and  N_15
REMARK    5  A    between atoms: C_17  and  C_18
REMARK    6  A    between atoms: C_33  and  N_34
REMARK                            x       y       z     vdW  Elec       q    Type
REMARK                         _______ _______ _______ _____ _____    ______ ____
ROOT
ATOM      1  C   UNL     1      -4.439   4.487 129.717  0.00  0.00    +0.000 A 
ATOM      2  C   UNL     1      -3.504   3.847 128.875  0.00  0.00    +0.000 A 
ATOM      3  C   UNL     1      -3.729   2.552 128.348  0.00  0.00    +0.000 A 
ATOM      4  C   UNL     1      -4.942   1.942 128.678  0.00  0.00    +0.000 A 
ATOM      5  O   UNL     1      -5.357   0.679 128.324  0.00  0.00    +0.000 OA
ATOM      6  C   UNL     1      -6.614   0.515 128.847  0.00  0.00    +0.000 A 
ATOM      7  C   UNL     1      -6.991   1.650 129.530  0.00  0.00    +0.000 A 
ATOM      8  C   UNL     1      -5.916   2.569 129.448  0.00  0.00    +0.000 A 
ATOM      9  C   UNL     1      -5.673   3.864 129.959  0.00  0.00    +0.000 A 
ENDROOT
BRANCH   1  11
ATOM     10  O   UNL     1      -4.881   6.780 129.659  0.00  0.00    +0.000 OA
ATOM     11  C   UNL     1      -4.205   5.900 130.191  0.00  0.00    +0.000 C 
ATOM     12  N   UNL     1      -3.404   6.141 131.338  0.00  0.00    +0.000 N 
ATOM     13  C   UNL     1      -1.941   5.968 131.322  0.00  0.00    +0.000 C 
ATOM     14  C   UNL     1      -1.405   5.741 132.734  0.00  0.00    +0.000 C 
ATOM     15  C   UNL     1      -1.539   7.255 133.702  0.00  0.00    +0.000 C 
ATOM     16  C   UNL     1      -3.267   7.104 133.619  0.00  0.00    +0.000 C 
ATOM     17  C   UNL     1      -3.820   7.252 132.203  0.00  0.00    +0.000 C 
BRANCH  15  18
ATOM     18  N   UNL     1      -0.139   8.473 133.492  0.00  0.00    +0.000 N 
ATOM     19  C   UNL     1      -0.052   8.321 134.912  0.00  0.00    +0.000 C 
ATOM     20  O   UNL     1      -0.043   7.292 135.641  0.00  0.00    +0.000 OA
ATOM     21  O   UNL     1      -0.264   9.425 135.581  0.00  0.00    +0.000 OA
ATOM     22  C   UNL     1       1.059   9.709 135.797  0.00  0.00    +0.000 C 
ATOM     23  C   UNL     1       1.072  10.706 134.745  0.00  0.00    +0.000 A 
ATOM     24  C   UNL     1       1.700  11.981 135.340  0.00  0.00    +0.000 A 
ATOM     25  C   UNL     1       2.064  13.087 134.654  0.00  0.00    +0.000 A 
ATOM     26  C   UNL     1       2.096  12.731 133.330  0.00  0.00    +0.000 A 
ATOM     27  C   UNL     1       1.493  11.280 132.738  0.00  0.00    +0.000 A 
ATOM     28  C   UNL     1       0.618  10.193 133.466  0.00  0.00    +0.000 A 
ENDBRANCH  15  18
ENDBRANCH   1  11
BRANCH   6  29
ATOM     29  C   UNL     1      -7.292  -0.755 128.649  0.00  0.00    +0.000 A 
ATOM     30  C   UNL     1      -7.329  -1.733 129.632  0.00  0.00    +0.000 A 
ATOM     31  N   UNL     1      -7.819  -2.989 129.462  0.00  0.00    +0.000 NA
ATOM     32  C   UNL     1      -8.282  -3.303 128.231  0.00  0.00    +0.000 A 
ATOM     33  C   UNL     1      -8.297  -2.413 127.166  0.00  0.00    +0.000 A 
ATOM     34  C   UNL     1      -7.804  -1.117 127.412  0.00  0.00    +0.000 A 
BRANCH  33  35
ATOM     35  C   UNL     1      -8.784  -2.865 125.806  0.00  0.00    +0.000 C 
BRANCH  35  36
ATOM     36  N   UNL     1      -7.830  -2.575 124.735  0.00  0.00    +0.000 N 
ATOM     37  C   UNL     1      -6.615  -3.239 124.707  0.00  0.00    +0.000 A 
ATOM     38  C   UNL     1      -5.790  -3.150 123.650  0.00  0.00    +0.000 A 
ATOM     39  C   UNL     1      -6.200  -2.357 122.506  0.00  0.00    +0.000 A 
ATOM     40  C   UNL     1      -7.363  -1.696 122.507  0.00  0.00    +0.000 A 
ATOM     41  C   UNL     1      -8.254  -1.746 123.692  0.00  0.00    +0.000 A 
ATOM     42  O   UNL     1      -9.330  -1.155 123.653  0.00  0.00    +0.000 OA
BRANCH  38  43
ATOM     43  C   UNL     1      -4.478  -3.872 123.629  0.00  0.00    +0.000 C 
ATOM     44  F   UNL     1      -4.144  -4.313 124.868  0.00  0.00    +0.000 F 
ATOM     45  F   UNL     1      -4.521  -4.963 122.822  0.00  0.00    +0.000 F 
ATOM     46  F   UNL     1      -3.452  -3.099 123.194  0.00  0.00    +0.000 F 
ENDBRANCH  38  43
ENDBRANCH  35  36
ENDBRANCH  33  35
ENDBRANCH   6  29
TORSDOF 6
ENDMDL
MODEL 2
REMARK VINA RESULT:     -11.0      5.791     14.784
REMARK  Name = CHEMBL286771
REMARK  6 active torsions:
REMARK  status: ('A' for Active; 'I' for Inactive)
REMARK    1  A    between atoms: C_2  and  C_3
REMARK    2  A    between atoms: C_8  and  C_9
REMARK    3  A    between atoms: C_13  and  C_14
REMARK    4  A    between atoms: C_14  and  N_15
REMARK    5  A    between atoms: C_17  and  C_18
REMARK    6  A    between atoms: C_33  and  N_34
REMARK                            x       y       z     vdW  Elec       q    Type
REMARK                         _______ _______ _______ _____ _____    ______ ____
ROOT
ATOM      1  C   UNL     1      -3.342   4.500 130.692  0.00  0.00    +0.000 A 
ATOM      2  C   UNL     1      -2.731   5.386 129.779  0.00  0.00    +0.000 A 
ATOM      3  C   UNL     1      -1.803   6.372 130.193  0.00  0.00    +0.000 A 
ATOM      4  C   UNL     1      -1.495   6.412 131.555  0.00  0.00    +0.000 A 
ATOM      5  O   UNL     1      -0.664   7.305 132.191  0.00  0.00    +0.000 OA
ATOM      6  C   UNL     1      -0.643   6.952 133.516  0.00  0.00    +0.000 A 
ATOM      7  C   UNL     1      -1.453   5.857 133.724  0.00  0.00    +0.000 A 
ATOM      8  C   UNL     1      -2.024   5.512 132.475  0.00  0.00    +0.000 A 
ATOM      9  C   UNL     1      -2.945   4.532 132.038  0.00  0.00    +0.000 A 
ENDROOT
BRANCH   1  11
ATOM     10  O   UNL     1      -4.336   2.397 130.904  0.00  0.00    +0.000 OA
ATOM     11  C   UNL     1      -4.260   3.407 130.205  0.00  0.00    +0.000 C 
ATOM     12  N   UNL     1      -5.139   3.650 129.116  0.00  0.00    +0.000 N 
ATOM     13  C   UNL     1      -4.653   3.778 127.731  0.00  0.00    +0.000 C 
ATOM     14  C   UNL     1      -5.647   4.560 126.876  0.00  0.00    +0.000 C 
ATOM     15  C   UNL     1      -7.139   3.586 126.605  0.00  0.00    +0.000 C 
ATOM     16  C   UNL     1      -7.480   3.717 128.303  0.00  0.00    +0.000 C 
ATOM     17  C   UNL     1      -6.456   3.005 129.184  0.00  0.00    +0.000 C 
BRANCH  15  18
ATOM     18  N   UNL     1      -7.060   2.368 125.192  0.00  0.00    +0.000 N 
ATOM     19  C   UNL     1      -8.384   2.856 124.954  0.00  0.00    +0.000 C 
ATOM     20  O   UNL     1      -8.843   4.030 124.903  0.00  0.00    +0.000 OA
ATOM     21  O   UNL     1      -9.315   1.942 125.048  0.00  0.00    +0.000 OA
ATOM     22  C   UNL     1      -9.436   1.733 123.699  0.00  0.00    +0.000 C 
ATOM     23  C   UNL     1      -8.656   0.514 123.764  0.00  0.00    +0.000 A 
ATOM     24  C   UNL     1      -9.458  -0.576 123.026  0.00  0.00    +0.000 A 
ATOM     25  C   UNL     1      -9.015  -1.810 122.698  0.00  0.00    +0.000 A 
ATOM     26  C   UNL     1      -7.649  -1.781 122.828  0.00  0.00    +0.000 A 
ATOM     27  C   UNL     1      -6.806  -0.520 123.548  0.00  0.00    +0.000 A 
ATOM     28  C   UNL     1      -7.354   0.701 124.377  0.00  0.00    +0.000 A 
ENDBRANCH  15  18
ENDBRANCH   1  11
BRANCH   6  29
ATOM     29  C   UNL     1       0.141   7.753 134.440  0.00  0.00    +0.000 A 
ATOM     30  C   UNL     1       0.490   7.297 135.702  0.00  0.00    +0.000 A 
ATOM     31  N   UNL     1       1.096   8.045 136.660  0.00  0.00    +0.000 NA
ATOM     32  C   UNL     1       1.352   9.337 136.356  0.00  0.00    +0.000 A 
ATOM     33  C   UNL     1       1.049   9.912 135.129  0.00  0.00    +0.000 A 
ATOM     34  C   UNL     1       0.450   9.077 134.165  0.00  0.00    +0.000 A 
BRANCH  33  35
ATOM     35  C   UNL     1       1.322  11.381 134.891  0.00  0.00    +0.000 C 
BRANCH  35  36
ATOM     36  N   UNL     1       0.578  11.921 133.753  0.00  0.00    +0.000 N 
ATOM     37  C   UNL     1      -0.609  12.598 133.974  0.00  0.00    +0.000 A 
ATOM     38  C   UNL     1      -1.228  13.271 132.990  0.00  0.00    +0.000 A 
ATOM     39  C   UNL     1      -0.620  13.303 131.672  0.00  0.00    +0.000 A 
ATOM     40  C   UNL     1       0.522  12.651 131.424  0.00  0.00    +0.000 A 
ATOM     41  C   UNL     1       1.182  11.862 132.493  0.00  0.00    +0.000 A 
ATOM     42  O   UNL     1       2.245  11.299 132.245  0.00  0.00    +0.000 OA
BRANCH  38  43
ATOM     43  C   UNL     1      -2.512  14.001 133.239  0.00  0.00    +0.000 C 
ATOM     44  F   UNL     1      -3.558  13.139 133.311  0.00  0.00    +0.000 F 
ATOM     45  F   UNL     1      -2.481  14.680 134.414  0.00  0.00    +0.000 F 
ATOM     46  F   UNL     1      -2.809  14.903 132.269  0.00  0.00    +0.000 F 
ENDBRANCH  38  43
ENDBRANCH  35  36
ENDBRANCH  33  35
ENDBRANCH   6  29
TORSDOF 6
ENDMDL
MODEL 3
REMARK VINA RESULT:     -10.9      3.219      3.893
REMARK  Name = CHEMBL286771
REMARK  6 active torsions:
REMARK  status: ('A' for Active; 'I' for Inactive)
REMARK    1  A    between atoms: C_2  and  C_3
REMARK    2  A    between atoms: C_8  and  C_9
REMARK    3  A    between atoms: C_13  and  C_14
REMARK    4  A    between atoms: C_14  and  N_15
REMARK    5  A    between atoms: C_17  and  C_18
REMARK    6  A    between atoms: C_33  and  N_34
REMARK                            x       y       z     vdW  Elec       q    Type
REMARK                         _______ _______ _______ _____ _____    ______ ____
ROOT
ATOM      1  C   UNL     1      -7.438   4.015 133.286  0.00  0.00    +0.000 A 
ATOM      2  C   UNL     1      -8.776   3.631 133.517  0.00  0.00    +0.000 A 
ATOM      3  C   UNL     1      -9.360   2.512 132.875  0.00  0.00    +0.000 A 
ATOM      4  C   UNL     1      -8.536   1.781 132.016  0.00  0.00    +0.000 A 
ATOM      5  O   UNL     1      -8.892   0.693 131.253  0.00  0.00    +0.000 OA
ATOM      6  C   UNL     1      -7.762   0.288 130.589  0.00  0.00    +0.000 A 
ATOM      7  C   UNL     1      -6.706   1.109 130.916  0.00  0.00    +0.000 A 
ATOM      8  C   UNL     1      -7.193   2.087 131.816  0.00  0.00    +0.000 A 
ATOM      9  C   UNL     1      -6.630   3.205 132.473  0.00  0.00    +0.000 A 
ENDROOT
BRANCH   1  11
ATOM     10  O   UNL     1      -7.443   5.560 135.038  0.00  0.00    +0.000 OA
ATOM     11  C   UNL     1      -6.824   5.159 134.052  0.00  0.00    +0.000 C 
ATOM     12  N   UNL     1      -5.500   5.582 133.759  0.00  0.00    +0.000 N 
ATOM     13  C   UNL     1      -5.166   6.310 132.523  0.00  0.00    +0.000 C 
ATOM     14  C   UNL     1      -3.685   6.156 132.184  0.00  0.00    +0.000 C 
ATOM     15  C   UNL     1      -2.677   7.061 133.372  0.00  0.00    +0.000 C 
ATOM     16  C   UNL     1      -3.195   5.944 134.597  0.00  0.00    +0.000 C 
ATOM     17  C   UNL     1      -4.690   6.027 134.900  0.00  0.00    +0.000 C 
BRANCH  15  18
ATOM     18  N   UNL     1      -2.450   8.880 133.015  0.00  0.00    +0.000 N 
ATOM     19  C   UNL     1      -1.068   8.535 133.152  0.00  0.00    +0.000 C 
ATOM     20  O   UNL     1      -0.393   7.589 132.663  0.00  0.00    +0.000 OA
ATOM     21  O   UNL     1      -0.459   9.150 134.133  0.00  0.00    +0.000 OA
ATOM     22  C   UNL     1       0.132  10.105 133.348  0.00  0.00    +0.000 C 
ATOM     23  C   UNL     1      -0.847  11.102 133.732  0.00  0.00    +0.000 A 
ATOM     24  C   UNL     1      -0.066  12.358 134.166  0.00  0.00    +0.000 A 
ATOM     25  C   UNL     1      -0.592  13.576 134.427  0.00  0.00    +0.000 A 
ATOM     26  C   UNL     1      -1.862  13.571 133.907  0.00  0.00    +0.000 A 
ATOM     27  C   UNL     1      -2.637  12.191 133.348  0.00  0.00    +0.000 A 
ATOM     28  C   UNL     1      -2.215  10.681 133.494  0.00  0.00    +0.000 A 
ENDBRANCH  15  18
ENDBRANCH   1  11
BRANCH   6  29
ATOM     29  C   UNL     1      -7.855  -0.839 129.676  0.00  0.00    +0.000 A 
ATOM     30  C   UNL     1      -8.263  -2.096 130.094  0.00  0.00    +0.000 A 
ATOM     31  N   UNL     1      -8.235  -3.218 129.327  0.00  0.00    +0.000 NA
ATOM     32  C   UNL     1      -7.751  -3.088 128.071  0.00  0.00    +0.000 A 
ATOM     33  C   UNL     1      -7.311  -1.884 127.538  0.00  0.00    +0.000 A 
ATOM     34  C   UNL     1      -7.393  -0.751 128.371  0.00  0.00    +0.000 A 
BRANCH  33  35
ATOM     35  C   UNL     1      -6.733  -1.839 126.140  0.00  0.00    +0.000 C 
BRANCH  35  36
ATOM     36  N   UNL     1      -7.762  -1.781 125.101  0.00  0.00    +0.000 N 
ATOM     37  C   UNL     1      -8.267  -0.553 124.710  0.00  0.00    +0.000 A 
ATOM     38  C   UNL     1      -9.068  -0.432 123.638  0.00  0.00    +0.000 A 
ATOM     39  C   UNL     1      -9.388  -1.617 122.864  0.00  0.00    +0.000 A 
ATOM     40  C   UNL     1      -8.923  -2.820 123.222  0.00  0.00    +0.000 A 
ATOM     41  C   UNL     1      -8.083  -2.969 124.435  0.00  0.00    +0.000 A 
ATOM     42  O   UNL     1      -7.645  -4.080 124.723  0.00  0.00    +0.000 OA
BRANCH  38  43
ATOM     43  C   UNL     1      -9.608   0.902 123.222  0.00  0.00    +0.000 C 
ATOM     44  F   UNL     1      -8.605   1.754 122.892  0.00  0.00    +0.000 F 
ATOM     45  F   UNL     1     -10.411   0.798 122.132  0.00  0.00    +0.000 F 
ATOM     46  F   UNL     1     -10.337   1.507 124.193  0.00  0.00    +0.000 F 
ENDBRANCH  38  43
ENDBRANCH  35  36
ENDBRANCH  33  35
ENDBRANCH   6  29
TORSDOF 6
ENDMDL
MODEL 4
REMARK VINA RESULT:     -10.9      1.752      1.978
REMARK  Name = CHEMBL286771
REMARK  6 active torsions:
REMARK  status: ('A' for Active; 'I' for Inactive)
REMARK    1  A    between atoms: C_2  and  C_3
REMARK    2  A    between atoms: C_8  and  C_9
REMARK    3  A    between atoms: C_13  and  C_14
REMARK    4  A    between atoms: C_14  and  N_15
REMARK    5  A    between atoms: C_17  and  C_18
REMARK    6  A    between atoms: C_33  and  N_34
REMARK                            x       y       z     vdW  Elec       q    Type
REMARK                         _______ _______ _______ _____ _____    ______ ____
ROOT
ATOM      1  C   UNL     1      -6.193   4.205 131.168  0.00  0.00    +0.000 A 
ATOM      2  C   UNL     1      -5.831   4.354 129.813  0.00  0.00    +0.000 A 
ATOM      3  C   UNL     1      -6.039   3.326 128.861  0.00  0.00    +0.000 A 
ATOM      4  C   UNL     1      -6.650   2.157 129.322  0.00  0.00    +0.000 A 
ATOM      5  O   UNL     1      -6.909   1.016 128.598  0.00  0.00    +0.000 OA
ATOM      6  C   UNL     1      -7.537   0.142 129.448  0.00  0.00    +0.000 A 
ATOM      7  C   UNL     1      -7.668   0.712 130.695  0.00  0.00    +0.000 A 
ATOM      8  C   UNL     1      -7.083   2.000 130.635  0.00  0.00    +0.000 A 
ATOM      9  C   UNL     1      -6.871   3.042 131.566  0.00  0.00    +0.000 A 
ENDROOT
BRANCH   1  11
ATOM     10  O   UNL     1      -7.011   5.620 132.837  0.00  0.00    +0.000 OA
ATOM     11  C   UNL     1      -6.036   5.352 132.135  0.00  0.00    +0.000 C 
ATOM     12  N   UNL     1      -4.756   5.924 132.357  0.00  0.00    +0.000 N 
ATOM     13  C   UNL     1      -4.089   6.764 131.346  0.00  0.00    +0.000 C 
ATOM     14  C   UNL     1      -2.577   6.784 131.567  0.00  0.00    +0.000 C 
ATOM     15  C   UNL     1      -2.179   7.704 133.064  0.00  0.00    +0.000 C 
ATOM     16  C   UNL     1      -2.966   6.460 133.986  0.00  0.00    +0.000 C 
ATOM     17  C   UNL     1      -4.468   6.371 133.725  0.00  0.00    +0.000 C 
BRANCH  15  18
ATOM     18  N   UNL     1      -2.056   9.556 132.863  0.00  0.00    +0.000 N 
ATOM     19  C   UNL     1      -0.745   9.331 133.391  0.00  0.00    +0.000 C 
ATOM     20  O   UNL     1       0.142   8.488 133.088  0.00  0.00    +0.000 OA
ATOM     21  O   UNL     1      -0.519   9.930 134.531  0.00  0.00    +0.000 OA
ATOM     22  C   UNL     1       0.167  10.988 133.996  0.00  0.00    +0.000 C 
ATOM     23  C   UNL     1      -0.983  11.862 134.110  0.00  0.00    +0.000 A 
ATOM     24  C   UNL     1      -0.504  13.151 134.805  0.00  0.00    +0.000 A 
ATOM     25  C   UNL     1      -1.212  14.294 134.946  0.00  0.00    +0.000 A 
ATOM     26  C   UNL     1      -2.266  14.208 134.072  0.00  0.00    +0.000 A 
ATOM     27  C   UNL     1      -2.690  12.805 133.254  0.00  0.00    +0.000 A 
ATOM     28  C   UNL     1      -2.168  11.334 133.460  0.00  0.00    +0.000 A 
ENDBRANCH  15  18
ENDBRANCH   1  11
BRANCH   6  29
ATOM     29  C   UNL     1      -7.904  -1.173 128.950  0.00  0.00    +0.000 A 
ATOM     30  C   UNL     1      -7.746  -2.321 129.712  0.00  0.00    +0.000 A 
ATOM     31  N   UNL     1      -7.935  -3.587 129.258  0.00  0.00    +0.000 NA
ATOM     32  C   UNL     1      -8.281  -3.726 127.958  0.00  0.00    +0.000 A 
ATOM     33  C   UNL     1      -8.468  -2.655 127.095  0.00  0.00    +0.000 A 
ATOM     34  C   UNL     1      -8.287  -1.365 127.632  0.00  0.00    +0.000 A 
BRANCH  33  35
ATOM     35  C   UNL     1      -8.803  -2.903 125.640  0.00  0.00    +0.000 C 
BRANCH  35  36
ATOM     36  N   UNL     1      -7.707  -2.552 124.736  0.00  0.00    +0.000 N 
ATOM     37  C   UNL     1      -6.567  -3.338 124.710  0.00  0.00    +0.000 A 
ATOM     38  C   UNL     1      -5.620  -3.171 123.772  0.00  0.00    +0.000 A 
ATOM     39  C   UNL     1      -5.814  -2.157 122.752  0.00  0.00    +0.000 A 
ATOM     40  C   UNL     1      -6.900  -1.375 122.756  0.00  0.00    +0.000 A 
ATOM     41  C   UNL     1      -7.924  -1.518 123.820  0.00  0.00    +0.000 A 
ATOM     42  O   UNL     1      -8.925  -0.808 123.781  0.00  0.00    +0.000 OA
BRANCH  38  43
ATOM     43  C   UNL     1      -4.391  -4.027 123.752  0.00  0.00    +0.000 C 
ATOM     44  F   UNL     1      -4.046  -4.415 125.005  0.00  0.00    +0.000 F 
ATOM     45  F   UNL     1      -4.583  -5.160 123.029  0.00  0.00    +0.000 F 
ATOM     46  F   UNL     1      -3.312  -3.397 123.221  0.00  0.00    +0.000 F 
ENDBRANCH  38  43
ENDBRANCH  35  36
ENDBRANCH  33  35
ENDBRANCH   6  29
TORSDOF 6
ENDMDL
MODEL 5
REMARK VINA RESULT:     -10.7      2.429      3.554
REMARK  Name = CHEMBL286771
REMARK  6 active torsions:
REMARK  status: ('A' for Active; 'I' for Inactive)
REMARK    1  A    between atoms: C_2  and  C_3
REMARK    2  A    between atoms: C_8  and  C_9
REMARK    3  A    between atoms: C_13  and  C_14
REMARK    4  A    between atoms: C_14  and  N_15
REMARK    5  A    between atoms: C_17  and  C_18
REMARK    6  A    between atoms: C_33  and  N_34
REMARK                            x       y       z     vdW  Elec       q    Type
REMARK                         _______ _______ _______ _____ _____    ______ ____
ROOT
ATOM      1  C   UNL     1      -3.680   5.620 128.612  0.00  0.00    +0.000 A 
ATOM      2  C   UNL     1      -2.561   4.799 128.358  0.00  0.00    +0.000 A 
ATOM      3  C   UNL     1      -2.647   3.634 127.558  0.00  0.00    +0.000 A 
ATOM      4  C   UNL     1      -3.896   3.346 127.002  0.00  0.00    +0.000 A 
ATOM      5  O   UNL     1      -4.229   2.253 126.236  0.00  0.00    +0.000 OA
ATOM      6  C   UNL     1      -5.549   2.397 125.894  0.00  0.00    +0.000 A 
ATOM      7  C   UNL     1      -6.052   3.558 126.439  0.00  0.00    +0.000 A 
ATOM      8  C   UNL     1      -5.005   4.168 127.173  0.00  0.00    +0.000 A 
ATOM      9  C   UNL     1      -4.894   5.329 127.971  0.00  0.00    +0.000 A 
ENDROOT
BRANCH   1  11
ATOM     10  O   UNL     1      -4.211   7.856 129.027  0.00  0.00    +0.000 OA
ATOM     11  C   UNL     1      -3.532   6.899 129.397  0.00  0.00    +0.000 C 
ATOM     12  N   UNL     1      -2.811   6.903 130.621  0.00  0.00    +0.000 N 
ATOM     13  C   UNL     1      -1.344   6.777 130.665  0.00  0.00    +0.000 C 
ATOM     14  C   UNL     1      -0.883   6.258 132.026  0.00  0.00    +0.000 C 
ATOM     15  C   UNL     1      -1.136   7.517 133.290  0.00  0.00    +0.000 C 
ATOM     16  C   UNL     1      -2.849   7.341 133.061  0.00  0.00    +0.000 C 
ATOM     17  C   UNL     1      -3.323   7.783 131.678  0.00  0.00    +0.000 C 
BRANCH  15  18
ATOM     18  N   UNL     1       0.223   8.788 133.445  0.00  0.00    +0.000 N 
ATOM     19  C   UNL     1      -0.162   8.747 134.822  0.00  0.00    +0.000 C 
ATOM     20  O   UNL     1      -0.369   7.777 135.601  0.00  0.00    +0.000 OA
ATOM     21  O   UNL     1      -0.611   9.885 135.285  0.00  0.00    +0.000 OA
ATOM     22  C   UNL     1       0.558  10.253 135.898  0.00  0.00    +0.000 C 
ATOM     23  C   UNL     1       0.893  11.168 134.826  0.00  0.00    +0.000 A 
ATOM     24  C   UNL     1       1.256  12.516 135.479  0.00  0.00    +0.000 A 
ATOM     25  C   UNL     1       1.799  13.586 134.856  0.00  0.00    +0.000 A 
ATOM     26  C   UNL     1       2.276  13.134 133.652  0.00  0.00    +0.000 A 
ATOM     27  C   UNL     1       1.941  11.613 133.025  0.00  0.00    +0.000 A 
ATOM     28  C   UNL     1       0.902  10.538 133.518  0.00  0.00    +0.000 A 
ENDBRANCH  15  18
ENDBRANCH   1  11
BRANCH   6  29
ATOM     29  C   UNL     1      -6.182   1.358 125.099  0.00  0.00    +0.000 A 
ATOM     30  C   UNL     1      -7.201   1.634 124.200  0.00  0.00    +0.000 A 
ATOM     31  N   UNL     1      -7.927   0.696 123.535  0.00  0.00    +0.000 NA
ATOM     32  C   UNL     1      -7.639  -0.598 123.797  0.00  0.00    +0.000 A 
ATOM     33  C   UNL     1      -6.645  -1.001 124.678  0.00  0.00    +0.000 A 
ATOM     34  C   UNL     1      -5.906   0.016 125.313  0.00  0.00    +0.000 A 
BRANCH  33  35
ATOM     35  C   UNL     1      -6.425  -2.473 124.953  0.00  0.00    +0.000 C 
BRANCH  35  36
ATOM     36  N   UNL     1      -7.137  -2.942 126.143  0.00  0.00    +0.000 N 
ATOM     37  C   UNL     1      -6.618  -2.672 127.397  0.00  0.00    +0.000 A 
ATOM     38  C   UNL     1      -7.323  -2.912 128.516  0.00  0.00    +0.000 A 
ATOM     39  C   UNL     1      -8.667  -3.445 128.396  0.00  0.00    +0.000 A 
ATOM     40  C   UNL     1      -9.194  -3.726 127.198  0.00  0.00    +0.000 A 
ATOM     41  C   UNL     1      -8.401  -3.513 125.962  0.00  0.00    +0.000 A 
ATOM     42  O   UNL     1      -8.920  -3.750 124.875  0.00  0.00    +0.000 OA
BRANCH  38  43
ATOM     43  C   UNL     1      -6.753  -2.616 129.869  0.00  0.00    +0.000 C 
ATOM     44  F   UNL     1      -6.535  -3.760 130.567  0.00  0.00    +0.000 F 
ATOM     45  F   UNL     1      -5.559  -1.977 129.780  0.00  0.00    +0.000 F 
ATOM     46  F   UNL     1      -7.563  -1.838 130.629  0.00  0.00    +0.000 F 
ENDBRANCH  38  43
ENDBRANCH  35  36
ENDBRANCH  33  35
ENDBRANCH   6  29
TORSDOF 6
ENDMDL
MODEL 6
REMARK VINA RESULT:     -10.7      2.624      3.179
REMARK  Name = CHEMBL286771
REMARK  6 active torsions:
REMARK  status: ('A' for Active; 'I' for Inactive)
REMARK    1  A    between atoms: C_2  and  C_3
REMARK    2  A    between atoms: C_8  and  C_9
REMARK    3  A    between atoms: C_13  and  C_14
REMARK    4  A    between atoms: C_14  and  N_15
REMARK    5  A    between atoms: C_17  and  C_18
REMARK    6  A    between atoms: C_33  and  N_34
REMARK                            x       y       z     vdW  Elec       q    Type
REMARK                         _______ _______ _______ _____ _____    ______ ____
ROOT
ATOM      1  C   UNL     1      -7.252   3.872 133.584  0.00  0.00    +0.000 A 
ATOM      2  C   UNL     1      -8.641   3.620 133.582  0.00  0.00    +0.000 A 
ATOM      3  C   UNL     1      -9.197   2.471 132.971  0.00  0.00    +0.000 A 
ATOM      4  C   UNL     1      -8.299   1.573 132.388  0.00  0.00    +0.000 A 
ATOM      5  O   UNL     1      -8.607   0.421 131.702  0.00  0.00    +0.000 OA
ATOM      6  C   UNL     1      -7.416  -0.150 131.332  0.00  0.00    +0.000 A 
ATOM      7  C   UNL     1      -6.367   0.629 131.767  0.00  0.00    +0.000 A 
ATOM      8  C   UNL     1      -6.920   1.752 132.430  0.00  0.00    +0.000 A 
ATOM      9  C   UNL     1      -6.387   2.904 133.051  0.00  0.00    +0.000 A 
ENDROOT
BRANCH   1  11
ATOM     10  O   UNL     1      -7.324   5.463 135.293  0.00  0.00    +0.000 OA
ATOM     11  C   UNL     1      -6.688   5.062 134.319  0.00  0.00    +0.000 C 
ATOM     12  N   UNL     1      -5.382   5.531 134.015  0.00  0.00    +0.000 N 
ATOM     13  C   UNL     1      -5.078   6.238 132.759  0.00  0.00    +0.000 C 
ATOM     14  C   UNL     1      -3.591   6.137 132.424  0.00  0.00    +0.000 C 
ATOM     15  C   UNL     1      -2.623   7.115 133.588  0.00  0.00    +0.000 C 
ATOM     16  C   UNL     1      -3.095   6.012 134.842  0.00  0.00    +0.000 C 
ATOM     17  C   UNL     1      -4.592   6.040 135.142  0.00  0.00    +0.000 C 
BRANCH  15  18
ATOM     18  N   UNL     1      -2.471   8.932 133.182  0.00  0.00    +0.000 N 
ATOM     19  C   UNL     1      -1.074   8.638 133.281  0.00  0.00    +0.000 C 
ATOM     20  O   UNL     1      -0.382   7.704 132.792  0.00  0.00    +0.000 OA
ATOM     21  O   UNL     1      -0.457   9.298 134.226  0.00  0.00    +0.000 OA
ATOM     22  C   UNL     1       0.075  10.253 133.401  0.00  0.00    +0.000 C 
ATOM     23  C   UNL     1      -0.926  11.225 133.794  0.00  0.00    +0.000 A 
ATOM     24  C   UNL     1      -0.176  12.517 134.173  0.00  0.00    +0.000 A 
ATOM     25  C   UNL     1      -0.736  13.722 134.423  0.00  0.00    +0.000 A 
ATOM     26  C   UNL     1      -2.020  13.661 133.945  0.00  0.00    +0.000 A 
ATOM     27  C   UNL     1      -2.764  12.242 133.444  0.00  0.00    +0.000 A 
ATOM     28  C   UNL     1      -2.285  10.752 133.611  0.00  0.00    +0.000 A 
ENDBRANCH  15  18
ENDBRANCH   1  11
BRANCH   6  29
ATOM     29  C   UNL     1      -7.442  -1.379 130.557  0.00  0.00    +0.000 A 
ATOM     30  C   UNL     1      -6.700  -2.494 130.916  0.00  0.00    +0.000 A 
ATOM     31  N   UNL     1      -6.570  -3.617 130.163  0.00  0.00    +0.000 NA
ATOM     32  C   UNL     1      -7.198  -3.626 128.966  0.00  0.00    +0.000 A 
ATOM     33  C   UNL     1      -7.968  -2.572 128.494  0.00  0.00    +0.000 A 
ATOM     34  C   UNL     1      -8.090  -1.448 129.333  0.00  0.00    +0.000 A 
BRANCH  33  35
ATOM     35  C   UNL     1      -8.592  -2.645 127.117  0.00  0.00    +0.000 C 
BRANCH  35  36
ATOM     36  N   UNL     1      -7.789  -1.975 126.093  0.00  0.00    +0.000 N 
ATOM     37  C   UNL     1      -6.863  -2.705 125.368  0.00  0.00    +0.000 A 
ATOM     38  C   UNL     1      -6.242  -2.185 124.296  0.00  0.00    +0.000 A 
ATOM     39  C   UNL     1      -6.572  -0.834 123.882  0.00  0.00    +0.000 A 
ATOM     40  C   UNL     1      -7.456  -0.099 124.567  0.00  0.00    +0.000 A 
ATOM     41  C   UNL     1      -8.106  -0.648 125.783  0.00  0.00    +0.000 A 
ATOM     42  O   UNL     1      -8.935   0.036 126.374  0.00  0.00    +0.000 OA
BRANCH  38  43
ATOM     43  C   UNL     1      -5.241  -2.982 123.518  0.00  0.00    +0.000 C 
ATOM     44  F   UNL     1      -3.973  -2.637 123.854  0.00  0.00    +0.000 F 
ATOM     45  F   UNL     1      -5.364  -4.312 123.760  0.00  0.00    +0.000 F 
ATOM     46  F   UNL     1      -5.354  -2.813 122.176  0.00  0.00    +0.000 F 
ENDBRANCH  38  43
ENDBRANCH  35  36
ENDBRANCH  33  35
ENDBRANCH   6  29
TORSDOF 6
ENDMDL
MODEL 7
REMARK VINA RESULT:     -10.6      2.206      2.795
REMARK  Name = CHEMBL286771
REMARK  6 active torsions:
REMARK  status: ('A' for Active; 'I' for Inactive)
REMARK    1  A    between atoms: C_2  and  C_3
REMARK    2  A    between atoms: C_8  and  C_9
REMARK    3  A    between atoms: C_13  and  C_14
REMARK    4  A    between atoms: C_14  and  N_15
REMARK    5  A    between atoms: C_17  and  C_18
REMARK    6  A    between atoms: C_33  and  N_34
REMARK                            x       y       z     vdW  Elec       q    Type
REMARK                         _______ _______ _______ _____ _____    ______ ____
ROOT
ATOM      1  C   UNL     1      -4.005   2.344 131.493  0.00  0.00    +0.000 A 
ATOM      2  C   UNL     1      -4.117   2.909 130.205  0.00  0.00    +0.000 A 
ATOM      3  C   UNL     1      -4.887   2.304 129.182  0.00  0.00    +0.000 A 
ATOM      4  C   UNL     1      -5.561   1.127 129.517  0.00  0.00    +0.000 A 
ATOM      5  O   UNL     1      -6.324   0.343 128.682  0.00  0.00    +0.000 OA
ATOM      6  C   UNL     1      -6.805  -0.692 129.442  0.00  0.00    +0.000 A 
ATOM      7  C   UNL     1      -6.349  -0.576 130.737  0.00  0.00    +0.000 A 
ATOM      8  C   UNL     1      -5.530   0.577 130.794  0.00  0.00    +0.000 A 
ATOM      9  C   UNL     1      -4.759   1.202 131.802  0.00  0.00    +0.000 A 
ENDROOT
BRANCH   1  11
ATOM     10  O   UNL     1      -2.767   2.361 133.474  0.00  0.00    +0.000 OA
ATOM     11  C   UNL     1      -3.247   3.061 132.583  0.00  0.00    +0.000 C 
ATOM     12  N   UNL     1      -2.934   4.439 132.442  0.00  0.00    +0.000 N 
ATOM     13  C   UNL     1      -3.961   5.490 132.549  0.00  0.00    +0.000 C 
ATOM     14  C   UNL     1      -3.513   6.763 131.834  0.00  0.00    +0.000 C 
ATOM     15  C   UNL     1      -2.161   7.541 132.736  0.00  0.00    +0.000 C 
ATOM     16  C   UNL     1      -1.166   6.174 132.339  0.00  0.00    +0.000 C 
ATOM     17  C   UNL     1      -1.640   4.873 132.983  0.00  0.00    +0.000 C 
BRANCH  15  18
ATOM     18  N   UNL     1      -2.670   8.653 134.148  0.00  0.00    +0.000 N 
ATOM     19  C   UNL     1      -2.278   9.676 133.227  0.00  0.00    +0.000 C 
ATOM     20  O   UNL     1      -2.549   9.847 132.008  0.00  0.00    +0.000 OA
ATOM     21  O   UNL     1      -1.285  10.417 133.645  0.00  0.00    +0.000 OA
ATOM     22  C   UNL     1      -2.063  11.464 134.064  0.00  0.00    +0.000 C 
ATOM     23  C   UNL     1      -1.949  11.061 135.452  0.00  0.00    +0.000 A 
ATOM     24  C   UNL     1      -1.533  12.312 136.251  0.00  0.00    +0.000 A 
ATOM     25  C   UNL     1      -1.491  12.421 137.598  0.00  0.00    +0.000 A 
ATOM     26  C   UNL     1      -2.203  11.360 138.097  0.00  0.00    +0.000 A 
ATOM     27  C   UNL     1      -2.728  10.066 137.166  0.00  0.00    +0.000 A 
ATOM     28  C   UNL     1      -2.355   9.688 135.684  0.00  0.00    +0.000 A 
ENDBRANCH  15  18
ENDBRANCH   1  11
BRANCH   6  29
ATOM     29  C   UNL     1      -7.630  -1.703 128.802  0.00  0.00    +0.000 A 
ATOM     30  C   UNL     1      -8.019  -2.862 129.457  0.00  0.00    +0.000 A 
ATOM     31  N   UNL     1      -8.666  -3.905 128.874  0.00  0.00    +0.000 NA
ATOM     32  C   UNL     1      -8.923  -3.803 127.551  0.00  0.00    +0.000 A 
ATOM     33  C   UNL     1      -8.582  -2.696 126.786  0.00  0.00    +0.000 A 
ATOM     34  C   UNL     1      -7.941  -1.633 127.452  0.00  0.00    +0.000 A 
BRANCH  33  35
ATOM     35  C   UNL     1      -8.860  -2.687 125.298  0.00  0.00    +0.000 C 
BRANCH  35  36
ATOM     36  N   UNL     1      -7.665  -2.416 124.498  0.00  0.00    +0.000 N 
ATOM     37  C   UNL     1      -6.594  -3.292 124.554  0.00  0.00    +0.000 A 
ATOM     38  C   UNL     1      -5.559  -3.192 123.704  0.00  0.00    +0.000 A 
ATOM     39  C   UNL     1      -5.582  -2.153 122.690  0.00  0.00    +0.000 A 
ATOM     40  C   UNL     1      -6.598  -1.285 122.616  0.00  0.00    +0.000 A 
ATOM     41  C   UNL     1      -7.718  -1.357 123.586  0.00  0.00    +0.000 A 
ATOM     42  O   UNL     1      -8.652  -0.567 123.475  0.00  0.00    +0.000 OA
BRANCH  38  43
ATOM     43  C   UNL     1      -4.405  -4.144 123.772  0.00  0.00    +0.000 C 
ATOM     44  F   UNL     1      -3.299  -3.614 123.191  0.00  0.00    +0.000 F 
ATOM     45  F   UNL     1      -4.073  -4.437 125.055  0.00  0.00    +0.000 F 
ATOM     46  F   UNL     1      -4.651  -5.324 123.149  0.00  0.00    +0.000 F 
ENDBRANCH  38  43
ENDBRANCH  35  36
ENDBRANCH  33  35
ENDBRANCH   6  29
TORSDOF 6
ENDMDL
MODEL 8
REMARK VINA RESULT:     -10.5      3.317      4.558
REMARK  Name = CHEMBL286771
REMARK  6 active torsions:
REMARK  status: ('A' for Active; 'I' for Inactive)
REMARK    1  A    between atoms: C_2  and  C_3
REMARK    2  A    between atoms: C_8  and  C_9
REMARK    3  A    between atoms: C_13  and  C_14
REMARK    4  A    between atoms: C_14  and  N_15
REMARK    5  A    between atoms: C_17  and  C_18
REMARK    6  A    between atoms: C_33  and  N_34
REMARK                            x       y       z     vdW  Elec       q    Type
REMARK                         _______ _______ _______ _____ _____    ______ ____
ROOT
ATOM      1  C   UNL     1      -2.554   5.239 130.704  0.00  0.00    +0.000 A 
ATOM      2  C   UNL     1      -2.177   5.993 129.572  0.00  0.00    +0.000 A 
ATOM      3  C   UNL     1      -2.594   5.647 128.264  0.00  0.00    +0.000 A 
ATOM      4  C   UNL     1      -3.427   4.531 128.145  0.00  0.00    +0.000 A 
ATOM      5  O   UNL     1      -3.916   3.983 126.982  0.00  0.00    +0.000 OA
ATOM      6  C   UNL     1      -4.704   2.921 127.345  0.00  0.00    +0.000 A 
ATOM      7  C   UNL     1      -4.710   2.789 128.717  0.00  0.00    +0.000 A 
ATOM      8  C   UNL     1      -3.876   3.805 129.243  0.00  0.00    +0.000 A 
ATOM      9  C   UNL     1      -3.452   4.172 130.541  0.00  0.00    +0.000 A 
ENDROOT
BRANCH   1  11
ATOM     10  O   UNL     1      -1.863   4.802 132.892  0.00  0.00    +0.000 OA
ATOM     11  C   UNL     1      -2.163   5.686 132.090  0.00  0.00    +0.000 C 
ATOM     12  N   UNL     1      -1.949   7.064 132.358  0.00  0.00    +0.000 N 
ATOM     13  C   UNL     1      -3.060   8.030 132.425  0.00  0.00    +0.000 C 
ATOM     14  C   UNL     1      -2.562   9.451 132.167  0.00  0.00    +0.000 C 
ATOM     15  C   UNL     1      -1.557  10.019 133.551  0.00  0.00    +0.000 C 
ATOM     16  C   UNL     1      -0.376   8.818 133.130  0.00  0.00    +0.000 C 
ATOM     17  C   UNL     1      -0.878   7.386 133.308  0.00  0.00    +0.000 C 
BRANCH  15  18
ATOM     18  N   UNL     1      -2.503  10.737 134.992  0.00  0.00    +0.000 N 
ATOM     19  C   UNL     1      -1.818  11.930 134.596  0.00  0.00    +0.000 C 
ATOM     20  O   UNL     1      -1.662  12.465 133.465  0.00  0.00    +0.000 OA
ATOM     21  O   UNL     1      -1.017  12.413 135.511  0.00  0.00    +0.000 OA
ATOM     22  C   UNL     1      -1.884  13.377 135.955  0.00  0.00    +0.000 C 
ATOM     23  C   UNL     1      -2.245  12.591 137.118  0.00  0.00    +0.000 A 
ATOM     24  C   UNL     1      -2.114  13.515 138.344  0.00  0.00    +0.000 A 
ATOM     25  C   UNL     1      -2.526  13.237 139.601  0.00  0.00    +0.000 A 
ATOM     26  C   UNL     1      -3.372  12.161 139.505  0.00  0.00    +0.000 A 
ATOM     27  C   UNL     1      -3.562  11.244 138.111  0.00  0.00    +0.000 A 
ATOM     28  C   UNL     1      -2.716  11.260 136.784  0.00  0.00    +0.000 A 
ENDBRANCH  15  18
ENDBRANCH   1  11
BRANCH   6  29
ATOM     29  C   UNL     1      -5.333   2.129 126.302  0.00  0.00    +0.000 A 
ATOM     30  C   UNL     1      -6.347   2.633 125.503  0.00  0.00    +0.000 A 
ATOM     31  N   UNL     1      -7.070   1.905 124.611  0.00  0.00    +0.000 NA
ATOM     32  C   UNL     1      -6.783   0.586 124.524  0.00  0.00    +0.000 A 
ATOM     33  C   UNL     1      -5.793  -0.035 125.272  0.00  0.00    +0.000 A 
ATOM     34  C   UNL     1      -5.057   0.778 126.156  0.00  0.00    +0.000 A 
BRANCH  33  35
ATOM     35  C   UNL     1      -5.574  -1.528 125.150  0.00  0.00    +0.000 C 
BRANCH  35  36
ATOM     36  N   UNL     1      -6.709  -2.311 125.640  0.00  0.00    +0.000 N 
ATOM     37  C   UNL     1      -6.908  -2.443 127.004  0.00  0.00    +0.000 A 
ATOM     38  C   UNL     1      -8.031  -2.987 127.501  0.00  0.00    +0.000 A 
ATOM     39  C   UNL     1      -9.066  -3.422 126.582  0.00  0.00    +0.000 A 
ATOM     40  C   UNL     1      -8.901  -3.317 125.258  0.00  0.00    +0.000 A 
ATOM     41  C   UNL     1      -7.640  -2.767 124.701  0.00  0.00    +0.000 A 
ATOM     42  O   UNL     1      -7.528  -2.654 123.483  0.00  0.00    +0.000 OA
BRANCH  38  43
ATOM     43  C   UNL     1      -8.237  -3.124 128.978  0.00  0.00    +0.000 C 
ATOM     44  F   UNL     1      -9.394  -3.780 129.251  0.00  0.00    +0.000 F 
ATOM     45  F   UNL     1      -7.237  -3.835 129.558  0.00  0.00    +0.000 F 
ATOM     46  F   UNL     1      -8.298  -1.931 129.621  0.00  0.00    +0.000 F 
ENDBRANCH  38  43
ENDBRANCH  35  36
ENDBRANCH  33  35
ENDBRANCH   6  29
TORSDOF 6
ENDMDL
MODEL 9
REMARK VINA RESULT:     -10.5      2.805      3.944
REMARK  Name = CHEMBL286771
REMARK  6 active torsions:
REMARK  status: ('A' for Active; 'I' for Inactive)
REMARK    1  A    between atoms: C_2  and  C_3
REMARK    2  A    between atoms: C_8  and  C_9
REMARK    3  A    between atoms: C_13  and  C_14
REMARK    4  A    between atoms: C_14  and  N_15
REMARK    5  A    between atoms: C_17  and  C_18
REMARK    6  A    between atoms: C_33  and  N_34
REMARK                            x       y       z     vdW  Elec       q    Type
REMARK                         _______ _______ _______ _____ _____    ______ ____
ROOT
ATOM      1  C   UNL     1      -3.322   5.020 127.866  0.00  0.00    +0.000 A 
ATOM      2  C   UNL     1      -2.808   3.715 127.710  0.00  0.00    +0.000 A 
ATOM      3  C   UNL     1      -3.398   2.773 126.834  0.00  0.00    +0.000 A 
ATOM      4  C   UNL     1      -4.507   3.205 126.102  0.00  0.00    +0.000 A 
ATOM      5  O   UNL     1      -5.267   2.459 125.232  0.00  0.00    +0.000 OA
ATOM      6  C   UNL     1      -6.230   3.296 124.729  0.00  0.00    +0.000 A 
ATOM      7  C   UNL     1      -6.091   4.553 125.276  0.00  0.00    +0.000 A 
ATOM      8  C   UNL     1      -5.000   4.504 126.177  0.00  0.00    +0.000 A 
ATOM      9  C   UNL     1      -4.391   5.430 127.054  0.00  0.00    +0.000 A 
ENDROOT
BRANCH   1  11
ATOM     10  O   UNL     1      -1.906   6.852 128.174  0.00  0.00    +0.000 OA
ATOM     11  C   UNL     1      -2.617   6.024 128.743  0.00  0.00    +0.000 C 
ATOM     12  N   UNL     1      -2.948   6.122 130.121  0.00  0.00    +0.000 N 
ATOM     13  C   UNL     1      -2.558   5.087 131.094  0.00  0.00    +0.000 C 
ATOM     14  C   UNL     1      -3.467   5.126 132.321  0.00  0.00    +0.000 C 
ATOM     15  C   UNL     1      -3.148   6.613 133.287  0.00  0.00    +0.000 C 
ATOM     16  C   UNL     1      -3.778   7.552 131.968  0.00  0.00    +0.000 C 
ATOM     17  C   UNL     1      -2.925   7.469 130.704  0.00  0.00    +0.000 C 
BRANCH  15  18
ATOM     18  N   UNL     1      -1.724   6.503 134.490  0.00  0.00    +0.000 N 
ATOM     19  C   UNL     1      -2.696   7.046 135.389  0.00  0.00    +0.000 C 
ATOM     20  O   UNL     1      -3.892   6.720 135.618  0.00  0.00    +0.000 OA
ATOM     21  O   UNL     1      -2.378   8.217 135.874  0.00  0.00    +0.000 OA
ATOM     22  C   UNL     1      -1.918   7.747 137.077  0.00  0.00    +0.000 C 
ATOM     23  C   UNL     1      -0.536   7.881 136.661  0.00  0.00    +0.000 A 
ATOM     24  C   UNL     1       0.199   8.645 137.779  0.00  0.00    +0.000 A 
ATOM     25  C   UNL     1       1.535   8.827 137.878  0.00  0.00    +0.000 A 
ATOM     26  C   UNL     1       2.114   7.929 137.017  0.00  0.00    +0.000 A 
ATOM     27  C   UNL     1       1.257   7.036 135.882  0.00  0.00    +0.000 A 
ATOM     28  C   UNL     1      -0.242   7.182 135.424  0.00  0.00    +0.000 A 
ENDBRANCH  15  18
ENDBRANCH   1  11
BRANCH   6  29
ATOM     29  C   UNL     1      -7.204   2.758 123.794  0.00  0.00    +0.000 A 
ATOM     30  C   UNL     1      -7.812   3.545 122.828  0.00  0.00    +0.000 A 
ATOM     31  N   UNL     1      -8.829   3.140 122.022  0.00  0.00    +0.000 NA
ATOM     32  C   UNL     1      -9.287   1.880 122.202  0.00  0.00    +0.000 A 
ATOM     33  C   UNL     1      -8.762   0.999 123.137  0.00  0.00    +0.000 A 
ATOM     34  C   UNL     1      -7.690   1.466 123.921  0.00  0.00    +0.000 A 
BRANCH  33  35
ATOM     35  C   UNL     1      -9.371  -0.376 123.308  0.00  0.00    +0.000 C 
BRANCH  35  36
ATOM     36  N   UNL     1      -8.511  -1.289 124.062  0.00  0.00    +0.000 N 
ATOM     37  C   UNL     1      -7.372  -1.801 123.465  0.00  0.00    +0.000 A 
ATOM     38  C   UNL     1      -6.457  -2.486 124.170  0.00  0.00    +0.000 A 
ATOM     39  C   UNL     1      -6.662  -2.670 125.595  0.00  0.00    +0.000 A 
ATOM     40  C   UNL     1      -7.758  -2.196 126.200  0.00  0.00    +0.000 A 
ATOM     41  C   UNL     1      -8.799  -1.485 125.417  0.00  0.00    +0.000 A 
ATOM     42  O   UNL     1      -9.778  -1.033 126.003  0.00  0.00    +0.000 OA
BRANCH  38  43
ATOM     43  C   UNL     1      -5.227  -3.036 123.516  0.00  0.00    +0.000 C 
ATOM     44  F   UNL     1      -4.104  -2.505 124.062  0.00  0.00    +0.000 F 
ATOM     45  F   UNL     1      -5.139  -4.382 123.667  0.00  0.00    +0.000 F 
ATOM     46  F   UNL     1      -5.175  -2.783 122.183  0.00  0.00    +0.000 F 
ENDBRANCH  38  43
ENDBRANCH  35  36
ENDBRANCH  33  35
ENDBRANCH   6  29
TORSDOF 6
ENDMDL
