MODEL 1
REMARK VINA RESULT:     -11.3      0.000      0.000
REMARK  Name = CHEMBL68800
REMARK  7 active torsions:
REMARK  status: ('A' for Active; 'I' for Inactive)
REMARK    1  A    between atoms: C_1  and  O_2
REMARK    2  A    between atoms: O_2  and  C_3
REMARK    3  A    between atoms: C_5  and  O_6
REMARK    4  A    between atoms: O_6  and  C_7
REMARK    5  A    between atoms: N_10  and  C_11
REMARK    6  A    between atoms: C_27  and  C_28
REMARK    7  A    between atoms: C_33  and  N_34
REMARK                            x       y       z     vdW  Elec       q    Type
REMARK                         _______ _______ _______ _____ _____    ______ ____
ROOT
ATOM      1  C   UNL     1      -7.235   0.669 132.481  0.00  0.00    +0.000 A 
ATOM      2  C   UNL     1      -7.491  -0.617 131.831  0.00  0.00    +0.000 A 
ATOM      3  C   UNL     1      -7.896  -0.629 130.545  0.00  0.00    +0.000 A 
ATOM      4  C   UNL     1      -7.953   0.672 130.189  0.00  0.00    +0.000 A 
ATOM      5  F   UNL     1      -8.397   0.936 129.031  0.00  0.00    +0.000 F 
ATOM      6  C   UNL     1      -7.701   1.930 130.612  0.00  0.00    +0.000 A 
ATOM      7  C   UNL     1      -7.303   1.950 131.863  0.00  0.00    +0.000 A 
ENDROOT
BRANCH   7   8
ATOM      8  C   UNL     1      -7.086   3.337 132.301  0.00  0.00    +0.000 C 
ATOM      9  O   UNL     1      -6.198   3.686 133.076  0.00  0.00    +0.000 OA
ATOM     10  N   UNL     1      -7.936   4.214 131.745  0.00  0.00    +0.000 N 
ATOM     11  C   UNL     1      -7.400   5.236 130.886  0.00  0.00    +0.000 C 
ATOM     12  C   UNL     1      -7.993   6.543 131.334  0.00  0.00    +0.000 C 
ATOM     13  C   UNL     1      -9.537   6.461 131.369  0.00  0.00    +0.000 C 
ATOM     14  C   UNL     1     -10.015   5.311 132.273  0.00  0.00    +0.000 C 
ATOM     15  C   UNL     1      -9.361   4.037 131.866  0.00  0.00    +0.000 C 
BRANCH  13  16
ATOM     16  N   UNL     1     -10.127   6.512 129.983  0.00  0.00    +0.000 N 
ATOM     17  C   UNL     1      -9.702   5.743 128.900  0.00  0.00    +0.000 C 
ATOM     18  O   UNL     1      -9.516   4.545 128.850  0.00  0.00    +0.000 OA
ATOM     19  O   UNL     1      -9.472   6.462 127.775  0.00  0.00    +0.000 OA
ATOM     20  C   UNL     1     -10.703   6.887 127.246  0.00  0.00    +0.000 C 
ATOM     21  C   UNL     1     -11.479   7.610 128.302  0.00  0.00    +0.000 A 
ATOM     22  C   UNL     1     -12.522   8.444 127.914  0.00  0.00    +0.000 A 
ATOM     23  C   UNL     1     -13.261   9.107 128.882  0.00  0.00    +0.000 A 
ATOM     24  C   UNL     1     -12.970   8.923 130.231  0.00  0.00    +0.000 A 
ATOM     25  C   UNL     1     -11.930   8.085 130.627  0.00  0.00    +0.000 A 
ATOM     26  C   UNL     1     -11.166   7.429 129.665  0.00  0.00    +0.000 A 
ENDBRANCH  13  16
ENDBRANCH   7   8
BRANCH   1  28
ATOM     27  C   UNL     1      -5.748   0.058 134.063  0.00  0.00    +0.000 C 
ATOM     28  O   UNL     1      -7.024   0.625 133.820  0.00  0.00    +0.000 OA
ENDBRANCH   1  28
BRANCH   3  29
ATOM     29  O   UNL     1      -8.197  -1.724 129.780  0.00  0.00    +0.000 OA
BRANCH  29  30
ATOM     30  C   UNL     1      -7.290  -2.426 128.810  0.00  0.00    +0.000 C 
ATOM     31  C   UNL     1      -5.851  -1.814 128.616  0.00  0.00    +0.000 C 
ATOM     32  C   UNL     1      -5.839  -0.568 127.785  0.00  0.00    +0.000 C 
ATOM     33  N   UNL     1      -6.659  -0.997 126.606  0.00  0.00    +0.000 NA
ATOM     34  C   UNL     1      -8.082  -1.677 126.699  0.00  0.00    +0.000 C 
ATOM     35  C   UNL     1      -7.959  -2.870 127.512  0.00  0.00    +0.000 C 
BRANCH  33  36
ATOM     36  C   UNL     1      -6.095  -0.920 125.307  0.00  0.00    +0.000 C 
ATOM     37  C   UNL     1      -6.019  -2.405 124.854  0.00  0.00    +0.000 C 
ATOM     38  C   UNL     1      -6.191  -2.380 123.362  0.00  0.00    +0.000 C 
ATOM     39  C   UNL     1      -7.600  -1.900 123.030  0.00  0.00    +0.000 C 
ATOM     40  C   UNL     1      -7.907  -0.549 123.610  0.00  0.00    +0.000 A 
ATOM     41  C   UNL     1      -7.066   0.047 124.564  0.00  0.00    +0.000 A 
ATOM     42  C   UNL     1      -7.553   1.227 125.232  0.00  0.00    +0.000 A 
ATOM     43  C   UNL     1      -8.880   1.656 125.080  0.00  0.00    +0.000 A 
ATOM     44  C   UNL     1      -9.660   1.047 124.110  0.00  0.00    +0.000 A 
ATOM     45  N   UNL     1      -9.189  -0.033 123.366  0.00  0.00    +0.000 N 
ATOM     46  O   UNL     1      -9.976  -0.605 122.542  0.00  0.00    +0.000 OA
ENDBRANCH  33  36
ENDBRANCH  29  30
ENDBRANCH   3  29
TORSDOF 6
ENDMDL
MODEL 2
REMARK VINA RESULT:     -11.0      1.756      2.641
REMARK  Name = CHEMBL68800
REMARK  7 active torsions:
REMARK  status: ('A' for Active; 'I' for Inactive)
REMARK    1  A    between atoms: C_1  and  O_2
REMARK    2  A    between atoms: O_2  and  C_3
REMARK    3  A    between atoms: C_5  and  O_6
REMARK    4  A    between atoms: O_6  and  C_7
REMARK    5  A    between atoms: N_10  and  C_11
REMARK    6  A    between atoms: C_27  and  C_28
REMARK    7  A    between atoms: C_33  and  N_34
REMARK                            x       y       z     vdW  Elec       q    Type
REMARK                         _______ _______ _______ _____ _____    ______ ____
ROOT
ATOM      1  C   UNL     1      -7.266  -0.654 131.195  0.00  0.00    +0.000 A 
ATOM      2  C   UNL     1      -7.077  -1.634 130.124  0.00  0.00    +0.000 A 
ATOM      3  C   UNL     1      -6.298  -1.310 129.072  0.00  0.00    +0.000 A 
ATOM      4  C   UNL     1      -5.872  -0.056 129.332  0.00  0.00    +0.000 A 
ATOM      5  F   UNL     1      -5.180   0.517 128.438  0.00  0.00    +0.000 F 
ATOM      6  C   UNL     1      -5.886   0.931 130.254  0.00  0.00    +0.000 A 
ATOM      7  C   UNL     1      -6.640   0.621 131.284  0.00  0.00    +0.000 A 
ENDROOT
BRANCH   7   8
ATOM      8  C   UNL     1      -6.669   1.738 132.241  0.00  0.00    +0.000 C 
ATOM      9  O   UNL     1      -5.935   1.825 133.224  0.00  0.00    +0.000 OA
ATOM     10  N   UNL     1      -7.559   2.691 131.926  0.00  0.00    +0.000 N 
ATOM     11  C   UNL     1      -7.070   4.008 131.614  0.00  0.00    +0.000 C 
ATOM     12  C   UNL     1      -7.885   4.982 132.419  0.00  0.00    +0.000 C 
ATOM     13  C   UNL     1      -9.397   4.769 132.169  0.00  0.00    +0.000 C 
ATOM     14  C   UNL     1      -9.817   3.322 132.483  0.00  0.00    +0.000 C 
ATOM     15  C   UNL     1      -8.950   2.367 131.738  0.00  0.00    +0.000 C 
BRANCH  13  16
ATOM     16  N   UNL     1      -9.820   5.312 130.828  0.00  0.00    +0.000 N 
ATOM     17  C   UNL     1      -9.247   4.966 129.604  0.00  0.00    +0.000 C 
ATOM     18  O   UNL     1      -9.023   3.860 129.161  0.00  0.00    +0.000 OA
ATOM     19  O   UNL     1      -8.906   6.031 128.839  0.00  0.00    +0.000 OA
ATOM     20  C   UNL     1     -10.077   6.634 128.348  0.00  0.00    +0.000 C 
ATOM     21  C   UNL     1     -10.993   6.951 129.488  0.00  0.00    +0.000 A 
ATOM     22  C   UNL     1     -12.006   7.884 129.294  0.00  0.00    +0.000 A 
ATOM     23  C   UNL     1     -12.873   8.176 130.335  0.00  0.00    +0.000 A 
ATOM     24  C   UNL     1     -12.739   7.526 131.560  0.00  0.00    +0.000 A 
ATOM     25  C   UNL     1     -11.730   6.587 131.759  0.00  0.00    +0.000 A 
ATOM     26  C   UNL     1     -10.839   6.298 130.729  0.00  0.00    +0.000 A 
ENDBRANCH  13  16
ENDBRANCH   7   8
BRANCH   1  28
ATOM     27  C   UNL     1      -7.679  -1.929 133.009  0.00  0.00    +0.000 C 
ATOM     28  O   UNL     1      -8.208  -0.961 132.119  0.00  0.00    +0.000 OA
ENDBRANCH   1  28
BRANCH   3  29
ATOM     29  O   UNL     1      -6.019  -2.083 127.977  0.00  0.00    +0.000 OA
BRANCH  29  30
ATOM     30  C   UNL     1      -6.871  -2.256 126.752  0.00  0.00    +0.000 C 
ATOM     31  C   UNL     1      -6.113  -2.410 125.378  0.00  0.00    +0.000 C 
ATOM     32  C   UNL     1      -5.556  -1.121 124.856  0.00  0.00    +0.000 C 
ATOM     33  N   UNL     1      -6.746  -0.218 124.983  0.00  0.00    +0.000 NA
ATOM     34  C   UNL     1      -7.607  -0.044 126.295  0.00  0.00    +0.000 C 
ATOM     35  C   UNL     1      -8.097  -1.349 126.689  0.00  0.00    +0.000 C 
BRANCH  33  36
ATOM     36  C   UNL     1      -7.237   0.445 123.829  0.00  0.00    +0.000 C 
ATOM     37  C   UNL     1      -8.716  -0.026 123.740  0.00  0.00    +0.000 C 
ATOM     38  C   UNL     1      -9.466   1.116 123.118  0.00  0.00    +0.000 C 
ATOM     39  C   UNL     1      -9.448   2.304 124.075  0.00  0.00    +0.000 C 
ATOM     40  C   UNL     1      -8.058   2.735 124.444  0.00  0.00    +0.000 A 
ATOM     41  C   UNL     1      -6.939   1.944 124.136  0.00  0.00    +0.000 A 
ATOM     42  C   UNL     1      -5.680   2.318 124.726  0.00  0.00    +0.000 A 
ATOM     43  C   UNL     1      -5.603   3.312 125.713  0.00  0.00    +0.000 A 
ATOM     44  C   UNL     1      -6.731   4.078 125.962  0.00  0.00    +0.000 A 
ATOM     45  N   UNL     1      -7.946   3.815 125.333  0.00  0.00    +0.000 N 
ATOM     46  O   UNL     1      -8.970   4.501 125.658  0.00  0.00    +0.000 OA
ENDBRANCH  33  36
ENDBRANCH  29  30
ENDBRANCH   3  29
TORSDOF 6
ENDMDL
MODEL 3
REMARK VINA RESULT:     -10.6      1.987      3.522
REMARK  Name = CHEMBL68800
REMARK  7 active torsions:
REMARK  status: ('A' for Active; 'I' for Inactive)
REMARK    1  A    between atoms: C_1  and  O_2
REMARK    2  A    between atoms: O_2  and  C_3
REMARK    3  A    between atoms: C_5  and  O_6
REMARK    4  A    between atoms: O_6  and  C_7
REMARK    5  A    between atoms: N_10  and  C_11
REMARK    6  A    between atoms: C_27  and  C_28
REMARK    7  A    between atoms: C_33  and  N_34
REMARK                            x       y       z     vdW  Elec       q    Type
REMARK                         _______ _______ _______ _____ _____    ______ ____
ROOT
ATOM      1  C   UNL     1      -6.227  -0.294 129.847  0.00  0.00    +0.000 A 
ATOM      2  C   UNL     1      -5.981  -1.003 128.591  0.00  0.00    +0.000 A 
ATOM      3  C   UNL     1      -6.696  -2.114 128.318  0.00  0.00    +0.000 A 
ATOM      4  C   UNL     1      -7.514  -2.267 129.380  0.00  0.00    +0.000 A 
ATOM      5  F   UNL     1      -8.241  -3.306 129.405  0.00  0.00    +0.000 F 
ATOM      6  C   UNL     1      -7.910  -1.704 130.542  0.00  0.00    +0.000 A 
ATOM      7  C   UNL     1      -7.221  -0.619 130.813  0.00  0.00    +0.000 A 
ENDROOT
BRANCH   7   8
ATOM      8  C   UNL     1      -7.646  -0.063 132.107  0.00  0.00    +0.000 C 
ATOM      9  O   UNL     1      -7.612  -0.681 133.170  0.00  0.00    +0.000 OA
ATOM     10  N   UNL     1      -8.050   1.214 132.035  0.00  0.00    +0.000 N 
ATOM     11  C   UNL     1      -7.299   2.212 132.747  0.00  0.00    +0.000 C 
ATOM     12  C   UNL     1      -8.287   3.039 133.521  0.00  0.00    +0.000 C 
ATOM     13  C   UNL     1      -9.388   3.593 132.586  0.00  0.00    +0.000 C 
ATOM     14  C   UNL     1     -10.104   2.459 131.831  0.00  0.00    +0.000 C 
ATOM     15  C   UNL     1      -9.105   1.603 131.133  0.00  0.00    +0.000 C 
BRANCH  13  16
ATOM     16  N   UNL     1      -8.879   4.738 131.748  0.00  0.00    +0.000 N 
ATOM     17  C   UNL     1      -7.545   5.134 131.652  0.00  0.00    +0.000 C 
ATOM     18  O   UNL     1      -6.569   4.449 131.432  0.00  0.00    +0.000 OA
ATOM     19  O   UNL     1      -7.354   6.461 131.840  0.00  0.00    +0.000 OA
ATOM     20  C   UNL     1      -7.847   7.156 130.722  0.00  0.00    +0.000 C 
ATOM     21  C   UNL     1      -9.269   6.759 130.474  0.00  0.00    +0.000 A 
ATOM     22  C   UNL     1     -10.068   7.585 129.691  0.00  0.00    +0.000 A 
ATOM     23  C   UNL     1     -11.381   7.222 129.438  0.00  0.00    +0.000 A 
ATOM     24  C   UNL     1     -11.889   6.031 129.950  0.00  0.00    +0.000 A 
ATOM     25  C   UNL     1     -11.092   5.196 130.730  0.00  0.00    +0.000 A 
ATOM     26  C   UNL     1      -9.777   5.558 131.011  0.00  0.00    +0.000 A 
ENDBRANCH  13  16
ENDBRANCH   7   8
BRANCH   1  28
ATOM     27  C   UNL     1      -5.602   1.808 129.317  0.00  0.00    +0.000 C 
ATOM     28  O   UNL     1      -5.348   0.692 130.153  0.00  0.00    +0.000 OA
ENDBRANCH   1  28
BRANCH   3  29
ATOM     29  O   UNL     1      -6.596  -2.913 127.210  0.00  0.00    +0.000 OA
BRANCH  29  30
ATOM     30  C   UNL     1      -7.515  -2.931 126.022  0.00  0.00    +0.000 C 
ATOM     31  C   UNL     1      -6.837  -3.047 124.604  0.00  0.00    +0.000 C 
ATOM     32  C   UNL     1      -6.201  -1.772 124.140  0.00  0.00    +0.000 C 
ATOM     33  N   UNL     1      -7.305  -0.789 124.389  0.00  0.00    +0.000 NA
ATOM     34  C   UNL     1      -8.087  -0.641 125.753  0.00  0.00    +0.000 C 
ATOM     35  C   UNL     1      -8.664  -1.928 126.084  0.00  0.00    +0.000 C 
BRANCH  33  36
ATOM     36  C   UNL     1      -7.793  -0.010 123.309  0.00  0.00    +0.000 C 
ATOM     37  C   UNL     1      -9.314  -0.332 123.285  0.00  0.00    +0.000 C 
ATOM     38  C   UNL     1      -9.982   0.914 122.779  0.00  0.00    +0.000 C 
ATOM     39  C   UNL     1      -9.794   2.031 123.801  0.00  0.00    +0.000 C 
ATOM     40  C   UNL     1      -8.349   2.303 124.107  0.00  0.00    +0.000 A 
ATOM     41  C   UNL     1      -7.333   1.431 123.684  0.00  0.00    +0.000 A 
ATOM     42  C   UNL     1      -6.011   1.645 124.214  0.00  0.00    +0.000 A 
ATOM     43  C   UNL     1      -5.781   2.562 125.251  0.00  0.00    +0.000 A 
ATOM     44  C   UNL     1      -6.812   3.414 125.615  0.00  0.00    +0.000 A 
ATOM     45  N   UNL     1      -8.081   3.308 125.049  0.00  0.00    +0.000 N 
ATOM     46  O   UNL     1      -9.012   4.065 125.477  0.00  0.00    +0.000 OA
ENDBRANCH  33  36
ENDBRANCH  29  30
ENDBRANCH   3  29
TORSDOF 6
ENDMDL
MODEL 4
REMARK VINA RESULT:     -10.6      2.968      9.053
REMARK  Name = CHEMBL68800
REMARK  7 active torsions:
REMARK  status: ('A' for Active; 'I' for Inactive)
REMARK    1  A    between atoms: C_1  and  O_2
REMARK    2  A    between atoms: O_2  and  C_3
REMARK    3  A    between atoms: C_5  and  O_6
REMARK    4  A    between atoms: O_6  and  C_7
REMARK    5  A    between atoms: N_10  and  C_11
REMARK    6  A    between atoms: C_27  and  C_28
REMARK    7  A    between atoms: C_33  and  N_34
REMARK                            x       y       z     vdW  Elec       q    Type
REMARK                         _______ _______ _______ _____ _____    ______ ____
ROOT
ATOM      1  C   UNL     1      -6.901   0.585 133.003  0.00  0.00    +0.000 A 
ATOM      2  C   UNL     1      -7.275   1.944 133.394  0.00  0.00    +0.000 A 
ATOM      3  C   UNL     1      -8.443   2.453 132.951  0.00  0.00    +0.000 A 
ATOM      4  C   UNL     1      -8.986   1.469 132.203  0.00  0.00    +0.000 A 
ATOM      5  F   UNL     1     -10.066   1.735 131.594  0.00  0.00    +0.000 F 
ATOM      6  C   UNL     1      -8.827   0.189 131.804  0.00  0.00    +0.000 A 
ATOM      7  C   UNL     1      -7.693  -0.315 132.235  0.00  0.00    +0.000 A 
ENDROOT
BRANCH   7   8
ATOM      8  C   UNL     1      -7.533  -1.691 131.741  0.00  0.00    +0.000 C 
ATOM      9  O   UNL     1      -7.617  -2.694 132.448  0.00  0.00    +0.000 OA
ATOM     10  N   UNL     1      -7.318  -1.765 130.419  0.00  0.00    +0.000 N 
ATOM     11  C   UNL     1      -8.300  -2.426 129.601  0.00  0.00    +0.000 C 
ATOM     12  C   UNL     1      -7.558  -3.389 128.716  0.00  0.00    +0.000 C 
ATOM     13  C   UNL     1      -6.438  -2.663 127.935  0.00  0.00    +0.000 C 
ATOM     14  C   UNL     1      -5.465  -1.947 128.888  0.00  0.00    +0.000 C 
ATOM     15  C   UNL     1      -6.222  -1.054 129.810  0.00  0.00    +0.000 C 
BRANCH  13  16
ATOM     16  N   UNL     1      -6.994  -1.839 126.803  0.00  0.00    +0.000 N 
ATOM     17  C   UNL     1      -7.967  -0.848 126.933  0.00  0.00    +0.000 C 
ATOM     18  O   UNL     1      -8.001   0.079 127.715  0.00  0.00    +0.000 OA
ATOM     19  O   UNL     1      -8.994  -0.971 126.059  0.00  0.00    +0.000 OA
ATOM     20  C   UNL     1      -8.541  -0.636 124.771  0.00  0.00    +0.000 C 
ATOM     21  C   UNL     1      -7.334  -1.456 124.437  0.00  0.00    +0.000 A 
ATOM     22  C   UNL     1      -6.960  -1.583 123.104  0.00  0.00    +0.000 A 
ATOM     23  C   UNL     1      -5.835  -2.325 122.779  0.00  0.00    +0.000 A 
ATOM     24  C   UNL     1      -5.077  -2.922 123.784  0.00  0.00    +0.000 A 
ATOM     25  C   UNL     1      -5.444  -2.793 125.122  0.00  0.00    +0.000 A 
ATOM     26  C   UNL     1      -6.583  -2.069 125.461  0.00  0.00    +0.000 A 
ENDBRANCH  13  16
ENDBRANCH   7   8
BRANCH   1  28
ATOM     27  C   UNL     1      -5.619  -0.270 134.651  0.00  0.00    +0.000 C 
ATOM     28  O   UNL     1      -5.638   0.205 133.315  0.00  0.00    +0.000 OA
ENDBRANCH   1  28
BRANCH   3  29
ATOM     29  O   UNL     1      -8.950   3.701 133.196  0.00  0.00    +0.000 OA
BRANCH  29  30
ATOM     30  C   UNL     1      -8.658   4.962 132.434  0.00  0.00    +0.000 C 
ATOM     31  C   UNL     1      -8.567   4.836 130.866  0.00  0.00    +0.000 C 
ATOM     32  C   UNL     1      -7.294   4.208 130.390  0.00  0.00    +0.000 C 
ATOM     33  N   UNL     1      -6.276   4.994 131.160  0.00  0.00    +0.000 NA
ATOM     34  C   UNL     1      -6.315   5.229 132.721  0.00  0.00    +0.000 C 
ATOM     35  C   UNL     1      -7.581   5.850 133.052  0.00  0.00    +0.000 C 
BRANCH  33  36
ATOM     36  C   UNL     1      -5.265   5.694 130.454  0.00  0.00    +0.000 C 
ATOM     37  C   UNL     1      -5.516   7.180 130.837  0.00  0.00    +0.000 C 
ATOM     38  C   UNL     1      -4.166   7.837 130.812  0.00  0.00    +0.000 C 
ATOM     39  C   UNL     1      -3.303   7.245 131.922  0.00  0.00    +0.000 C 
ATOM     40  C   UNL     1      -3.158   5.754 131.816  0.00  0.00    +0.000 A 
ATOM     41  C   UNL     1      -3.956   5.000 130.941  0.00  0.00    +0.000 A 
ATOM     42  C   UNL     1      -3.912   3.567 131.071  0.00  0.00    +0.000 A 
ATOM     43  C   UNL     1      -3.249   2.952 132.144  0.00  0.00    +0.000 A 
ATOM     44  C   UNL     1      -2.457   3.739 132.964  0.00  0.00    +0.000 A 
ATOM     45  N   UNL     1      -2.390   5.122 132.806  0.00  0.00    +0.000 N 
ATOM     46  O   UNL     1      -1.708   5.806 133.637  0.00  0.00    +0.000 OA
ENDBRANCH  33  36
ENDBRANCH  29  30
ENDBRANCH   3  29
TORSDOF 6
ENDMDL
MODEL 5
REMARK VINA RESULT:     -10.5      3.489      9.442
REMARK  Name = CHEMBL68800
REMARK  7 active torsions:
REMARK  status: ('A' for Active; 'I' for Inactive)
REMARK    1  A    between atoms: C_1  and  O_2
REMARK    2  A    between atoms: O_2  and  C_3
REMARK    3  A    between atoms: C_5  and  O_6
REMARK    4  A    between atoms: O_6  and  C_7
REMARK    5  A    between atoms: N_10  and  C_11
REMARK    6  A    between atoms: C_27  and  C_28
REMARK    7  A    between atoms: C_33  and  N_34
REMARK                            x       y       z     vdW  Elec       q    Type
REMARK                         _______ _______ _______ _____ _____    ______ ____
ROOT
ATOM      1  C   UNL     1      -3.251   4.580 127.447  0.00  0.00    +0.000 A 
ATOM      2  C   UNL     1      -2.420   4.927 128.601  0.00  0.00    +0.000 A 
ATOM      3  C   UNL     1      -2.943   5.702 129.572  0.00  0.00    +0.000 A 
ATOM      4  C   UNL     1      -4.204   5.960 129.166  0.00  0.00    +0.000 A 
ATOM      5  F   UNL     1      -4.890   6.755 129.878  0.00  0.00    +0.000 F 
ATOM      6  C   UNL     1      -5.121   5.685 128.213  0.00  0.00    +0.000 A 
ATOM      7  C   UNL     1      -4.620   4.926 127.265  0.00  0.00    +0.000 A 
ENDROOT
BRANCH   7   8
ATOM      8  C   UNL     1      -5.631   4.689 126.224  0.00  0.00    +0.000 C 
ATOM      9  O   UNL     1      -5.998   5.536 125.411  0.00  0.00    +0.000 OA
ATOM     10  N   UNL     1      -6.105   3.434 126.211  0.00  0.00    +0.000 N 
ATOM     11  C   UNL     1      -5.862   2.621 125.050  0.00  0.00    +0.000 C 
ATOM     12  C   UNL     1      -7.177   2.006 124.660  0.00  0.00    +0.000 C 
ATOM     13  C   UNL     1      -7.810   1.261 125.859  0.00  0.00    +0.000 C 
ATOM     14  C   UNL     1      -7.987   2.196 127.068  0.00  0.00    +0.000 C 
ATOM     15  C   UNL     1      -6.692   2.857 127.394  0.00  0.00    +0.000 C 
BRANCH  13  16
ATOM     16  N   UNL     1      -7.118  -0.052 126.124  0.00  0.00    +0.000 N 
ATOM     17  C   UNL     1      -6.841  -0.574 127.388  0.00  0.00    +0.000 C 
ATOM     18  O   UNL     1      -7.591  -0.699 128.333  0.00  0.00    +0.000 OA
ATOM     19  O   UNL     1      -5.558  -0.978 127.544  0.00  0.00    +0.000 OA
ATOM     20  C   UNL     1      -5.355  -2.151 126.796  0.00  0.00    +0.000 C 
ATOM     21  C   UNL     1      -5.769  -1.917 125.377  0.00  0.00    +0.000 A 
ATOM     22  C   UNL     1      -5.301  -2.780 124.392  0.00  0.00    +0.000 A 
ATOM     23  C   UNL     1      -5.688  -2.587 123.076  0.00  0.00    +0.000 A 
ATOM     24  C   UNL     1      -6.554  -1.547 122.747  0.00  0.00    +0.000 A 
ATOM     25  C   UNL     1      -7.031  -0.682 123.729  0.00  0.00    +0.000 A 
ATOM     26  C   UNL     1      -6.633  -0.851 125.053  0.00  0.00    +0.000 A 
ENDBRANCH  13  16
ENDBRANCH   7   8
BRANCH   1  28
ATOM     27  C   UNL     1      -1.737   2.985 126.945  0.00  0.00    +0.000 C 
ATOM     28  O   UNL     1      -2.613   3.968 126.420  0.00  0.00    +0.000 OA
ENDBRANCH   1  28
BRANCH   3  29
ATOM     29  O   UNL     1      -2.319   6.141 130.710  0.00  0.00    +0.000 OA
BRANCH  29  30
ATOM     30  C   UNL     1      -2.415   5.539 132.083  0.00  0.00    +0.000 C 
ATOM     31  C   UNL     1      -2.620   3.978 132.159  0.00  0.00    +0.000 C 
ATOM     32  C   UNL     1      -4.015   3.542 131.829  0.00  0.00    +0.000 C 
ATOM     33  N   UNL     1      -4.820   4.469 132.690  0.00  0.00    +0.000 NA
ATOM     34  C   UNL     1      -4.645   6.038 132.731  0.00  0.00    +0.000 C 
ATOM     35  C   UNL     1      -3.268   6.329 133.072  0.00  0.00    +0.000 C 
BRANCH  33  36
ATOM     36  C   UNL     1      -5.722   3.922 133.638  0.00  0.00    +0.000 C 
ATOM     37  C   UNL     1      -5.515   4.814 134.894  0.00  0.00    +0.000 C 
ATOM     38  C   UNL     1      -6.846   4.844 135.590  0.00  0.00    +0.000 C 
ATOM     39  C   UNL     1      -7.855   5.571 134.705  0.00  0.00    +0.000 C 
ATOM     40  C   UNL     1      -7.993   4.947 133.347  0.00  0.00    +0.000 A 
ATOM     41  C   UNL     1      -7.088   3.976 132.889  0.00  0.00    +0.000 A 
ATOM     42  C   UNL     1      -7.159   3.605 131.500  0.00  0.00    +0.000 A 
ATOM     43  C   UNL     1      -7.965   4.314 130.595  0.00  0.00    +0.000 A 
ATOM     44  C   UNL     1      -8.856   5.247 131.102  0.00  0.00    +0.000 A 
ATOM     45  N   UNL     1      -8.892   5.560 132.459  0.00  0.00    +0.000 N 
ATOM     46  O   UNL     1      -9.676   6.481 132.859  0.00  0.00    +0.000 OA
ENDBRANCH  33  36
ENDBRANCH  29  30
ENDBRANCH   3  29
TORSDOF 6
ENDMDL
MODEL 6
REMARK VINA RESULT:     -10.3      2.249      2.888
REMARK  Name = CHEMBL68800
REMARK  7 active torsions:
REMARK  status: ('A' for Active; 'I' for Inactive)
REMARK    1  A    between atoms: C_1  and  O_2
REMARK    2  A    between atoms: O_2  and  C_3
REMARK    3  A    between atoms: C_5  and  O_6
REMARK    4  A    between atoms: O_6  and  C_7
REMARK    5  A    between atoms: N_10  and  C_11
REMARK    6  A    between atoms: C_27  and  C_28
REMARK    7  A    between atoms: C_33  and  N_34
REMARK                            x       y       z     vdW  Elec       q    Type
REMARK                         _______ _______ _______ _____ _____    ______ ____
ROOT
ATOM      1  C   UNL     1      -5.018   1.801 131.893  0.00  0.00    +0.000 A 
ATOM      2  C   UNL     1      -4.615   0.544 131.263  0.00  0.00    +0.000 A 
ATOM      3  C   UNL     1      -4.931  -0.620 131.867  0.00  0.00    +0.000 A 
ATOM      4  C   UNL     1      -5.593  -0.258 132.986  0.00  0.00    +0.000 A 
ATOM      5  F   UNL     1      -5.928  -1.185 133.785  0.00  0.00    +0.000 F 
ATOM      6  C   UNL     1      -6.093   0.797 133.665  0.00  0.00    +0.000 A 
ATOM      7  C   UNL     1      -5.793   1.934 133.080  0.00  0.00    +0.000 A 
ENDROOT
BRANCH   7   8
ATOM      8  C   UNL     1      -6.311   3.060 133.872  0.00  0.00    +0.000 C 
ATOM      9  O   UNL     1      -5.861   3.401 134.965  0.00  0.00    +0.000 OA
ATOM     10  N   UNL     1      -7.315   3.720 133.274  0.00  0.00    +0.000 N 
ATOM     11  C   UNL     1      -7.110   5.097 132.912  0.00  0.00    +0.000 C 
ATOM     12  C   UNL     1      -8.299   5.866 133.416  0.00  0.00    +0.000 C 
ATOM     13  C   UNL     1      -9.615   5.242 132.896  0.00  0.00    +0.000 C 
ATOM     14  C   UNL     1      -9.725   3.758 133.289  0.00  0.00    +0.000 C 
ATOM     15  C   UNL     1      -8.504   3.025 132.851  0.00  0.00    +0.000 C 
BRANCH  13  16
ATOM     16  N   UNL     1      -9.847   5.568 131.443  0.00  0.00    +0.000 N 
ATOM     17  C   UNL     1      -9.079   5.094 130.380  0.00  0.00    +0.000 C 
ATOM     18  O   UNL     1      -8.743   3.954 130.141  0.00  0.00    +0.000 OA
ATOM     19  O   UNL     1      -8.668   6.063 129.527  0.00  0.00    +0.000 OA
ATOM     20  C   UNL     1      -9.772   6.517 128.786  0.00  0.00    +0.000 C 
ATOM     21  C   UNL     1     -10.866   6.930 129.720  0.00  0.00    +0.000 A 
ATOM     22  C   UNL     1     -11.875   7.761 129.245  0.00  0.00    +0.000 A 
ATOM     23  C   UNL     1     -12.903   8.139 130.093  0.00  0.00    +0.000 A 
ATOM     24  C   UNL     1     -12.934   7.673 131.405  0.00  0.00    +0.000 A 
ATOM     25  C   UNL     1     -11.930   6.836 131.886  0.00  0.00    +0.000 A 
ATOM     26  C   UNL     1     -10.879   6.465 131.052  0.00  0.00    +0.000 A 
ENDBRANCH  13  16
ENDBRANCH   7   8
BRANCH   1  28
ATOM     27  C   UNL     1      -5.058   3.103 130.051  0.00  0.00    +0.000 C 
ATOM     28  O   UNL     1      -4.505   2.930 131.345  0.00  0.00    +0.000 OA
ENDBRANCH   1  28
BRANCH   3  29
ATOM     29  O   UNL     1      -4.628  -1.885 131.440  0.00  0.00    +0.000 OA
BRANCH  29  30
ATOM     30  C   UNL     1      -5.512  -2.811 130.654  0.00  0.00    +0.000 C 
ATOM     31  C   UNL     1      -4.831  -3.616 129.483  0.00  0.00    +0.000 C 
ATOM     32  C   UNL     1      -4.556  -2.784 128.268  0.00  0.00    +0.000 C 
ATOM     33  N   UNL     1      -5.880  -2.109 128.071  0.00  0.00    +0.000 NA
ATOM     34  C   UNL     1      -6.670  -1.334 129.197  0.00  0.00    +0.000 C 
ATOM     35  C   UNL     1      -6.885  -2.243 130.304  0.00  0.00    +0.000 C 
BRANCH  33  36
ATOM     36  C   UNL     1      -6.559  -2.267 126.836  0.00  0.00    +0.000 C 
ATOM     37  C   UNL     1      -7.958  -2.801 127.255  0.00  0.00    +0.000 C 
ATOM     38  C   UNL     1      -8.915  -2.278 126.222  0.00  0.00    +0.000 C 
ATOM     39  C   UNL     1      -8.983  -0.757 126.330  0.00  0.00    +0.000 C 
ATOM     40  C   UNL     1      -7.641  -0.102 126.174  0.00  0.00    +0.000 A 
ATOM     41  C   UNL     1      -6.452  -0.848 126.198  0.00  0.00    +0.000 A 
ATOM     42  C   UNL     1      -5.212  -0.120 126.274  0.00  0.00    +0.000 A 
ATOM     43  C   UNL     1      -5.192   1.264 126.506  0.00  0.00    +0.000 A 
ATOM     44  C   UNL     1      -6.391   1.956 126.451  0.00  0.00    +0.000 A 
ATOM     45  N   UNL     1      -7.607   1.298 126.273  0.00  0.00    +0.000 N 
ATOM     46  O   UNL     1      -8.686   1.975 126.309  0.00  0.00    +0.000 OA
ENDBRANCH  33  36
ENDBRANCH  29  30
ENDBRANCH   3  29
TORSDOF 6
ENDMDL
MODEL 7
REMARK VINA RESULT:     -10.3      3.031      4.601
REMARK  Name = CHEMBL68800
REMARK  7 active torsions:
REMARK  status: ('A' for Active; 'I' for Inactive)
REMARK    1  A    between atoms: C_1  and  O_2
REMARK    2  A    between atoms: O_2  and  C_3
REMARK    3  A    between atoms: C_5  and  O_6
REMARK    4  A    between atoms: O_6  and  C_7
REMARK    5  A    between atoms: N_10  and  C_11
REMARK    6  A    between atoms: C_27  and  C_28
REMARK    7  A    between atoms: C_33  and  N_34
REMARK                            x       y       z     vdW  Elec       q    Type
REMARK                         _______ _______ _______ _____ _____    ______ ____
ROOT
ATOM      1  C   UNL     1      -6.202  -0.537 129.768  0.00  0.00    +0.000 A 
ATOM      2  C   UNL     1      -6.092  -1.317 128.535  0.00  0.00    +0.000 A 
ATOM      3  C   UNL     1      -7.014  -2.269 128.280  0.00  0.00    +0.000 A 
ATOM      4  C   UNL     1      -7.855  -2.225 129.333  0.00  0.00    +0.000 A 
ATOM      5  F   UNL     1      -8.777  -3.095 129.375  0.00  0.00    +0.000 F 
ATOM      6  C   UNL     1      -8.141  -1.559 130.474  0.00  0.00    +0.000 A 
ATOM      7  C   UNL     1      -7.250  -0.628 130.727  0.00  0.00    +0.000 A 
ENDROOT
BRANCH   7   8
ATOM      8  C   UNL     1      -7.567   0.039 131.999  0.00  0.00    +0.000 C 
ATOM      9  O   UNL     1      -7.837  -0.554 133.042  0.00  0.00    +0.000 OA
ATOM     10  N   UNL     1      -7.501   1.377 131.934  0.00  0.00    +0.000 N 
ATOM     11  C   UNL     1      -6.515   2.055 132.734  0.00  0.00    +0.000 C 
ATOM     12  C   UNL     1      -7.222   3.171 133.451  0.00  0.00    +0.000 C 
ATOM     13  C   UNL     1      -7.982   4.071 132.449  0.00  0.00    +0.000 C 
ATOM     14  C   UNL     1      -8.977   3.254 131.606  0.00  0.00    +0.000 C 
ATOM     15  C   UNL     1      -8.277   2.107 130.963  0.00  0.00    +0.000 C 
BRANCH  13  16
ATOM     16  N   UNL     1      -7.043   4.971 131.689  0.00  0.00    +0.000 N 
ATOM     17  C   UNL     1      -7.141   5.273 130.330  0.00  0.00    +0.000 C 
ATOM     18  O   UNL     1      -8.113   5.648 129.709  0.00  0.00    +0.000 OA
ATOM     19  O   UNL     1      -5.983   5.108 129.648  0.00  0.00    +0.000 OA
ATOM     20  C   UNL     1      -5.089   6.130 130.013  0.00  0.00    +0.000 C 
ATOM     21  C   UNL     1      -4.939   6.154 131.502  0.00  0.00    +0.000 A 
ATOM     22  C   UNL     1      -3.836   6.797 132.054  0.00  0.00    +0.000 A 
ATOM     23  C   UNL     1      -3.692   6.842 133.431  0.00  0.00    +0.000 A 
ATOM     24  C   UNL     1      -4.655   6.265 134.255  0.00  0.00    +0.000 A 
ATOM     25  C   UNL     1      -5.765   5.625 133.709  0.00  0.00    +0.000 A 
ATOM     26  C   UNL     1      -5.912   5.552 132.327  0.00  0.00    +0.000 A 
ENDBRANCH  13  16
ENDBRANCH   7   8
BRANCH   1  28
ATOM     27  C   UNL     1      -5.095   1.318 129.118  0.00  0.00    +0.000 C 
ATOM     28  O   UNL     1      -5.146   0.260 130.061  0.00  0.00    +0.000 OA
ENDBRANCH   1  28
BRANCH   3  29
ATOM     29  O   UNL     1      -7.066  -3.103 127.195  0.00  0.00    +0.000 OA
BRANCH  29  30
ATOM     30  C   UNL     1      -7.997  -3.002 126.020  0.00  0.00    +0.000 C 
ATOM     31  C   UNL     1      -7.368  -3.249 124.596  0.00  0.00    +0.000 C 
ATOM     32  C   UNL     1      -6.552  -2.098 124.096  0.00  0.00    +0.000 C 
ATOM     33  N   UNL     1      -7.486  -0.951 124.338  0.00  0.00    +0.000 NA
ATOM     34  C   UNL     1      -8.213  -0.657 125.709  0.00  0.00    +0.000 C 
ATOM     35  C   UNL     1      -8.976  -1.832 126.076  0.00  0.00    +0.000 C 
BRANCH  33  36
ATOM     36  C   UNL     1      -7.866  -0.127 123.248  0.00  0.00    +0.000 C 
ATOM     37  C   UNL     1      -9.398  -0.364 123.129  0.00  0.00    +0.000 C 
ATOM     38  C   UNL     1      -9.966   0.926 122.611  0.00  0.00    +0.000 C 
ATOM     39  C   UNL     1      -9.778   2.012 123.666  0.00  0.00    +0.000 C 
ATOM     40  C   UNL     1      -8.342   2.199 124.061  0.00  0.00    +0.000 A 
ATOM     41  C   UNL     1      -7.351   1.280 123.680  0.00  0.00    +0.000 A 
ATOM     42  C   UNL     1      -6.054   1.411 124.291  0.00  0.00    +0.000 A 
ATOM     43  C   UNL     1      -5.837   2.295 125.359  0.00  0.00    +0.000 A 
ATOM     44  C   UNL     1      -6.840   3.196 125.680  0.00  0.00    +0.000 A 
ATOM     45  N   UNL     1      -8.077   3.171 125.038  0.00  0.00    +0.000 N 
ATOM     46  O   UNL     1      -8.989   3.970 125.427  0.00  0.00    +0.000 OA
ENDBRANCH  33  36
ENDBRANCH  29  30
ENDBRANCH   3  29
TORSDOF 6
ENDMDL
MODEL 8
REMARK VINA RESULT:     -10.2      3.028      7.834
REMARK  Name = CHEMBL68800
REMARK  7 active torsions:
REMARK  status: ('A' for Active; 'I' for Inactive)
REMARK    1  A    between atoms: C_1  and  O_2
REMARK    2  A    between atoms: O_2  and  C_3
REMARK    3  A    between atoms: C_5  and  O_6
REMARK    4  A    between atoms: O_6  and  C_7
REMARK    5  A    between atoms: N_10  and  C_11
REMARK    6  A    between atoms: C_27  and  C_28
REMARK    7  A    between atoms: C_33  and  N_34
REMARK                            x       y       z     vdW  Elec       q    Type
REMARK                         _______ _______ _______ _____ _____    ______ ____
ROOT
ATOM      1  C   UNL     1      -5.680  -0.721 131.186  0.00  0.00    +0.000 A 
ATOM      2  C   UNL     1      -5.876   0.148 132.347  0.00  0.00    +0.000 A 
ATOM      3  C   UNL     1      -7.134   0.446 132.733  0.00  0.00    +0.000 A 
ATOM      4  C   UNL     1      -7.927  -0.205 131.857  0.00  0.00    +0.000 A 
ATOM      5  F   UNL     1      -9.177  -0.014 131.956  0.00  0.00    +0.000 F 
ATOM      6  C   UNL     1      -7.926  -1.065 130.815  0.00  0.00    +0.000 A 
ATOM      7  C   UNL     1      -6.705  -1.363 130.436  0.00  0.00    +0.000 A 
ENDROOT
BRANCH   7   8
ATOM      8  C   UNL     1      -6.745  -2.261 129.271  0.00  0.00    +0.000 C 
ATOM      9  O   UNL     1      -6.784  -3.488 129.345  0.00  0.00    +0.000 OA
ATOM     10  N   UNL     1      -6.770  -1.615 128.096  0.00  0.00    +0.000 N 
ATOM     11  C   UNL     1      -7.929  -1.764 127.257  0.00  0.00    +0.000 C 
ATOM     12  C   UNL     1      -7.434  -2.089 125.876  0.00  0.00    +0.000 C 
ATOM     13  C   UNL     1      -6.411  -1.032 125.397  0.00  0.00    +0.000 C 
ATOM     14  C   UNL     1      -5.233  -0.908 126.379  0.00  0.00    +0.000 C 
ATOM     15  C   UNL     1      -5.743  -0.662 127.757  0.00  0.00    +0.000 C 
BRANCH  13  16
ATOM     16  N   UNL     1      -7.088   0.254 124.999  0.00  0.00    +0.000 N 
ATOM     17  C   UNL     1      -6.728   1.525 125.447  0.00  0.00    +0.000 C 
ATOM     18  O   UNL     1      -5.627   2.032 125.472  0.00  0.00    +0.000 OA
ATOM     19  O   UNL     1      -7.768   2.256 125.914  0.00  0.00    +0.000 OA
ATOM     20  C   UNL     1      -8.572   2.649 124.830  0.00  0.00    +0.000 C 
ATOM     21  C   UNL     1      -8.963   1.443 124.034  0.00  0.00    +0.000 A 
ATOM     22  C   UNL     1     -10.051   1.534 123.172  0.00  0.00    +0.000 A 
ATOM     23  C   UNL     1     -10.415   0.431 122.416  0.00  0.00    +0.000 A 
ATOM     24  C   UNL     1      -9.683  -0.751 122.506  0.00  0.00    +0.000 A 
ATOM     25  C   UNL     1      -8.589  -0.846 123.362  0.00  0.00    +0.000 A 
ATOM     26  C   UNL     1      -8.225   0.246 124.145  0.00  0.00    +0.000 A 
ENDBRANCH  13  16
ENDBRANCH   7   8
BRANCH   1  28
ATOM     27  C   UNL     1      -3.729  -1.813 131.487  0.00  0.00    +0.000 C 
ATOM     28  O   UNL     1      -4.407  -0.824 130.731  0.00  0.00    +0.000 OA
ENDBRANCH   1  28
BRANCH   3  29
ATOM     29  O   UNL     1      -7.512   1.249 133.776  0.00  0.00    +0.000 OA
BRANCH  29  30
ATOM     30  C   UNL     1      -7.850   2.711 133.716  0.00  0.00    +0.000 C 
ATOM     31  C   UNL     1      -9.036   3.125 132.764  0.00  0.00    +0.000 C 
ATOM     32  C   UNL     1      -8.668   3.111 131.312  0.00  0.00    +0.000 C 
ATOM     33  N   UNL     1      -7.385   3.888 131.329  0.00  0.00    +0.000 NA
ATOM     34  C   UNL     1      -6.167   3.590 132.288  0.00  0.00    +0.000 C 
ATOM     35  C   UNL     1      -6.645   3.646 133.654  0.00  0.00    +0.000 C 
BRANCH  33  36
ATOM     36  C   UNL     1      -7.274   5.055 130.531  0.00  0.00    +0.000 C 
ATOM     37  C   UNL     1      -7.071   6.190 131.573  0.00  0.00    +0.000 C 
ATOM     38  C   UNL     1      -6.218   7.219 130.887  0.00  0.00    +0.000 C 
ATOM     39  C   UNL     1      -4.838   6.626 130.622  0.00  0.00    +0.000 C 
ATOM     40  C   UNL     1      -4.892   5.368 129.804  0.00  0.00    +0.000 A 
ATOM     41  C   UNL     1      -6.105   4.702 129.562  0.00  0.00    +0.000 A 
ATOM     42  C   UNL     1      -6.035   3.391 128.970  0.00  0.00    +0.000 A 
ATOM     43  C   UNL     1      -4.810   2.724 128.816  0.00  0.00    +0.000 A 
ATOM     44  C   UNL     1      -3.643   3.434 129.048  0.00  0.00    +0.000 A 
ATOM     45  N   UNL     1      -3.667   4.744 129.522  0.00  0.00    +0.000 N 
ATOM     46  O   UNL     1      -2.564   5.322 129.793  0.00  0.00    +0.000 OA
ENDBRANCH  33  36
ENDBRANCH  29  30
ENDBRANCH   3  29
TORSDOF 6
ENDMDL
MODEL 9
REMARK VINA RESULT:     -10.2      3.200      5.471
REMARK  Name = CHEMBL68800
REMARK  7 active torsions:
REMARK  status: ('A' for Active; 'I' for Inactive)
REMARK    1  A    between atoms: C_1  and  O_2
REMARK    2  A    between atoms: O_2  and  C_3
REMARK    3  A    between atoms: C_5  and  O_6
REMARK    4  A    between atoms: O_6  and  C_7
REMARK    5  A    between atoms: N_10  and  C_11
REMARK    6  A    between atoms: C_27  and  C_28
REMARK    7  A    between atoms: C_33  and  N_34
REMARK                            x       y       z     vdW  Elec       q    Type
REMARK                         _______ _______ _______ _____ _____    ______ ____
ROOT
ATOM      1  C   UNL     1      -8.639   2.340 130.892  0.00  0.00    +0.000 A 
ATOM      2  C   UNL     1      -8.651   1.163 130.023  0.00  0.00    +0.000 A 
ATOM      3  C   UNL     1      -7.992   0.054 130.417  0.00  0.00    +0.000 A 
ATOM      4  C   UNL     1      -7.460   0.376 131.615  0.00  0.00    +0.000 A 
ATOM      5  F   UNL     1      -6.709  -0.485 132.165  0.00  0.00    +0.000 F 
ATOM      6  C   UNL     1      -7.402   1.341 132.558  0.00  0.00    +0.000 A 
ATOM      7  C   UNL     1      -8.046   2.423 132.183  0.00  0.00    +0.000 A 
ENDROOT
BRANCH   7   8
ATOM      8  C   UNL     1      -7.919   3.466 133.212  0.00  0.00    +0.000 C 
ATOM      9  O   UNL     1      -8.731   3.645 134.119  0.00  0.00    +0.000 OA
ATOM     10  N   UNL     1      -6.802   4.200 133.098  0.00  0.00    +0.000 N 
ATOM     11  C   UNL     1      -5.833   4.145 134.159  0.00  0.00    +0.000 C 
ATOM     12  C   UNL     1      -5.476   5.563 134.505  0.00  0.00    +0.000 C 
ATOM     13  C   UNL     1      -5.022   6.336 133.245  0.00  0.00    +0.000 C 
ATOM     14  C   UNL     1      -6.100   6.302 132.148  0.00  0.00    +0.000 C 
ATOM     15  C   UNL     1      -6.499   4.893 131.870  0.00  0.00    +0.000 C 
BRANCH  13  16
ATOM     16  N   UNL     1      -3.628   5.944 132.826  0.00  0.00    +0.000 N 
ATOM     17  C   UNL     1      -3.264   4.700 132.312  0.00  0.00    +0.000 C 
ATOM     18  O   UNL     1      -3.785   4.073 131.413  0.00  0.00    +0.000 OA
ATOM     19  O   UNL     1      -2.188   4.149 132.922  0.00  0.00    +0.000 OA
ATOM     20  C   UNL     1      -1.036   4.863 132.549  0.00  0.00    +0.000 C 
ATOM     21  C   UNL     1      -1.237   6.319 132.831  0.00  0.00    +0.000 A 
ATOM     22  C   UNL     1      -0.121   7.145 132.914  0.00  0.00    +0.000 A 
ATOM     23  C   UNL     1      -0.292   8.498 133.158  0.00  0.00    +0.000 A 
ATOM     24  C   UNL     1      -1.572   9.028 133.299  0.00  0.00    +0.000 A 
ATOM     25  C   UNL     1      -2.694   8.207 133.211  0.00  0.00    +0.000 A 
ATOM     26  C   UNL     1      -2.537   6.841 132.988  0.00  0.00    +0.000 A 
ENDBRANCH  13  16
ENDBRANCH   7   8
BRANCH   1  28
ATOM     27  C   UNL     1     -10.557   3.466 130.516  0.00  0.00    +0.000 C 
ATOM     28  O   UNL     1      -9.148   3.477 130.357  0.00  0.00    +0.000 OA
ENDBRANCH   1  28
BRANCH   3  29
ATOM     29  O   UNL     1      -7.878  -1.129 129.736  0.00  0.00    +0.000 OA
BRANCH  29  30
ATOM     30  C   UNL     1      -6.728  -1.571 128.876  0.00  0.00    +0.000 C 
ATOM     31  C   UNL     1      -5.672  -0.467 128.486  0.00  0.00    +0.000 C 
ATOM     32  C   UNL     1      -6.154   0.472 127.425  0.00  0.00    +0.000 C 
ATOM     33  N   UNL     1      -6.679  -0.489 126.401  0.00  0.00    +0.000 NA
ATOM     34  C   UNL     1      -7.689  -1.665 126.705  0.00  0.00    +0.000 C 
ATOM     35  C   UNL     1      -7.105  -2.505 127.730  0.00  0.00    +0.000 C 
BRANCH  33  36
ATOM     36  C   UNL     1      -6.155  -0.449 125.084  0.00  0.00    +0.000 C 
ATOM     37  C   UNL     1      -5.974  -1.950 124.718  0.00  0.00    +0.000 C 
ATOM     38  C   UNL     1      -6.184  -2.031 123.233  0.00  0.00    +0.000 C 
ATOM     39  C   UNL     1      -7.634  -1.682 122.915  0.00  0.00    +0.000 C 
ATOM     40  C   UNL     1      -8.032  -0.326 123.422  0.00  0.00    +0.000 A 
ATOM     41  C   UNL     1      -7.218   0.392 124.313  0.00  0.00    +0.000 A 
ATOM     42  C   UNL     1      -7.779   1.570 124.923  0.00  0.00    +0.000 A 
ATOM     43  C   UNL     1      -9.139   1.885 124.785  0.00  0.00    +0.000 A 
ATOM     44  C   UNL     1      -9.893   1.159 123.877  0.00  0.00    +0.000 A 
ATOM     45  N   UNL     1      -9.357   0.074 123.186  0.00  0.00    +0.000 N 
ATOM     46  O   UNL     1     -10.116  -0.607 122.421  0.00  0.00    +0.000 OA
ENDBRANCH  33  36
ENDBRANCH  29  30
ENDBRANCH   3  29
TORSDOF 6
ENDMDL
