MODEL 1
REMARK VINA RESULT:      -8.4      0.000      0.000
REMARK  Name = CHEMBL592493
REMARK  7 active torsions:
REMARK  status: ('A' for Active; 'I' for Inactive)
REMARK    1  A    between atoms: C_1  and  O_2
REMARK    2  A    between atoms: O_2  and  C_3
REMARK    3  A    between atoms: C_6  and  N_7
REMARK    4  A    between atoms: C_8  and  C_9
REMARK    5  A    between atoms: C_16  and  O_17
REMARK    6  A    between atoms: O_17  and  C_18
REMARK    7  A    between atoms: C_23  and  C_24
REMARK                            x       y       z     vdW  Elec       q    Type
REMARK                         _______ _______ _______ _____ _____    ______ ____
ROOT
ATOM      1  N   UNL     1      -7.413  -0.402 126.615  0.00  0.00    +0.000 N 
ATOM      2  C   UNL     1      -7.675  -0.330 127.989  0.00  0.00    +0.000 A 
ATOM      3  C   UNL     1      -7.615  -1.418 129.006  0.00  0.00    +0.000 C 
ATOM      4  N   UNL     1      -7.892   0.921 128.325  0.00  0.00    +0.000 NA
ATOM      5  N   UNL     1      -7.772   1.693 127.203  0.00  0.00    +0.000 NA
ATOM      6  C   UNL     1      -7.555   0.921 126.174  0.00  0.00    +0.000 A 
ATOM      7  N   UNL     1      -7.394   1.354 124.884  0.00  0.00    +0.000 N 
ATOM      8  C   UNL     1      -6.546   2.498 124.670  0.00  0.00    +0.000 C 
ATOM      9  C   UNL     1      -7.330   3.674 124.069  0.00  0.00    +0.000 C 
ATOM     10  C   UNL     1      -7.857   3.268 122.697  0.00  0.00    +0.000 C 
ATOM     11  C   UNL     1      -8.789   2.055 122.981  0.00  0.00    +0.000 C 
ATOM     12  C   UNL     1      -8.075   0.878 123.691  0.00  0.00    +0.000 C 
ENDROOT
BRANCH   1  16
ATOM     13  C   UNL     1      -6.144  -3.723 124.436  0.00  0.00    +0.000 A 
ATOM     14  C   UNL     1      -7.499  -3.613 124.721  0.00  0.00    +0.000 A 
ATOM     15  C   UNL     1      -7.954  -2.502 125.442  0.00  0.00    +0.000 A 
ATOM     16  C   UNL     1      -7.034  -1.532 125.855  0.00  0.00    +0.000 A 
ATOM     17  C   UNL     1      -5.697  -1.747 125.561  0.00  0.00    +0.000 A 
ATOM     18  N   UNL     1      -5.237  -2.820 124.870  0.00  0.00    +0.000 NA
BRANCH  13  20
ATOM     19  C   UNL     1      -4.206  -4.705 123.555  0.00  0.00    +0.000 C 
ATOM     20  O   UNL     1      -5.613  -4.797 123.770  0.00  0.00    +0.000 OA
ENDBRANCH  13  20
ENDBRANCH   1  16
BRANCH  10  21
ATOM     21  O   UNL     1      -6.799   2.917 121.752  0.00  0.00    +0.000 OA
BRANCH  21  22
ATOM     22  C   UNL     1      -6.568   3.800 120.709  0.00  0.00    +0.000 A 
ATOM     23  C   UNL     1      -5.360   4.525 120.707  0.00  0.00    +0.000 A 
ATOM     24  C   UNL     1      -5.098   5.490 119.715  0.00  0.00    +0.000 A 
ATOM     25  C   UNL     1      -6.016   5.721 118.699  0.00  0.00    +0.000 A 
ATOM     26  C   UNL     1      -7.224   5.052 118.721  0.00  0.00    +0.000 A 
ATOM     27  C   UNL     1      -7.547   4.163 119.756  0.00  0.00    +0.000 A 
ATOM     28  C   UNL     1      -8.994   3.778 119.745  0.00  0.00    +0.000 C 
ENDBRANCH  21  22
ENDBRANCH  10  21
TORSDOF 4
ENDMDL
MODEL 2
REMARK VINA RESULT:      -8.1      2.656      4.206
REMARK  Name = CHEMBL592493
REMARK  7 active torsions:
REMARK  status: ('A' for Active; 'I' for Inactive)
REMARK    1  A    between atoms: C_1  and  O_2
REMARK    2  A    between atoms: O_2  and  C_3
REMARK    3  A    between atoms: C_6  and  N_7
REMARK    4  A    between atoms: C_8  and  C_9
REMARK    5  A    between atoms: C_16  and  O_17
REMARK    6  A    between atoms: O_17  and  C_18
REMARK    7  A    between atoms: C_23  and  C_24
REMARK                            x       y       z     vdW  Elec       q    Type
REMARK                         _______ _______ _______ _____ _____    ______ ____
ROOT
ATOM      1  N   UNL     1      -8.172  -2.046 126.967  0.00  0.00    +0.000 N 
ATOM      2  C   UNL     1      -8.933  -3.199 127.199  0.00  0.00    +0.000 A 
ATOM      3  C   UNL     1      -8.849  -4.157 128.338  0.00  0.00    +0.000 C 
ATOM      4  N   UNL     1      -9.873  -3.290 126.286  0.00  0.00    +0.000 NA
ATOM      5  N   UNL     1      -9.763  -2.215 125.449  0.00  0.00    +0.000 NA
ATOM      6  C   UNL     1      -8.724  -1.507 125.797  0.00  0.00    +0.000 A 
ATOM      7  N   UNL     1      -8.304  -0.362 125.171  0.00  0.00    +0.000 N 
ATOM      8  C   UNL     1      -9.310   0.609 124.823  0.00  0.00    +0.000 C 
ATOM      9  C   UNL     1      -9.385   0.817 123.302  0.00  0.00    +0.000 C 
ATOM     10  C   UNL     1      -8.056   1.382 122.815  0.00  0.00    +0.000 C 
ATOM     11  C   UNL     1      -7.010   0.291 123.183  0.00  0.00    +0.000 C 
ATOM     12  C   UNL     1      -6.969  -0.043 124.696  0.00  0.00    +0.000 C 
ENDROOT
BRANCH   1  16
ATOM     13  C   UNL     1      -5.207  -0.408 129.398  0.00  0.00    +0.000 A 
ATOM     14  C   UNL     1      -4.887  -1.539 128.658  0.00  0.00    +0.000 A 
ATOM     15  C   UNL     1      -5.861  -2.104 127.825  0.00  0.00    +0.000 A 
ATOM     16  C   UNL     1      -7.129  -1.515 127.759  0.00  0.00    +0.000 A 
ATOM     17  C   UNL     1      -7.369  -0.414 128.564  0.00  0.00    +0.000 A 
ATOM     18  N   UNL     1      -6.441   0.144 129.382  0.00  0.00    +0.000 NA
BRANCH  13  20
ATOM     19  C   UNL     1      -4.138   1.578 130.039  0.00  0.00    +0.000 C 
ATOM     20  O   UNL     1      -4.325   0.182 130.266  0.00  0.00    +0.000 OA
ENDBRANCH  13  20
ENDBRANCH   1  16
BRANCH  10  21
ATOM     21  O   UNL     1      -7.718   2.669 123.419  0.00  0.00    +0.000 OA
BRANCH  21  22
ATOM     22  C   UNL     1      -6.749   3.428 122.781  0.00  0.00    +0.000 A 
ATOM     23  C   UNL     1      -6.752   3.463 121.373  0.00  0.00    +0.000 A 
ATOM     24  C   UNL     1      -5.751   4.157 120.665  0.00  0.00    +0.000 A 
ATOM     25  C   UNL     1      -4.758   4.849 121.347  0.00  0.00    +0.000 A 
ATOM     26  C   UNL     1      -4.718   4.778 122.725  0.00  0.00    +0.000 A 
ATOM     27  C   UNL     1      -5.645   4.010 123.445  0.00  0.00    +0.000 A 
ATOM     28  C   UNL     1      -5.249   3.838 124.879  0.00  0.00    +0.000 C 
ENDBRANCH  21  22
ENDBRANCH  10  21
TORSDOF 4
ENDMDL
MODEL 3
REMARK VINA RESULT:      -8.0      5.944      8.081
REMARK  Name = CHEMBL592493
REMARK  7 active torsions:
REMARK  status: ('A' for Active; 'I' for Inactive)
REMARK    1  A    between atoms: C_1  and  O_2
REMARK    2  A    between atoms: O_2  and  C_3
REMARK    3  A    between atoms: C_6  and  N_7
REMARK    4  A    between atoms: C_8  and  C_9
REMARK    5  A    between atoms: C_16  and  O_17
REMARK    6  A    between atoms: O_17  and  C_18
REMARK    7  A    between atoms: C_23  and  C_24
REMARK                            x       y       z     vdW  Elec       q    Type
REMARK                         _______ _______ _______ _____ _____    ______ ____
ROOT
ATOM      1  N   UNL     1      -6.926   3.287 127.829  0.00  0.00    +0.000 N 
ATOM      2  C   UNL     1      -5.527   3.357 127.827  0.00  0.00    +0.000 A 
ATOM      3  C   UNL     1      -4.561   2.643 126.945  0.00  0.00    +0.000 C 
ATOM      4  N   UNL     1      -5.137   4.271 128.685  0.00  0.00    +0.000 NA
ATOM      5  N   UNL     1      -6.248   4.825 129.257  0.00  0.00    +0.000 NA
ATOM      6  C   UNL     1      -7.309   4.210 128.812  0.00  0.00    +0.000 A 
ATOM      7  N   UNL     1      -8.598   4.496 129.180  0.00  0.00    +0.000 N 
ATOM      8  C   UNL     1      -8.977   5.884 129.241  0.00  0.00    +0.000 C 
ATOM      9  C   UNL     1      -9.379   6.293 130.666  0.00  0.00    +0.000 C 
ATOM     10  C   UNL     1     -10.608   5.495 131.082  0.00  0.00    +0.000 C 
ATOM     11  C   UNL     1     -10.144   4.010 131.032  0.00  0.00    +0.000 C 
ATOM     12  C   UNL     1      -9.620   3.572 129.641  0.00  0.00    +0.000 C 
ENDROOT
BRANCH   1  16
ATOM     13  C   UNL     1      -9.361   1.105 125.243  0.00  0.00    +0.000 A 
ATOM     14  C   UNL     1      -8.850   0.452 126.357  0.00  0.00    +0.000 A 
ATOM     15  C   UNL     1      -8.038   1.165 127.248  0.00  0.00    +0.000 A 
ATOM     16  C   UNL     1      -7.764   2.513 126.994  0.00  0.00    +0.000 A 
ATOM     17  C   UNL     1      -8.283   3.068 125.836  0.00  0.00    +0.000 A 
ATOM     18  N   UNL     1      -9.066   2.392 124.957  0.00  0.00    +0.000 NA
BRANCH  13  20
ATOM     19  C   UNL     1      -9.423   0.124 123.113  0.00  0.00    +0.000 C 
ATOM     20  O   UNL     1     -10.131   0.470 124.302  0.00  0.00    +0.000 OA
ENDBRANCH  13  20
ENDBRANCH   1  16
BRANCH  10  21
ATOM     21  O   UNL     1     -11.764   5.720 130.218  0.00  0.00    +0.000 OA
BRANCH  21  22
ATOM     22  C   UNL     1     -12.148   7.036 130.011  0.00  0.00    +0.000 A 
ATOM     23  C   UNL     1     -12.670   7.756 131.103  0.00  0.00    +0.000 A 
ATOM     24  C   UNL     1     -13.144   9.073 130.940  0.00  0.00    +0.000 A 
ATOM     25  C   UNL     1     -13.074   9.697 129.701  0.00  0.00    +0.000 A 
ATOM     26  C   UNL     1     -12.611   8.982 128.615  0.00  0.00    +0.000 A 
ATOM     27  C   UNL     1     -12.229   7.638 128.734  0.00  0.00    +0.000 A 
ATOM     28  C   UNL     1     -12.042   6.980 127.402  0.00  0.00    +0.000 C 
ENDBRANCH  21  22
ENDBRANCH  10  21
TORSDOF 4
ENDMDL
MODEL 4
REMARK VINA RESULT:      -7.9      5.666      8.312
REMARK  Name = CHEMBL592493
REMARK  7 active torsions:
REMARK  status: ('A' for Active; 'I' for Inactive)
REMARK    1  A    between atoms: C_1  and  O_2
REMARK    2  A    between atoms: O_2  and  C_3
REMARK    3  A    between atoms: C_6  and  N_7
REMARK    4  A    between atoms: C_8  and  C_9
REMARK    5  A    between atoms: C_16  and  O_17
REMARK    6  A    between atoms: O_17  and  C_18
REMARK    7  A    between atoms: C_23  and  C_24
REMARK                            x       y       z     vdW  Elec       q    Type
REMARK                         _______ _______ _______ _____ _____    ______ ____
ROOT
ATOM      1  N   UNL     1      -5.183   4.165 128.113  0.00  0.00    +0.000 N 
ATOM      2  C   UNL     1      -3.883   4.279 128.621  0.00  0.00    +0.000 A 
ATOM      3  C   UNL     1      -2.586   4.130 127.900  0.00  0.00    +0.000 C 
ATOM      4  N   UNL     1      -3.938   4.667 129.874  0.00  0.00    +0.000 NA
ATOM      5  N   UNL     1      -5.252   4.824 130.216  0.00  0.00    +0.000 NA
ATOM      6  C   UNL     1      -6.001   4.469 129.210  0.00  0.00    +0.000 A 
ATOM      7  N   UNL     1      -7.372   4.486 129.202  0.00  0.00    +0.000 N 
ATOM      8  C   UNL     1      -8.022   5.649 129.751  0.00  0.00    +0.000 C 
ATOM      9  C   UNL     1      -8.879   5.287 130.973  0.00  0.00    +0.000 C 
ATOM     10  C   UNL     1      -9.990   4.340 130.536  0.00  0.00    +0.000 C 
ATOM     11  C   UNL     1      -9.244   3.092 129.982  0.00  0.00    +0.000 C 
ATOM     12  C   UNL     1      -8.276   3.416 128.816  0.00  0.00    +0.000 C 
ENDROOT
BRANCH   1  16
ATOM     13  C   UNL     1      -6.297   3.441 124.161  0.00  0.00    +0.000 A 
ATOM     14  C   UNL     1      -6.120   2.345 124.996  0.00  0.00    +0.000 A 
ATOM     15  C   UNL     1      -5.756   2.560 126.331  0.00  0.00    +0.000 A 
ATOM     16  C   UNL     1      -5.582   3.871 126.789  0.00  0.00    +0.000 A 
ATOM     17  C   UNL     1      -5.739   4.899 125.874  0.00  0.00    +0.000 A 
ATOM     18  N   UNL     1      -6.085   4.710 124.576  0.00  0.00    +0.000 NA
BRANCH  13  20
ATOM     19  C   UNL     1      -7.989   3.024 122.592  0.00  0.00    +0.000 C 
ATOM     20  O   UNL     1      -6.614   3.316 122.833  0.00  0.00    +0.000 OA
ENDBRANCH  13  20
ENDBRANCH   1  16
BRANCH  10  21
ATOM     21  O   UNL     1     -10.880   4.918 129.531  0.00  0.00    +0.000 OA
BRANCH  21  22
ATOM     22  C   UNL     1     -11.417   6.166 129.808  0.00  0.00    +0.000 A 
ATOM     23  C   UNL     1     -12.259   6.292 130.930  0.00  0.00    +0.000 A 
ATOM     24  C   UNL     1     -12.893   7.516 131.223  0.00  0.00    +0.000 A 
ATOM     25  C   UNL     1     -12.671   8.632 130.426  0.00  0.00    +0.000 A 
ATOM     26  C   UNL     1     -11.887   8.504 129.297  0.00  0.00    +0.000 A 
ATOM     27  C   UNL     1     -11.330   7.270 128.930  0.00  0.00    +0.000 A 
ATOM     28  C   UNL     1     -10.772   7.288 127.540  0.00  0.00    +0.000 C 
ENDBRANCH  21  22
ENDBRANCH  10  21
TORSDOF 4
ENDMDL
MODEL 5
REMARK VINA RESULT:      -7.9      4.728      7.404
REMARK  Name = CHEMBL592493
REMARK  7 active torsions:
REMARK  status: ('A' for Active; 'I' for Inactive)
REMARK    1  A    between atoms: C_1  and  O_2
REMARK    2  A    between atoms: O_2  and  C_3
REMARK    3  A    between atoms: C_6  and  N_7
REMARK    4  A    between atoms: C_8  and  C_9
REMARK    5  A    between atoms: C_16  and  O_17
REMARK    6  A    between atoms: O_17  and  C_18
REMARK    7  A    between atoms: C_23  and  C_24
REMARK                            x       y       z     vdW  Elec       q    Type
REMARK                         _______ _______ _______ _____ _____    ______ ____
ROOT
ATOM      1  N   UNL     1      -8.467   3.612 130.710  0.00  0.00    +0.000 N 
ATOM      2  C   UNL     1      -8.381   2.919 131.924  0.00  0.00    +0.000 A 
ATOM      3  C   UNL     1      -9.008   3.255 133.234  0.00  0.00    +0.000 C 
ATOM      4  N   UNL     1      -7.723   1.798 131.738  0.00  0.00    +0.000 NA
ATOM      5  N   UNL     1      -7.372   1.720 130.420  0.00  0.00    +0.000 NA
ATOM      6  C   UNL     1      -7.746   2.812 129.813  0.00  0.00    +0.000 A 
ATOM      7  N   UNL     1      -7.548   3.084 128.484  0.00  0.00    +0.000 N 
ATOM      8  C   UNL     1      -7.825   2.028 127.544  0.00  0.00    +0.000 C 
ATOM      9  C   UNL     1      -6.561   1.614 126.776  0.00  0.00    +0.000 C 
ATOM     10  C   UNL     1      -6.069   2.800 125.956  0.00  0.00    +0.000 C 
ATOM     11  C   UNL     1      -5.752   3.900 127.011  0.00  0.00    +0.000 C 
ATOM     12  C   UNL     1      -6.969   4.279 127.894  0.00  0.00    +0.000 C 
ENDROOT
BRANCH   1  16
ATOM     13  C   UNL     1     -10.675   7.059 129.916  0.00  0.00    +0.000 A 
ATOM     14  C   UNL     1      -9.379   7.214 130.390  0.00  0.00    +0.000 A 
ATOM     15  C   UNL     1      -8.611   6.073 130.655  0.00  0.00    +0.000 A 
ATOM     16  C   UNL     1      -9.168   4.808 130.434  0.00  0.00    +0.000 A 
ATOM     17  C   UNL     1     -10.482   4.751 130.000  0.00  0.00    +0.000 A 
ATOM     18  N   UNL     1     -11.244   5.845 129.744  0.00  0.00    +0.000 NA
BRANCH  13  20
ATOM     19  C   UNL     1     -12.892   7.791 129.698  0.00  0.00    +0.000 C 
ATOM     20  O   UNL     1     -11.505   8.122 129.670  0.00  0.00    +0.000 OA
ENDBRANCH  13  20
ENDBRANCH   1  16
BRANCH  10  21
ATOM     21  O   UNL     1      -7.045   3.269 124.974  0.00  0.00    +0.000 OA
BRANCH  21  22
ATOM     22  C   UNL     1      -6.581   3.510 123.691  0.00  0.00    +0.000 A 
ATOM     23  C   UNL     1      -5.389   4.246 123.542  0.00  0.00    +0.000 A 
ATOM     24  C   UNL     1      -4.904   4.585 122.263  0.00  0.00    +0.000 A 
ATOM     25  C   UNL     1      -5.579   4.169 121.122  0.00  0.00    +0.000 A 
ATOM     26  C   UNL     1      -6.773   3.491 121.259  0.00  0.00    +0.000 A 
ATOM     27  C   UNL     1      -7.326   3.232 122.522  0.00  0.00    +0.000 A 
ATOM     28  C   UNL     1      -8.743   2.755 122.436  0.00  0.00    +0.000 C 
ENDBRANCH  21  22
ENDBRANCH  10  21
TORSDOF 4
ENDMDL
MODEL 6
REMARK VINA RESULT:      -7.9      4.444      7.429
REMARK  Name = CHEMBL592493
REMARK  7 active torsions:
REMARK  status: ('A' for Active; 'I' for Inactive)
REMARK    1  A    between atoms: C_1  and  O_2
REMARK    2  A    between atoms: O_2  and  C_3
REMARK    3  A    between atoms: C_6  and  N_7
REMARK    4  A    between atoms: C_8  and  C_9
REMARK    5  A    between atoms: C_16  and  O_17
REMARK    6  A    between atoms: O_17  and  C_18
REMARK    7  A    between atoms: C_23  and  C_24
REMARK                            x       y       z     vdW  Elec       q    Type
REMARK                         _______ _______ _______ _____ _____    ______ ____
ROOT
ATOM      1  N   UNL     1      -8.635   4.418 129.963  0.00  0.00    +0.000 N 
ATOM      2  C   UNL     1      -9.165   5.707 130.102  0.00  0.00    +0.000 A 
ATOM      3  C   UNL     1      -9.467   6.459 131.353  0.00  0.00    +0.000 C 
ATOM      4  N   UNL     1      -9.275   6.262 128.917  0.00  0.00    +0.000 NA
ATOM      5  N   UNL     1      -8.821   5.373 127.984  0.00  0.00    +0.000 NA
ATOM      6  C   UNL     1      -8.502   4.256 128.577  0.00  0.00    +0.000 A 
ATOM      7  N   UNL     1      -8.019   3.139 127.947  0.00  0.00    +0.000 N 
ATOM      8  C   UNL     1      -6.997   3.330 126.950  0.00  0.00    +0.000 C 
ATOM      9  C   UNL     1      -7.472   2.869 125.564  0.00  0.00    +0.000 C 
ATOM     10  C   UNL     1      -7.752   1.372 125.610  0.00  0.00    +0.000 C 
ATOM     11  C   UNL     1      -8.879   1.218 126.671  0.00  0.00    +0.000 C 
ATOM     12  C   UNL     1      -8.495   1.771 128.067  0.00  0.00    +0.000 C 
ENDROOT
BRANCH   1  16
ATOM     13  C   UNL     1      -7.412   1.839 133.001  0.00  0.00    +0.000 A 
ATOM     14  C   UNL     1      -8.751   1.817 132.632  0.00  0.00    +0.000 A 
ATOM     15  C   UNL     1      -9.187   2.665 131.607  0.00  0.00    +0.000 A 
ATOM     16  C   UNL     1      -8.264   3.511 130.981  0.00  0.00    +0.000 A 
ATOM     17  C   UNL     1      -6.958   3.494 131.445  0.00  0.00    +0.000 A 
ATOM     18  N   UNL     1      -6.519   2.684 132.441  0.00  0.00    +0.000 NA
BRANCH  13  20
ATOM     19  C   UNL     1      -5.959   0.098 133.597  0.00  0.00    +0.000 C 
ATOM     20  O   UNL     1      -6.913   1.069 134.021  0.00  0.00    +0.000 OA
ENDBRANCH  13  20
ENDBRANCH   1  16
BRANCH  10  21
ATOM     21  O   UNL     1      -6.578   0.574 125.959  0.00  0.00    +0.000 OA
BRANCH  21  22
ATOM     22  C   UNL     1      -6.279  -0.500 125.136  0.00  0.00    +0.000 A 
ATOM     23  C   UNL     1      -6.688  -0.438 123.789  0.00  0.00    +0.000 A 
ATOM     24  C   UNL     1      -6.477  -1.527 122.919  0.00  0.00    +0.000 A 
ATOM     25  C   UNL     1      -5.831  -2.671 123.369  0.00  0.00    +0.000 A 
ATOM     26  C   UNL     1      -5.472  -2.760 124.699  0.00  0.00    +0.000 A 
ATOM     27  C   UNL     1      -5.763  -1.730 125.605  0.00  0.00    +0.000 A 
ATOM     28  C   UNL     1      -5.556  -2.147 127.028  0.00  0.00    +0.000 C 
ENDBRANCH  21  22
ENDBRANCH  10  21
TORSDOF 4
ENDMDL
MODEL 7
REMARK VINA RESULT:      -7.8      6.104      8.079
REMARK  Name = CHEMBL592493
REMARK  7 active torsions:
REMARK  status: ('A' for Active; 'I' for Inactive)
REMARK    1  A    between atoms: C_1  and  O_2
REMARK    2  A    between atoms: O_2  and  C_3
REMARK    3  A    between atoms: C_6  and  N_7
REMARK    4  A    between atoms: C_8  and  C_9
REMARK    5  A    between atoms: C_16  and  O_17
REMARK    6  A    between atoms: O_17  and  C_18
REMARK    7  A    between atoms: C_23  and  C_24
REMARK                            x       y       z     vdW  Elec       q    Type
REMARK                         _______ _______ _______ _____ _____    ______ ____
ROOT
ATOM      1  N   UNL     1      -6.674  -2.681 130.637  0.00  0.00    +0.000 N 
ATOM      2  C   UNL     1      -6.018  -3.723 131.305  0.00  0.00    +0.000 A 
ATOM      3  C   UNL     1      -5.609  -5.056 130.776  0.00  0.00    +0.000 C 
ATOM      4  N   UNL     1      -5.684  -3.324 132.510  0.00  0.00    +0.000 NA
ATOM      5  N   UNL     1      -6.096  -2.030 132.663  0.00  0.00    +0.000 NA
ATOM      6  C   UNL     1      -6.740  -1.657 131.591  0.00  0.00    +0.000 A 
ATOM      7  N   UNL     1      -7.303  -0.422 131.399  0.00  0.00    +0.000 N 
ATOM      8  C   UNL     1      -6.522   0.728 131.776  0.00  0.00    +0.000 C 
ATOM      9  C   UNL     1      -7.207   1.528 132.894  0.00  0.00    +0.000 C 
ATOM     10  C   UNL     1      -8.536   2.063 132.377  0.00  0.00    +0.000 C 
ATOM     11  C   UNL     1      -9.355   0.791 132.014  0.00  0.00    +0.000 C 
ATOM     12  C   UNL     1      -8.657  -0.116 130.969  0.00  0.00    +0.000 C 
ENDROOT
BRANCH   1  16
ATOM     13  C   UNL     1      -7.822  -2.547 126.631  0.00  0.00    +0.000 A 
ATOM     14  C   UNL     1      -8.635  -3.244 127.515  0.00  0.00    +0.000 A 
ATOM     15  C   UNL     1      -8.279  -3.296 128.869  0.00  0.00    +0.000 A 
ATOM     16  C   UNL     1      -7.116  -2.645 129.294  0.00  0.00    +0.000 A 
ATOM     17  C   UNL     1      -6.345  -2.011 128.334  0.00  0.00    +0.000 A 
ATOM     18  N   UNL     1      -6.670  -1.955 127.018  0.00  0.00    +0.000 NA
BRANCH  13  20
ATOM     19  C   UNL     1      -8.246  -3.755 124.666  0.00  0.00    +0.000 C 
ATOM     20  O   UNL     1      -8.078  -2.481 125.285  0.00  0.00    +0.000 OA
ENDBRANCH  13  20
ENDBRANCH   1  16
BRANCH  10  21
ATOM     21  O   UNL     1      -8.394   2.952 131.225  0.00  0.00    +0.000 OA
BRANCH  21  22
ATOM     22  C   UNL     1      -9.220   4.064 131.182  0.00  0.00    +0.000 A 
ATOM     23  C   UNL     1     -10.471   3.939 130.545  0.00  0.00    +0.000 A 
ATOM     24  C   UNL     1     -11.325   5.051 130.406  0.00  0.00    +0.000 A 
ATOM     25  C   UNL     1     -10.960   6.287 130.924  0.00  0.00    +0.000 A 
ATOM     26  C   UNL     1      -9.716   6.430 131.505  0.00  0.00    +0.000 A 
ATOM     27  C   UNL     1      -8.810   5.362 131.564  0.00  0.00    +0.000 A 
ATOM     28  C   UNL     1      -7.435   5.803 131.960  0.00  0.00    +0.000 C 
ENDBRANCH  21  22
ENDBRANCH  10  21
TORSDOF 4
ENDMDL
MODEL 8
REMARK VINA RESULT:      -7.8      5.280      8.872
REMARK  Name = CHEMBL592493
REMARK  7 active torsions:
REMARK  status: ('A' for Active; 'I' for Inactive)
REMARK    1  A    between atoms: C_1  and  O_2
REMARK    2  A    between atoms: O_2  and  C_3
REMARK    3  A    between atoms: C_6  and  N_7
REMARK    4  A    between atoms: C_8  and  C_9
REMARK    5  A    between atoms: C_16  and  O_17
REMARK    6  A    between atoms: O_17  and  C_18
REMARK    7  A    between atoms: C_23  and  C_24
REMARK                            x       y       z     vdW  Elec       q    Type
REMARK                         _______ _______ _______ _____ _____    ______ ____
ROOT
ATOM      1  N   UNL     1      -8.292   2.872 132.042  0.00  0.00    +0.000 N 
ATOM      2  C   UNL     1      -7.950   2.987 133.396  0.00  0.00    +0.000 A 
ATOM      3  C   UNL     1      -8.296   4.076 134.354  0.00  0.00    +0.000 C 
ATOM      4  N   UNL     1      -7.335   1.894 133.783  0.00  0.00    +0.000 NA
ATOM      5  N   UNL     1      -7.263   1.042 132.717  0.00  0.00    +0.000 NA
ATOM      6  C   UNL     1      -7.764   1.630 131.666  0.00  0.00    +0.000 A 
ATOM      7  N   UNL     1      -7.847   1.074 130.415  0.00  0.00    +0.000 N 
ATOM      8  C   UNL     1      -8.304  -0.289 130.326  0.00  0.00    +0.000 C 
ATOM      9  C   UNL     1      -7.221  -1.205 129.734  0.00  0.00    +0.000 C 
ATOM     10  C   UNL     1      -6.920  -0.759 128.309  0.00  0.00    +0.000 C 
ATOM     11  C   UNL     1      -6.402   0.700 128.458  0.00  0.00    +0.000 C 
ATOM     12  C   UNL     1      -7.413   1.648 129.153  0.00  0.00    +0.000 C 
ENDROOT
BRANCH   1  16
ATOM     13  C   UNL     1     -10.650   5.450 129.767  0.00  0.00    +0.000 A 
ATOM     14  C   UNL     1      -9.370   5.870 130.104  0.00  0.00    +0.000 A 
ATOM     15  C   UNL     1      -8.552   5.019 130.859  0.00  0.00    +0.000 A 
ATOM     16  C   UNL     1      -9.045   3.770 131.252  0.00  0.00    +0.000 A 
ATOM     17  C   UNL     1     -10.348   3.454 130.905  0.00  0.00    +0.000 A 
ATOM     18  N   UNL     1     -11.157   4.267 130.180  0.00  0.00    +0.000 NA
BRANCH  13  20
ATOM     19  C   UNL     1     -11.406   7.630 129.349  0.00  0.00    +0.000 C 
ATOM     20  O   UNL     1     -11.526   6.237 129.065  0.00  0.00    +0.000 OA
ENDBRANCH  13  20
ENDBRANCH   1  16
BRANCH  10  21
ATOM     21  O   UNL     1      -8.082  -0.824 127.425  0.00  0.00    +0.000 OA
BRANCH  21  22
ATOM     22  C   UNL     1      -8.013  -1.707 126.358  0.00  0.00    +0.000 A 
ATOM     23  C   UNL     1      -7.773  -1.180 125.074  0.00  0.00    +0.000 A 
ATOM     24  C   UNL     1      -7.763  -2.016 123.940  0.00  0.00    +0.000 A 
ATOM     25  C   UNL     1      -7.957  -3.385 124.074  0.00  0.00    +0.000 A 
ATOM     26  C   UNL     1      -8.243  -3.903 125.321  0.00  0.00    +0.000 A 
ATOM     27  C   UNL     1      -8.358  -3.075 126.447  0.00  0.00    +0.000 A 
ATOM     28  C   UNL     1      -8.953  -3.790 127.621  0.00  0.00    +0.000 C 
ENDBRANCH  21  22
ENDBRANCH  10  21
TORSDOF 4
ENDMDL
MODEL 9
REMARK VINA RESULT:      -7.8      3.845      7.741
REMARK  Name = CHEMBL592493
REMARK  7 active torsions:
REMARK  status: ('A' for Active; 'I' for Inactive)
REMARK    1  A    between atoms: C_1  and  O_2
REMARK    2  A    between atoms: O_2  and  C_3
REMARK    3  A    between atoms: C_6  and  N_7
REMARK    4  A    between atoms: C_8  and  C_9
REMARK    5  A    between atoms: C_16  and  O_17
REMARK    6  A    between atoms: O_17  and  C_18
REMARK    7  A    between atoms: C_23  and  C_24
REMARK                            x       y       z     vdW  Elec       q    Type
REMARK                         _______ _______ _______ _____ _____    ______ ____
ROOT
ATOM      1  N   UNL     1      -6.778   2.845 123.579  0.00  0.00    +0.000 N 
ATOM      2  C   UNL     1      -6.121   3.611 122.608  0.00  0.00    +0.000 A 
ATOM      3  C   UNL     1      -6.170   3.476 121.124  0.00  0.00    +0.000 C 
ATOM      4  N   UNL     1      -5.492   4.606 123.192  0.00  0.00    +0.000 NA
ATOM      5  N   UNL     1      -5.722   4.527 124.537  0.00  0.00    +0.000 NA
ATOM      6  C   UNL     1      -6.424   3.457 124.789  0.00  0.00    +0.000 A 
ATOM      7  N   UNL     1      -6.830   3.055 126.035  0.00  0.00    +0.000 N 
ATOM      8  C   UNL     1      -7.369   4.062 126.912  0.00  0.00    +0.000 C 
ATOM      9  C   UNL     1      -6.509   4.225 128.175  0.00  0.00    +0.000 C 
ATOM     10  C   UNL     1      -6.529   2.918 128.958  0.00  0.00    +0.000 C 
ATOM     11  C   UNL     1      -5.911   1.871 127.987  0.00  0.00    +0.000 C 
ATOM     12  C   UNL     1      -6.675   1.745 126.645  0.00  0.00    +0.000 C 
ENDROOT
BRANCH   1  16
ATOM     13  C   UNL     1      -9.227  -0.491 123.076  0.00  0.00    +0.000 A 
ATOM     14  C   UNL     1      -9.832   0.759 123.099  0.00  0.00    +0.000 A 
ATOM     15  C   UNL     1      -9.031   1.898 123.256  0.00  0.00    +0.000 A 
ATOM     16  C   UNL     1      -7.646   1.746 123.384  0.00  0.00    +0.000 A 
ATOM     17  C   UNL     1      -7.137   0.458 123.391  0.00  0.00    +0.000 A 
ATOM     18  N   UNL     1      -7.897  -0.657 123.247  0.00  0.00    +0.000 NA
BRANCH  13  20
ATOM     19  C   UNL     1      -9.224  -2.816 123.383  0.00  0.00    +0.000 C 
ATOM     20  O   UNL     1      -9.942  -1.656 122.966  0.00  0.00    +0.000 OA
ENDBRANCH  13  20
ENDBRANCH   1  16
BRANCH  10  21
ATOM     21  O   UNL     1      -7.869   2.521 129.387  0.00  0.00    +0.000 OA
BRANCH  21  22
ATOM     22  C   UNL     1      -8.233   2.837 130.686  0.00  0.00    +0.000 A 
ATOM     23  C   UNL     1      -7.924   1.915 131.706  0.00  0.00    +0.000 A 
ATOM     24  C   UNL     1      -8.331   2.145 133.035  0.00  0.00    +0.000 A 
ATOM     25  C   UNL     1      -9.019   3.305 133.370  0.00  0.00    +0.000 A 
ATOM     26  C   UNL     1      -9.370   4.188 132.369  0.00  0.00    +0.000 A 
ATOM     27  C   UNL     1      -9.064   3.929 131.025  0.00  0.00    +0.000 A 
ATOM     28  C   UNL     1      -9.781   4.853 130.090  0.00  0.00    +0.000 C 
ENDBRANCH  21  22
ENDBRANCH  10  21
TORSDOF 4
ENDMDL
