MODEL 1
REMARK VINA RESULT:      -9.5      0.000      0.000
REMARK  Name = CHEMBL458635
REMARK  11 active torsions:
REMARK  status: ('A' for Active; 'I' for Inactive)
REMARK    1  A    between atoms: C_1  and  O_2
REMARK    2  A    between atoms: O_2  and  C_3
REMARK    3  A    between atoms: C_6  and  S_7
REMARK    4  A    between atoms: S_7  and  N_10
REMARK    5  A    between atoms: N_10  and  C_11
REMARK    6  A    between atoms: N_10  and  C_25
REMARK    7  A    between atoms: C_11  and  C_12
REMARK    8  A    between atoms: C_15  and  C_16
REMARK    9  A    between atoms: C_21  and  C_22
REMARK   10  A    between atoms: C_28  and  O_29
REMARK   11  A    between atoms: O_29  and  C_30
REMARK                            x       y       z     vdW  Elec       q    Type
REMARK                         _______ _______ _______ _____ _____    ______ ____
ROOT
ATOM      1  N   UNL     1      -9.616   5.266 130.648  0.00  0.00    +0.000 N 
ENDROOT
BRANCH   1   2
ATOM      2  C   UNL     1     -10.571   6.237 130.091  0.00  0.00    +0.000 A 
ATOM      3  C   UNL     1     -11.942   5.976 130.070  0.00  0.00    +0.000 A 
ATOM      4  C   UNL     1     -12.830   6.883 129.497  0.00  0.00    +0.000 A 
ATOM      5  C   UNL     1     -12.337   8.063 128.969  0.00  0.00    +0.000 A 
ATOM      6  N   UNL     1     -11.017   8.351 128.969  0.00  0.00    +0.000 NA
ATOM      7  C   UNL     1     -10.171   7.431 129.504  0.00  0.00    +0.000 A 
BRANCH   5   8
ATOM      8  O   UNL     1     -13.116   9.041 128.413  0.00  0.00    +0.000 OA
ATOM      9  C   UNL     1     -13.314  10.204 129.208  0.00  0.00    +0.000 C 
ENDBRANCH   5   8
ENDBRANCH   1   2
BRANCH   1  10
ATOM     10  S   UNL     1      -8.864   5.982 132.026  0.00  0.00    +0.000 S 
ATOM     11  O   UNL     1      -9.887   6.623 132.858  0.00  0.00    +0.000 OA
ATOM     12  O   UNL     1      -7.690   6.666 131.594  0.00  0.00    +0.000 OA
BRANCH  10  16
ATOM     13  C   UNL     1      -7.472   2.163 133.338  0.00  0.00    +0.000 A 
ATOM     14  C   UNL     1      -6.593   3.226 133.293  0.00  0.00    +0.000 A 
ATOM     15  C   UNL     1      -6.999   4.572 133.399  0.00  0.00    +0.000 A 
ATOM     16  C   UNL     1      -8.304   4.791 133.074  0.00  0.00    +0.000 A 
ATOM     17  C   UNL     1      -9.113   4.118 133.716  0.00  0.00    +0.000 A 
ATOM     18  C   UNL     1      -8.639   2.836 133.658  0.00  0.00    +0.000 A 
BRANCH  13  20
ATOM     19  C   UNL     1      -6.527  -0.545 132.533  0.00  0.00    +0.000 C 
ATOM     20  O   UNL     1      -7.173   0.727 133.371  0.00  0.00    +0.000 OA
ENDBRANCH  13  20
ENDBRANCH  10  16
ENDBRANCH   1  10
BRANCH   1  21
ATOM     21  C   UNL     1      -9.623   3.843 129.956  0.00  0.00    +0.000 C 
BRANCH  21  22
ATOM     22  C   UNL     1      -8.473   2.989 129.146  0.00  0.00    +0.000 A 
ATOM     23  C   UNL     1      -7.405   2.365 129.864  0.00  0.00    +0.000 A 
ATOM     24  C   UNL     1      -6.743   1.168 129.201  0.00  0.00    +0.000 A 
ATOM     25  C   UNL     1      -7.400   0.388 127.880  0.00  0.00    +0.000 A 
ATOM     26  C   UNL     1      -8.361   1.260 127.227  0.00  0.00    +0.000 A 
ATOM     27  N   UNL     1      -8.815   2.539 127.794  0.00  0.00    +0.000 NA
BRANCH  25  28
ATOM     28  C   UNL     1      -7.775  -1.386 127.660  0.00  0.00    +0.000 A 
ATOM     29  C   UNL     1      -7.678  -1.916 128.933  0.00  0.00    +0.000 A 
ATOM     30  C   UNL     1      -8.211  -3.169 129.259  0.00  0.00    +0.000 A 
ATOM     31  C   UNL     1      -8.883  -4.004 128.361  0.00  0.00    +0.000 A 
ATOM     32  C   UNL     1      -8.951  -3.695 127.044  0.00  0.00    +0.000 A 
ATOM     33  C   UNL     1      -8.458  -2.451 126.633  0.00  0.00    +0.000 A 
ATOM     34  C   UNL     1      -8.986  -2.512 125.160  0.00  0.00    +0.000 C 
ENDBRANCH  25  28
ENDBRANCH  21  22
ENDBRANCH   1  21
TORSDOF 8
ENDMDL
MODEL 2
REMARK VINA RESULT:      -9.4      5.345      7.600
REMARK  Name = CHEMBL458635
REMARK  11 active torsions:
REMARK  status: ('A' for Active; 'I' for Inactive)
REMARK    1  A    between atoms: C_1  and  O_2
REMARK    2  A    between atoms: O_2  and  C_3
REMARK    3  A    between atoms: C_6  and  S_7
REMARK    4  A    between atoms: S_7  and  N_10
REMARK    5  A    between atoms: N_10  and  C_11
REMARK    6  A    between atoms: N_10  and  C_25
REMARK    7  A    between atoms: C_11  and  C_12
REMARK    8  A    between atoms: C_15  and  C_16
REMARK    9  A    between atoms: C_21  and  C_22
REMARK   10  A    between atoms: C_28  and  O_29
REMARK   11  A    between atoms: O_29  and  C_30
REMARK                            x       y       z     vdW  Elec       q    Type
REMARK                         _______ _______ _______ _____ _____    ______ ____
ROOT
ATOM      1  N   UNL     1      -7.801   1.705 123.478  0.00  0.00    +0.000 N 
ENDROOT
BRANCH   1   2
ATOM      2  C   UNL     1      -7.619   2.586 122.315  0.00  0.00    +0.000 A 
ATOM      3  C   UNL     1      -8.712   3.083 121.602  0.00  0.00    +0.000 A 
ATOM      4  C   UNL     1      -8.524   3.877 120.475  0.00  0.00    +0.000 A 
ATOM      5  C   UNL     1      -7.235   4.191 120.080  0.00  0.00    +0.000 A 
ATOM      6  N   UNL     1      -6.152   3.729 120.743  0.00  0.00    +0.000 NA
ATOM      7  C   UNL     1      -6.366   2.927 121.820  0.00  0.00    +0.000 A 
BRANCH   5   8
ATOM      8  O   UNL     1      -6.931   4.990 119.012  0.00  0.00    +0.000 OA
ATOM      9  C   UNL     1      -5.661   5.630 119.056  0.00  0.00    +0.000 C 
ENDBRANCH   5   8
ENDBRANCH   1   2
BRANCH   1  10
ATOM     10  S   UNL     1      -8.313   2.674 124.811  0.00  0.00    +0.000 S 
ATOM     11  O   UNL     1      -9.507   2.074 125.416  0.00  0.00    +0.000 OA
ATOM     12  O   UNL     1      -8.258   4.044 124.421  0.00  0.00    +0.000 OA
BRANCH  10  16
ATOM     13  C   UNL     1      -4.610   2.952 126.924  0.00  0.00    +0.000 A 
ATOM     14  C   UNL     1      -5.644   3.805 127.252  0.00  0.00    +0.000 A 
ATOM     15  C   UNL     1      -7.002   3.495 127.039  0.00  0.00    +0.000 A 
ATOM     16  C   UNL     1      -7.218   2.549 126.083  0.00  0.00    +0.000 A 
ATOM     17  C   UNL     1      -6.629   1.482 126.274  0.00  0.00    +0.000 A 
ATOM     18  C   UNL     1      -5.338   1.832 126.559  0.00  0.00    +0.000 A 
BRANCH  13  20
ATOM     19  C   UNL     1      -1.651   2.976 126.583  0.00  0.00    +0.000 C 
ATOM     20  O   UNL     1      -3.178   3.094 127.208  0.00  0.00    +0.000 OA
ENDBRANCH  13  20
ENDBRANCH  10  16
ENDBRANCH   1  10
BRANCH   1  21
ATOM     21  C   UNL     1      -7.619   0.160 123.188  0.00  0.00    +0.000 C 
BRANCH  21  22
ATOM     22  C   UNL     1      -7.666  -1.171 124.153  0.00  0.00    +0.000 A 
ATOM     23  C   UNL     1      -6.450  -1.780 124.595  0.00  0.00    +0.000 A 
ATOM     24  C   UNL     1      -6.518  -2.588 125.880  0.00  0.00    +0.000 A 
ATOM     25  C   UNL     1      -7.820  -2.522 126.923  0.00  0.00    +0.000 A 
ATOM     26  C   UNL     1      -8.979  -1.996 126.222  0.00  0.00    +0.000 A 
ATOM     27  N   UNL     1      -8.920  -1.423 124.869  0.00  0.00    +0.000 NA
BRANCH  25  28
ATOM     28  C   UNL     1      -7.843  -2.170 128.715  0.00  0.00    +0.000 A 
ATOM     29  C   UNL     1      -7.523  -3.379 129.304  0.00  0.00    +0.000 A 
ATOM     30  C   UNL     1      -7.110  -3.469 130.639  0.00  0.00    +0.000 A 
ATOM     31  C   UNL     1      -6.978  -2.379 131.504  0.00  0.00    +0.000 A 
ATOM     32  C   UNL     1      -7.377  -1.140 131.127  0.00  0.00    +0.000 A 
ATOM     33  C   UNL     1      -7.788  -0.958 129.800  0.00  0.00    +0.000 A 
ATOM     34  C   UNL     1      -7.886   0.606 129.844  0.00  0.00    +0.000 C 
ENDBRANCH  25  28
ENDBRANCH  21  22
ENDBRANCH   1  21
TORSDOF 8
ENDMDL
MODEL 3
REMARK VINA RESULT:      -9.3      2.289      4.550
REMARK  Name = CHEMBL458635
REMARK  11 active torsions:
REMARK  status: ('A' for Active; 'I' for Inactive)
REMARK    1  A    between atoms: C_1  and  O_2
REMARK    2  A    between atoms: O_2  and  C_3
REMARK    3  A    between atoms: C_6  and  S_7
REMARK    4  A    between atoms: S_7  and  N_10
REMARK    5  A    between atoms: N_10  and  C_11
REMARK    6  A    between atoms: N_10  and  C_25
REMARK    7  A    between atoms: C_11  and  C_12
REMARK    8  A    between atoms: C_15  and  C_16
REMARK    9  A    between atoms: C_21  and  C_22
REMARK   10  A    between atoms: C_28  and  O_29
REMARK   11  A    between atoms: O_29  and  C_30
REMARK                            x       y       z     vdW  Elec       q    Type
REMARK                         _______ _______ _______ _____ _____    ______ ____
ROOT
ATOM      1  N   UNL     1      -9.971   5.530 131.425  0.00  0.00    +0.000 N 
ENDROOT
BRANCH   1   2
ATOM      2  C   UNL     1     -10.842   6.572 130.861  0.00  0.00    +0.000 A 
ATOM      3  C   UNL     1     -12.118   6.810 131.378  0.00  0.00    +0.000 A 
ATOM      4  C   UNL     1     -12.950   7.766 130.805  0.00  0.00    +0.000 A 
ATOM      5  C   UNL     1     -12.487   8.502 129.727  0.00  0.00    +0.000 A 
ATOM      6  N   UNL     1     -11.260   8.301 129.198  0.00  0.00    +0.000 NA
ATOM      7  C   UNL     1     -10.483   7.335 129.757  0.00  0.00    +0.000 A 
BRANCH   5   8
ATOM      8  O   UNL     1     -13.202   9.490 129.107  0.00  0.00    +0.000 OA
ATOM      9  C   UNL     1     -13.407  10.677 129.865  0.00  0.00    +0.000 C 
ENDBRANCH   5   8
ENDBRANCH   1   2
BRANCH   1  10
ATOM     10  S   UNL     1     -10.051   4.148 130.394  0.00  0.00    +0.000 S 
ATOM     11  O   UNL     1      -9.271   4.405 129.178  0.00  0.00    +0.000 OA
ATOM     12  O   UNL     1     -11.400   3.691 130.356  0.00  0.00    +0.000 OA
BRANCH  10  16
ATOM     13  C   UNL     1      -8.516   0.188 130.858  0.00  0.00    +0.000 A 
ATOM     14  C   UNL     1      -7.666   1.204 130.471  0.00  0.00    +0.000 A 
ATOM     15  C   UNL     1      -7.887   2.561 130.784  0.00  0.00    +0.000 A 
ATOM     16  C   UNL     1      -9.185   2.868 131.060  0.00  0.00    +0.000 A 
ATOM     17  C   UNL     1      -9.689   2.202 131.968  0.00  0.00    +0.000 A 
ATOM     18  C   UNL     1      -9.380   0.902 131.671  0.00  0.00    +0.000 A 
BRANCH  13  20
ATOM     19  C   UNL     1      -7.963  -2.485 129.668  0.00  0.00    +0.000 C 
ATOM     20  O   UNL     1      -8.340  -1.261 130.714  0.00  0.00    +0.000 OA
ENDBRANCH  13  20
ENDBRANCH  10  16
ENDBRANCH   1  10
BRANCH   1  21
ATOM     21  C   UNL     1      -9.128   5.968 132.690  0.00  0.00    +0.000 C 
BRANCH  21  22
ATOM     22  C   UNL     1      -7.782   5.349 133.405  0.00  0.00    +0.000 A 
ATOM     23  C   UNL     1      -7.901   4.309 134.380  0.00  0.00    +0.000 A 
ATOM     24  C   UNL     1      -6.694   3.406 134.568  0.00  0.00    +0.000 A 
ATOM     25  C   UNL     1      -5.412   3.375 133.500  0.00  0.00    +0.000 A 
ATOM     26  C   UNL     1      -5.412   4.591 132.704  0.00  0.00    +0.000 A 
ATOM     27  N   UNL     1      -6.507   5.572 132.718  0.00  0.00    +0.000 NA
BRANCH  25  28
ATOM     28  C   UNL     1      -4.669   1.949 132.633  0.00  0.00    +0.000 A 
ATOM     29  C   UNL     1      -4.806   0.900 133.522  0.00  0.00    +0.000 A 
ATOM     30  C   UNL     1      -4.670  -0.435 133.123  0.00  0.00    +0.000 A 
ATOM     31  C   UNL     1      -4.388  -0.848 131.818  0.00  0.00    +0.000 A 
ATOM     32  C   UNL     1      -4.095   0.054 130.851  0.00  0.00    +0.000 A 
ATOM     33  C   UNL     1      -4.224   1.414 131.161  0.00  0.00    +0.000 A 
ATOM     34  C   UNL     1      -4.022   1.961 129.706  0.00  0.00    +0.000 C 
ENDBRANCH  25  28
ENDBRANCH  21  22
ENDBRANCH   1  21
TORSDOF 8
ENDMDL
MODEL 4
REMARK VINA RESULT:      -9.3      5.400      7.909
REMARK  Name = CHEMBL458635
REMARK  11 active torsions:
REMARK  status: ('A' for Active; 'I' for Inactive)
REMARK    1  A    between atoms: C_1  and  O_2
REMARK    2  A    between atoms: O_2  and  C_3
REMARK    3  A    between atoms: C_6  and  S_7
REMARK    4  A    between atoms: S_7  and  N_10
REMARK    5  A    between atoms: N_10  and  C_11
REMARK    6  A    between atoms: N_10  and  C_25
REMARK    7  A    between atoms: C_11  and  C_12
REMARK    8  A    between atoms: C_15  and  C_16
REMARK    9  A    between atoms: C_21  and  C_22
REMARK   10  A    between atoms: C_28  and  O_29
REMARK   11  A    between atoms: O_29  and  C_30
REMARK                            x       y       z     vdW  Elec       q    Type
REMARK                         _______ _______ _______ _____ _____    ______ ____
ROOT
ATOM      1  N   UNL     1      -6.850   2.677 126.200  0.00  0.00    +0.000 N 
ENDROOT
BRANCH   1   2
ATOM      2  C   UNL     1      -5.629   3.377 126.626  0.00  0.00    +0.000 A 
ATOM      3  C   UNL     1      -4.364   2.827 126.410  0.00  0.00    +0.000 A 
ATOM      4  C   UNL     1      -3.220   3.478 126.861  0.00  0.00    +0.000 A 
ATOM      5  C   UNL     1      -3.349   4.697 127.506  0.00  0.00    +0.000 A 
ATOM      6  N   UNL     1      -4.555   5.261 127.734  0.00  0.00    +0.000 NA
ATOM      7  C   UNL     1      -5.657   4.584 127.314  0.00  0.00    +0.000 A 
BRANCH   5   8
ATOM      8  O   UNL     1      -2.295   5.441 127.959  0.00  0.00    +0.000 OA
ATOM      9  C   UNL     1      -2.534   6.838 128.095  0.00  0.00    +0.000 C 
ENDBRANCH   5   8
ENDBRANCH   1   2
BRANCH   1  10
ATOM     10  S   UNL     1      -7.330   3.313 124.669  0.00  0.00    +0.000 S 
ATOM     11  O   UNL     1      -6.145   3.802 123.956  0.00  0.00    +0.000 OA
ATOM     12  O   UNL     1      -8.494   4.114 124.858  0.00  0.00    +0.000 OA
BRANCH  10  16
ATOM     13  C   UNL     1      -9.152  -0.349 123.440  0.00  0.00    +0.000 A 
ATOM     14  C   UNL     1      -9.721   0.851 123.064  0.00  0.00    +0.000 A 
ATOM     15  C   UNL     1      -8.989   2.049 122.937  0.00  0.00    +0.000 A 
ATOM     16  C   UNL     1      -7.826   2.073 123.647  0.00  0.00    +0.000 A 
ATOM     17  C   UNL     1      -7.051   1.148 123.395  0.00  0.00    +0.000 A 
ATOM     18  C   UNL     1      -7.816   0.015 123.446  0.00  0.00    +0.000 A 
BRANCH  13  20
ATOM     19  C   UNL     1      -9.480  -3.310 123.453  0.00  0.00    +0.000 C 
ATOM     20  O   UNL     1      -9.766  -1.681 123.485  0.00  0.00    +0.000 OA
ENDBRANCH  13  20
ENDBRANCH  10  16
ENDBRANCH   1  10
BRANCH   1  21
ATOM     21  C   UNL     1      -7.309   1.491 127.142  0.00  0.00    +0.000 C 
BRANCH  21  22
ATOM     22  C   UNL     1      -6.867  -0.090 127.245  0.00  0.00    +0.000 A 
ATOM     23  C   UNL     1      -5.507  -0.439 127.515  0.00  0.00    +0.000 A 
ATOM     24  C   UNL     1      -5.262  -1.795 128.154  0.00  0.00    +0.000 A 
ATOM     25  C   UNL     1      -6.484  -2.714 128.824  0.00  0.00    +0.000 A 
ATOM     26  C   UNL     1      -7.767  -2.270 128.304  0.00  0.00    +0.000 A 
ATOM     27  N   UNL     1      -7.938  -1.061 127.485  0.00  0.00    +0.000 NA
BRANCH  25  28
ATOM     28  C   UNL     1      -6.598  -3.435 130.498  0.00  0.00    +0.000 A 
ATOM     29  C   UNL     1      -5.816  -4.573 130.433  0.00  0.00    +0.000 A 
ATOM     30  C   UNL     1      -5.367  -5.233 131.583  0.00  0.00    +0.000 A 
ATOM     31  C   UNL     1      -5.650  -4.829 132.891  0.00  0.00    +0.000 A 
ATOM     32  C   UNL     1      -6.510  -3.811 133.133  0.00  0.00    +0.000 A 
ATOM     33  C   UNL     1      -6.993  -3.084 132.038  0.00  0.00    +0.000 A 
ATOM     34  C   UNL     1      -7.694  -1.947 132.858  0.00  0.00    +0.000 C 
ENDBRANCH  25  28
ENDBRANCH  21  22
ENDBRANCH   1  21
TORSDOF 8
ENDMDL
MODEL 5
REMARK VINA RESULT:      -9.3      3.089      5.360
REMARK  Name = CHEMBL458635
REMARK  11 active torsions:
REMARK  status: ('A' for Active; 'I' for Inactive)
REMARK    1  A    between atoms: C_1  and  O_2
REMARK    2  A    between atoms: O_2  and  C_3
REMARK    3  A    between atoms: C_6  and  S_7
REMARK    4  A    between atoms: S_7  and  N_10
REMARK    5  A    between atoms: N_10  and  C_11
REMARK    6  A    between atoms: N_10  and  C_25
REMARK    7  A    between atoms: C_11  and  C_12
REMARK    8  A    between atoms: C_15  and  C_16
REMARK    9  A    between atoms: C_21  and  C_22
REMARK   10  A    between atoms: C_28  and  O_29
REMARK   11  A    between atoms: O_29  and  C_30
REMARK                            x       y       z     vdW  Elec       q    Type
REMARK                         _______ _______ _______ _____ _____    ______ ____
ROOT
ATOM      1  N   UNL     1      -9.821   5.355 131.330  0.00  0.00    +0.000 N 
ENDROOT
BRANCH   1   2
ATOM      2  C   UNL     1     -10.721   6.395 130.808  0.00  0.00    +0.000 A 
ATOM      3  C   UNL     1     -11.957   6.652 131.406  0.00  0.00    +0.000 A 
ATOM      4  C   UNL     1     -12.819   7.605 130.873  0.00  0.00    +0.000 A 
ATOM      5  C   UNL     1     -12.425   8.319 129.754  0.00  0.00    +0.000 A 
ATOM      6  N   UNL     1     -11.238   8.098 129.147  0.00  0.00    +0.000 NA
ATOM      7  C   UNL     1     -10.432   7.136 129.669  0.00  0.00    +0.000 A 
BRANCH   5   8
ATOM      8  O   UNL     1     -13.173   9.301 129.166  0.00  0.00    +0.000 OA
ATOM      9  C   UNL     1     -13.319  10.503 129.915  0.00  0.00    +0.000 C 
ENDBRANCH   5   8
ENDBRANCH   1   2
BRANCH   1  10
ATOM     10  S   UNL     1     -10.011   3.943 130.357  0.00  0.00    +0.000 S 
ATOM     11  O   UNL     1      -9.287   4.123 129.095  0.00  0.00    +0.000 OA
ATOM     12  O   UNL     1     -11.379   3.543 130.405  0.00  0.00    +0.000 OA
BRANCH  10  16
ATOM     13  C   UNL     1      -8.398   0.006 130.740  0.00  0.00    +0.000 A 
ATOM     14  C   UNL     1      -7.551   1.063 130.482  0.00  0.00    +0.000 A 
ATOM     15  C   UNL     1      -7.839   2.394 130.845  0.00  0.00    +0.000 A 
ATOM     16  C   UNL     1      -9.165   2.651 131.026  0.00  0.00    +0.000 A 
ATOM     17  C   UNL     1      -9.722   1.922 131.850  0.00  0.00    +0.000 A 
ATOM     18  C   UNL     1      -9.350   0.650 131.513  0.00  0.00    +0.000 A 
BRANCH  13  20
ATOM     19  C   UNL     1      -7.433  -2.785 131.134  0.00  0.00    +0.000 C 
ATOM     20  O   UNL     1      -8.165  -1.428 130.534  0.00  0.00    +0.000 OA
ENDBRANCH  13  20
ENDBRANCH  10  16
ENDBRANCH   1  10
BRANCH   1  21
ATOM     21  C   UNL     1      -8.865   5.819 132.503  0.00  0.00    +0.000 C 
BRANCH  21  22
ATOM     22  C   UNL     1      -7.228   5.906 132.641  0.00  0.00    +0.000 A 
ATOM     23  C   UNL     1      -6.496   4.816 133.208  0.00  0.00    +0.000 A 
ATOM     24  C   UNL     1      -5.038   4.685 132.801  0.00  0.00    +0.000 A 
ATOM     25  C   UNL     1      -4.376   5.530 131.523  0.00  0.00    +0.000 A 
ATOM     26  C   UNL     1      -5.218   6.672 131.206  0.00  0.00    +0.000 A 
ATOM     27  N   UNL     1      -6.546   6.892 131.798  0.00  0.00    +0.000 NA
BRANCH  25  28
ATOM     28  C   UNL     1      -3.450   4.899 130.082  0.00  0.00    +0.000 A 
ATOM     29  C   UNL     1      -3.784   3.559 130.021  0.00  0.00    +0.000 A 
ATOM     30  C   UNL     1      -3.556   2.787 128.876  0.00  0.00    +0.000 A 
ATOM     31  C   UNL     1      -2.980   3.267 127.697  0.00  0.00    +0.000 A 
ATOM     32  C   UNL     1      -2.475   4.523 127.632  0.00  0.00    +0.000 A 
ATOM     33  C   UNL     1      -2.676   5.370 128.728  0.00  0.00    +0.000 A 
ATOM     34  C   UNL     1      -2.147   6.683 128.056  0.00  0.00    +0.000 C 
ENDBRANCH  25  28
ENDBRANCH  21  22
ENDBRANCH   1  21
TORSDOF 8
ENDMDL
MODEL 6
REMARK VINA RESULT:      -9.1      4.410      6.616
REMARK  Name = CHEMBL458635
REMARK  11 active torsions:
REMARK  status: ('A' for Active; 'I' for Inactive)
REMARK    1  A    between atoms: C_1  and  O_2
REMARK    2  A    between atoms: O_2  and  C_3
REMARK    3  A    between atoms: C_6  and  S_7
REMARK    4  A    between atoms: S_7  and  N_10
REMARK    5  A    between atoms: N_10  and  C_11
REMARK    6  A    between atoms: N_10  and  C_25
REMARK    7  A    between atoms: C_11  and  C_12
REMARK    8  A    between atoms: C_15  and  C_16
REMARK    9  A    between atoms: C_21  and  C_22
REMARK   10  A    between atoms: C_28  and  O_29
REMARK   11  A    between atoms: O_29  and  C_30
REMARK                            x       y       z     vdW  Elec       q    Type
REMARK                         _______ _______ _______ _____ _____    ______ ____
ROOT
ATOM      1  N   UNL     1      -6.255   2.618 129.468  0.00  0.00    +0.000 N 
ENDROOT
BRANCH   1   2
ATOM      2  C   UNL     1      -5.339   3.718 129.806  0.00  0.00    +0.000 A 
ATOM      3  C   UNL     1      -3.964   3.613 129.580  0.00  0.00    +0.000 A 
ATOM      4  C   UNL     1      -3.103   4.643 129.947  0.00  0.00    +0.000 A 
ATOM      5  C   UNL     1      -3.630   5.788 130.519  0.00  0.00    +0.000 A 
ATOM      6  N   UNL     1      -4.953   5.927 130.756  0.00  0.00    +0.000 NA
ATOM      7  C   UNL     1      -5.765   4.890 130.418  0.00  0.00    +0.000 A 
BRANCH   5   8
ATOM      8  O   UNL     1      -2.886   6.875 130.888  0.00  0.00    +0.000 OA
ATOM      9  C   UNL     1      -3.562   8.127 130.867  0.00  0.00    +0.000 C 
ENDBRANCH   5   8
ENDBRANCH   1   2
BRANCH   1  10
ATOM     10  S   UNL     1      -7.170   3.086 128.082  0.00  0.00    +0.000 S 
ATOM     11  O   UNL     1      -6.315   3.862 127.178  0.00  0.00    +0.000 OA
ATOM     12  O   UNL     1      -8.444   3.552 128.520  0.00  0.00    +0.000 OA
BRANCH  10  16
ATOM     13  C   UNL     1      -8.328   0.842 124.637  0.00  0.00    +0.000 A 
ATOM     14  C   UNL     1      -7.009   0.829 125.043  0.00  0.00    +0.000 A 
ATOM     15  C   UNL     1      -6.606   1.057 126.374  0.00  0.00    +0.000 A 
ATOM     16  C   UNL     1      -7.511   1.746 127.124  0.00  0.00    +0.000 A 
ATOM     17  C   UNL     1      -8.634   1.238 127.169  0.00  0.00    +0.000 A 
ATOM     18  C   UNL     1      -8.952   0.956 125.868  0.00  0.00    +0.000 A 
BRANCH  13  20
ATOM     19  C   UNL     1     -10.267   0.417 122.416  0.00  0.00    +0.000 C 
ATOM     20  O   UNL     1      -8.888   0.496 123.326  0.00  0.00    +0.000 OA
ENDBRANCH  13  20
ENDBRANCH  10  16
ENDBRANCH   1  10
BRANCH   1  21
ATOM     21  C   UNL     1      -6.080   1.306 130.336  0.00  0.00    +0.000 C 
BRANCH  21  22
ATOM     22  C   UNL     1      -6.331  -0.288 130.016  0.00  0.00    +0.000 A 
ATOM     23  C   UNL     1      -7.635  -0.855 130.173  0.00  0.00    +0.000 A 
ATOM     24  C   UNL     1      -7.944  -2.096 129.353  0.00  0.00    +0.000 A 
ATOM     25  C   UNL     1      -6.983  -2.608 128.088  0.00  0.00    +0.000 A 
ATOM     26  C   UNL     1      -5.664  -2.010 128.207  0.00  0.00    +0.000 A 
ATOM     27  N   UNL     1      -5.332  -0.957 129.179  0.00  0.00    +0.000 NA
BRANCH  25  28
ATOM     28  C   UNL     1      -7.451  -2.978 126.362  0.00  0.00    +0.000 A 
ATOM     29  C   UNL     1      -8.828  -3.094 126.399  0.00  0.00    +0.000 A 
ATOM     30  C   UNL     1      -9.610  -3.044 125.239  0.00  0.00    +0.000 A 
ATOM     31  C   UNL     1      -9.103  -2.877 123.947  0.00  0.00    +0.000 A 
ATOM     32  C   UNL     1      -7.768  -2.879 123.719  0.00  0.00    +0.000 A 
ATOM     33  C   UNL     1      -6.912  -2.907 124.827  0.00  0.00    +0.000 A 
ATOM     34  C   UNL     1      -5.578  -2.653 124.045  0.00  0.00    +0.000 C 
ENDBRANCH  25  28
ENDBRANCH  21  22
ENDBRANCH   1  21
TORSDOF 8
ENDMDL
MODEL 7
REMARK VINA RESULT:      -9.0      2.340      3.495
REMARK  Name = CHEMBL458635
REMARK  11 active torsions:
REMARK  status: ('A' for Active; 'I' for Inactive)
REMARK    1  A    between atoms: C_1  and  O_2
REMARK    2  A    between atoms: O_2  and  C_3
REMARK    3  A    between atoms: C_6  and  S_7
REMARK    4  A    between atoms: S_7  and  N_10
REMARK    5  A    between atoms: N_10  and  C_11
REMARK    6  A    between atoms: N_10  and  C_25
REMARK    7  A    between atoms: C_11  and  C_12
REMARK    8  A    between atoms: C_15  and  C_16
REMARK    9  A    between atoms: C_21  and  C_22
REMARK   10  A    between atoms: C_28  and  O_29
REMARK   11  A    between atoms: O_29  and  C_30
REMARK                            x       y       z     vdW  Elec       q    Type
REMARK                         _______ _______ _______ _____ _____    ______ ____
ROOT
ATOM      1  N   UNL     1      -8.236   3.641 131.495  0.00  0.00    +0.000 N 
ENDROOT
BRANCH   1   2
ATOM      2  C   UNL     1      -9.410   4.527 131.505  0.00  0.00    +0.000 A 
ATOM      3  C   UNL     1     -10.381   4.457 130.503  0.00  0.00    +0.000 A 
ATOM      4  C   UNL     1     -11.462   5.333 130.499  0.00  0.00    +0.000 A 
ATOM      5  C   UNL     1     -11.579   6.263 131.518  0.00  0.00    +0.000 A 
ATOM      6  N   UNL     1     -10.660   6.362 132.504  0.00  0.00    +0.000 NA
ATOM      7  C   UNL     1      -9.596   5.516 132.462  0.00  0.00    +0.000 A 
BRANCH   5   8
ATOM      8  O   UNL     1     -12.614   7.149 131.636  0.00  0.00    +0.000 OA
ATOM      9  C   UNL     1     -12.820   8.015 130.525  0.00  0.00    +0.000 C 
ENDBRANCH   5   8
ENDBRANCH   1   2
BRANCH   1  10
ATOM     10  S   UNL     1      -8.388   2.533 132.809  0.00  0.00    +0.000 S 
ATOM     11  O   UNL     1      -9.792   2.131 132.944  0.00  0.00    +0.000 OA
ATOM     12  O   UNL     1      -7.624   3.027 133.906  0.00  0.00    +0.000 OA
BRANCH  10  16
ATOM     13  C   UNL     1      -7.626  -1.670 132.883  0.00  0.00    +0.000 A 
ATOM     14  C   UNL     1      -8.223  -1.109 131.772  0.00  0.00    +0.000 A 
ATOM     15  C   UNL     1      -8.053   0.240 131.400  0.00  0.00    +0.000 A 
ATOM     16  C   UNL     1      -7.673   1.060 132.420  0.00  0.00    +0.000 A 
ATOM     17  C   UNL     1      -6.643   0.713 133.001  0.00  0.00    +0.000 A 
ATOM     18  C   UNL     1      -6.814  -0.617 133.270  0.00  0.00    +0.000 A 
BRANCH  13  20
ATOM     19  C   UNL     1      -7.558  -4.102 134.601  0.00  0.00    +0.000 C 
ATOM     20  O   UNL     1      -7.615  -3.074 133.306  0.00  0.00    +0.000 OA
ENDBRANCH  13  20
ENDBRANCH  10  16
ENDBRANCH   1  10
BRANCH   1  21
ATOM     21  C   UNL     1      -7.256   3.837 130.268  0.00  0.00    +0.000 C 
BRANCH  21  22
ATOM     22  C   UNL     1      -6.233   2.817 129.482  0.00  0.00    +0.000 A 
ATOM     23  C   UNL     1      -4.966   2.485 130.057  0.00  0.00    +0.000 A 
ATOM     24  C   UNL     1      -4.344   1.167 129.629  0.00  0.00    +0.000 A 
ATOM     25  C   UNL     1      -5.193  -0.008 128.803  0.00  0.00    +0.000 A 
ATOM     26  C   UNL     1      -6.370   0.583 128.188  0.00  0.00    +0.000 A 
ATOM     27  N   UNL     1      -6.822   1.957 128.451  0.00  0.00    +0.000 NA
BRANCH  25  28
ATOM     28  C   UNL     1      -5.408  -1.776 129.211  0.00  0.00    +0.000 A 
ATOM     29  C   UNL     1      -4.320  -2.075 130.011  0.00  0.00    +0.000 A 
ATOM     30  C   UNL     1      -4.278  -3.226 130.806  0.00  0.00    +0.000 A 
ATOM     31  C   UNL     1      -5.299  -4.178 130.882  0.00  0.00    +0.000 A 
ATOM     32  C   UNL     1      -6.378  -4.105 130.065  0.00  0.00    +0.000 A 
ATOM     33  C   UNL     1      -6.509  -2.975 129.248  0.00  0.00    +0.000 A 
ATOM     34  C   UNL     1      -7.962  -3.273 128.741  0.00  0.00    +0.000 C 
ENDBRANCH  25  28
ENDBRANCH  21  22
ENDBRANCH   1  21
TORSDOF 8
ENDMDL
MODEL 8
REMARK VINA RESULT:      -9.0      5.835      9.489
REMARK  Name = CHEMBL458635
REMARK  11 active torsions:
REMARK  status: ('A' for Active; 'I' for Inactive)
REMARK    1  A    between atoms: C_1  and  O_2
REMARK    2  A    between atoms: O_2  and  C_3
REMARK    3  A    between atoms: C_6  and  S_7
REMARK    4  A    between atoms: S_7  and  N_10
REMARK    5  A    between atoms: N_10  and  C_11
REMARK    6  A    between atoms: N_10  and  C_25
REMARK    7  A    between atoms: C_11  and  C_12
REMARK    8  A    between atoms: C_15  and  C_16
REMARK    9  A    between atoms: C_21  and  C_22
REMARK   10  A    between atoms: C_28  and  O_29
REMARK   11  A    between atoms: O_29  and  C_30
REMARK                            x       y       z     vdW  Elec       q    Type
REMARK                         _______ _______ _______ _____ _____    ______ ____
ROOT
ATOM      1  N   UNL     1      -7.983   2.070 124.516  0.00  0.00    +0.000 N 
ENDROOT
BRANCH   1   2
ATOM      2  C   UNL     1      -7.712   2.631 123.183  0.00  0.00    +0.000 A 
ATOM      3  C   UNL     1      -6.406   2.817 122.725  0.00  0.00    +0.000 A 
ATOM      4  C   UNL     1      -6.164   3.393 121.482  0.00  0.00    +0.000 A 
ATOM      5  C   UNL     1      -7.238   3.758 120.689  0.00  0.00    +0.000 A 
ATOM      6  N   UNL     1      -8.516   3.595 121.097  0.00  0.00    +0.000 NA
ATOM      7  C   UNL     1      -8.721   3.062 122.331  0.00  0.00    +0.000 A 
BRANCH   5   8
ATOM      8  O   UNL     1      -7.122   4.298 119.438  0.00  0.00    +0.000 OA
ATOM      9  C   UNL     1      -8.332   4.423 118.699  0.00  0.00    +0.000 C 
ENDBRANCH   5   8
ENDBRANCH   1   2
BRANCH   1  10
ATOM     10  S   UNL     1      -8.752   0.540 124.309  0.00  0.00    +0.000 S 
ATOM     11  O   UNL     1      -8.730   0.175 122.888  0.00  0.00    +0.000 OA
ATOM     12  O   UNL     1      -9.948   0.527 125.083  0.00  0.00    +0.000 OA
BRANCH  10  16
ATOM     13  C   UNL     1      -6.259  -2.926 124.453  0.00  0.00    +0.000 A 
ATOM     14  C   UNL     1      -5.716  -1.689 124.730  0.00  0.00    +0.000 A 
ATOM     15  C   UNL     1      -6.470  -0.604 125.224  0.00  0.00    +0.000 A 
ATOM     16  C   UNL     1      -7.805  -0.687 124.965  0.00  0.00    +0.000 A 
ATOM     17  C   UNL     1      -8.345  -1.718 125.373  0.00  0.00    +0.000 A 
ATOM     18  C   UNL     1      -7.539  -2.737 124.945  0.00  0.00    +0.000 A 
BRANCH  13  20
ATOM     19  C   UNL     1      -4.186  -4.804 123.429  0.00  0.00    +0.000 C 
ATOM     20  O   UNL     1      -5.572  -4.163 124.064  0.00  0.00    +0.000 OA
ENDBRANCH  13  20
ENDBRANCH  10  16
ENDBRANCH   1  10
BRANCH   1  21
ATOM     21  C   UNL     1      -7.409   2.910 125.728  0.00  0.00    +0.000 C 
BRANCH  21  22
ATOM     22  C   UNL     1      -5.916   3.010 126.411  0.00  0.00    +0.000 A 
ATOM     23  C   UNL     1      -4.975   3.979 125.940  0.00  0.00    +0.000 A 
ATOM     24  C   UNL     1      -3.899   4.419 126.919  0.00  0.00    +0.000 A 
ATOM     25  C   UNL     1      -3.966   4.078 128.551  0.00  0.00    +0.000 A 
ATOM     26  C   UNL     1      -4.882   2.973 128.780  0.00  0.00    +0.000 A 
ATOM     27  N   UNL     1      -5.756   2.412 127.739  0.00  0.00    +0.000 NA
BRANCH  25  28
ATOM     28  C   UNL     1      -3.847   5.219 129.972  0.00  0.00    +0.000 A 
ATOM     29  C   UNL     1      -2.488   5.390 130.159  0.00  0.00    +0.000 A 
ATOM     30  C   UNL     1      -1.970   6.440 130.926  0.00  0.00    +0.000 A 
ATOM     31  C   UNL     1      -2.744   7.408 131.573  0.00  0.00    +0.000 A 
ATOM     32  C   UNL     1      -4.095   7.312 131.601  0.00  0.00    +0.000 A 
ATOM     33  C   UNL     1      -4.698   6.300 130.844  0.00  0.00    +0.000 A 
ATOM     34  C   UNL     1      -6.179   6.780 131.027  0.00  0.00    +0.000 C 
ENDBRANCH  25  28
ENDBRANCH  21  22
ENDBRANCH   1  21
TORSDOF 8
ENDMDL
MODEL 9
REMARK VINA RESULT:      -9.0      2.911      3.823
REMARK  Name = CHEMBL458635
REMARK  11 active torsions:
REMARK  status: ('A' for Active; 'I' for Inactive)
REMARK    1  A    between atoms: C_1  and  O_2
REMARK    2  A    between atoms: O_2  and  C_3
REMARK    3  A    between atoms: C_6  and  S_7
REMARK    4  A    between atoms: S_7  and  N_10
REMARK    5  A    between atoms: N_10  and  C_11
REMARK    6  A    between atoms: N_10  and  C_25
REMARK    7  A    between atoms: C_11  and  C_12
REMARK    8  A    between atoms: C_15  and  C_16
REMARK    9  A    between atoms: C_21  and  C_22
REMARK   10  A    between atoms: C_28  and  O_29
REMARK   11  A    between atoms: O_29  and  C_30
REMARK                            x       y       z     vdW  Elec       q    Type
REMARK                         _______ _______ _______ _____ _____    ______ ____
ROOT
ATOM      1  N   UNL     1      -7.151   4.967 130.886  0.00  0.00    +0.000 N 
ENDROOT
BRANCH   1   2
ATOM      2  C   UNL     1      -8.538   5.402 131.110  0.00  0.00    +0.000 A 
ATOM      3  C   UNL     1      -8.975   5.812 132.371  0.00  0.00    +0.000 A 
ATOM      4  C   UNL     1     -10.301   6.176 132.580  0.00  0.00    +0.000 A 
ATOM      5  C   UNL     1     -11.182   6.150 131.513  0.00  0.00    +0.000 A 
ATOM      6  N   UNL     1     -10.798   5.758 130.278  0.00  0.00    +0.000 NA
ATOM      7  C   UNL     1      -9.504   5.375 130.113  0.00  0.00    +0.000 A 
BRANCH   5   8
ATOM      8  O   UNL     1     -12.497   6.519 131.592  0.00  0.00    +0.000 OA
ATOM      9  C   UNL     1     -12.833   7.757 130.977  0.00  0.00    +0.000 C 
ENDBRANCH   5   8
ENDBRANCH   1   2
BRANCH   1  10
ATOM     10  S   UNL     1      -6.111   6.310 131.188  0.00  0.00    +0.000 S 
ATOM     11  O   UNL     1      -5.738   6.324 132.607  0.00  0.00    +0.000 OA
ATOM     12  O   UNL     1      -6.645   7.453 130.526  0.00  0.00    +0.000 OA
BRANCH  10  16
ATOM     13  C   UNL     1      -3.113   4.500 128.741  0.00  0.00    +0.000 A 
ATOM     14  C   UNL     1      -3.629   5.729 128.384  0.00  0.00    +0.000 A 
ATOM     15  C   UNL     1      -4.182   6.636 129.310  0.00  0.00    +0.000 A 
ATOM     16  C   UNL     1      -4.609   6.063 130.470  0.00  0.00    +0.000 A 
ATOM     17  C   UNL     1      -3.749   5.414 131.069  0.00  0.00    +0.000 A 
ATOM     18  C   UNL     1      -3.181   4.609 130.120  0.00  0.00    +0.000 A 
BRANCH  13  20
ATOM     19  C   UNL     1      -1.750   3.236 126.414  0.00  0.00    +0.000 C 
ATOM     20  O   UNL     1      -2.399   3.527 127.907  0.00  0.00    +0.000 OA
ENDBRANCH  13  20
ENDBRANCH  10  16
ENDBRANCH   1  10
BRANCH   1  21
ATOM     21  C   UNL     1      -6.971   3.426 130.571  0.00  0.00    +0.000 C 
BRANCH  21  22
ATOM     22  C   UNL     1      -6.721   2.593 129.175  0.00  0.00    +0.000 A 
ATOM     23  C   UNL     1      -5.518   1.841 128.993  0.00  0.00    +0.000 A 
ATOM     24  C   UNL     1      -5.578   0.681 128.014  0.00  0.00    +0.000 A 
ATOM     25  C   UNL     1      -7.013   0.073 127.419  0.00  0.00    +0.000 A 
ATOM     26  C   UNL     1      -8.068   1.058 127.589  0.00  0.00    +0.000 A 
ATOM     27  N   UNL     1      -7.904   2.298 128.362  0.00  0.00    +0.000 NA
BRANCH  25  28
ATOM     28  C   UNL     1      -7.629  -1.647 127.431  0.00  0.00    +0.000 A 
ATOM     29  C   UNL     1      -7.482  -2.052 128.745  0.00  0.00    +0.000 A 
ATOM     30  C   UNL     1      -8.137  -3.181 129.252  0.00  0.00    +0.000 A 
ATOM     31  C   UNL     1      -8.990  -4.004 128.510  0.00  0.00    +0.000 A 
ATOM     32  C   UNL     1      -9.141  -3.825 127.176  0.00  0.00    +0.000 A 
ATOM     33  C   UNL     1      -8.533  -2.708 126.589  0.00  0.00    +0.000 A 
ATOM     34  C   UNL     1      -9.200  -2.846 125.178  0.00  0.00    +0.000 C 
ENDBRANCH  25  28
ENDBRANCH  21  22
ENDBRANCH   1  21
TORSDOF 8
ENDMDL
