MODEL 1
REMARK VINA RESULT:      -8.7      0.000      0.000
REMARK  Name = CHEMBL591310
REMARK  7 active torsions:
REMARK  status: ('A' for Active; 'I' for Inactive)
REMARK    1  A    between atoms: C_1  and  O_2
REMARK    2  A    between atoms: O_2  and  C_3
REMARK    3  A    between atoms: C_6  and  N_7
REMARK    4  A    between atoms: C_8  and  C_9
REMARK    5  A    between atoms: C_16  and  O_17
REMARK    6  A    between atoms: O_17  and  C_18
REMARK    7  A    between atoms: C_24  and  C_25
REMARK                            x       y       z     vdW  Elec       q    Type
REMARK                         _______ _______ _______ _____ _____    ______ ____
ROOT
ATOM      1  N   UNL     1      -6.452  -2.337 124.647  0.00  0.00    +0.000 N 
ATOM      2  C   UNL     1      -5.634  -3.066 123.783  0.00  0.00    +0.000 A 
ATOM      3  C   UNL     1      -5.059  -4.425 123.949  0.00  0.00    +0.000 C 
ATOM      4  N   UNL     1      -5.536  -2.417 122.634  0.00  0.00    +0.000 NA
ATOM      5  N   UNL     1      -6.308  -1.298 122.684  0.00  0.00    +0.000 NA
ATOM      6  C   UNL     1      -6.849  -1.212 123.889  0.00  0.00    +0.000 A 
ATOM      7  N   UNL     1      -7.557  -0.185 124.374  0.00  0.00    +0.000 N 
ATOM      8  C   UNL     1      -7.166   0.535 125.541  0.00  0.00    +0.000 C 
ATOM      9  C   UNL     1      -8.537   0.785 126.096  0.00  0.00    +0.000 C 
ATOM     10  C   UNL     1      -9.371   1.327 124.961  0.00  0.00    +0.000 C 
ATOM     11  C   UNL     1      -8.756   0.448 123.784  0.00  0.00    +0.000 C 
ENDROOT
BRANCH   1  15
ATOM     12  C   UNL     1      -7.853  -3.084 128.555  0.00  0.00    +0.000 A 
ATOM     13  C   UNL     1      -8.672  -3.399 127.483  0.00  0.00    +0.000 A 
ATOM     14  C   UNL     1      -8.195  -3.181 126.177  0.00  0.00    +0.000 A 
ATOM     15  C   UNL     1      -6.909  -2.671 125.965  0.00  0.00    +0.000 A 
ATOM     16  C   UNL     1      -6.173  -2.357 127.099  0.00  0.00    +0.000 A 
ATOM     17  N   UNL     1      -6.626  -2.543 128.377  0.00  0.00    +0.000 NA
BRANCH  12  19
ATOM     18  C   UNL     1      -7.232  -3.071 130.844  0.00  0.00    +0.000 C 
ATOM     19  O   UNL     1      -8.264  -3.162 129.863  0.00  0.00    +0.000 OA
ENDBRANCH  12  19
ENDBRANCH   1  15
BRANCH  10  20
ATOM     20  O   UNL     1      -9.157   2.765 124.812  0.00  0.00    +0.000 OA
BRANCH  20  21
ATOM     21  C   UNL     1      -8.213   3.252 123.906  0.00  0.00    +0.000 A 
ATOM     22  C   UNL     1      -8.507   3.044 122.537  0.00  0.00    +0.000 A 
ATOM     23  C   UNL     1      -7.549   3.294 121.530  0.00  0.00    +0.000 A 
ATOM     24  C   UNL     1      -6.279   3.719 121.874  0.00  0.00    +0.000 A 
ATOM     25  F   UNL     1      -5.340   3.931 120.944  0.00  0.00    +0.000 F 
ATOM     26  C   UNL     1      -5.958   3.922 123.193  0.00  0.00    +0.000 A 
ATOM     27  C   UNL     1      -6.893   3.691 124.218  0.00  0.00    +0.000 A 
ATOM     28  C   UNL     1      -6.281   4.001 125.550  0.00  0.00    +0.000 C 
ENDBRANCH  20  21
ENDBRANCH  10  20
TORSDOF 4
ENDMDL
MODEL 2
REMARK VINA RESULT:      -8.5      4.448      7.499
REMARK  Name = CHEMBL591310
REMARK  7 active torsions:
REMARK  status: ('A' for Active; 'I' for Inactive)
REMARK    1  A    between atoms: C_1  and  O_2
REMARK    2  A    between atoms: O_2  and  C_3
REMARK    3  A    between atoms: C_6  and  N_7
REMARK    4  A    between atoms: C_8  and  C_9
REMARK    5  A    between atoms: C_16  and  O_17
REMARK    6  A    between atoms: O_17  and  C_18
REMARK    7  A    between atoms: C_24  and  C_25
REMARK                            x       y       z     vdW  Elec       q    Type
REMARK                         _______ _______ _______ _____ _____    ______ ____
ROOT
ATOM      1  N   UNL     1      -8.252   1.597 123.929  0.00  0.00    +0.000 N 
ATOM      2  C   UNL     1      -9.027   0.437 123.910  0.00  0.00    +0.000 A 
ATOM      3  C   UNL     1      -9.579  -0.310 122.751  0.00  0.00    +0.000 C 
ATOM      4  N   UNL     1      -9.100  -0.051 125.137  0.00  0.00    +0.000 NA
ATOM      5  N   UNL     1      -8.353   0.720 125.972  0.00  0.00    +0.000 NA
ATOM      6  C   UNL     1      -7.854   1.731 125.279  0.00  0.00    +0.000 A 
ATOM      7  N   UNL     1      -7.182   2.780 125.769  0.00  0.00    +0.000 N 
ATOM      8  C   UNL     1      -7.626   4.125 125.596  0.00  0.00    +0.000 C 
ATOM      9  C   UNL     1      -6.278   4.765 125.435  0.00  0.00    +0.000 C 
ATOM     10  C   UNL     1      -5.419   4.256 126.566  0.00  0.00    +0.000 C 
ATOM     11  C   UNL     1      -5.978   2.766 126.626  0.00  0.00    +0.000 C 
ENDROOT
BRANCH   1  15
ATOM     12  C   UNL     1      -6.992   3.842 120.587  0.00  0.00    +0.000 A 
ATOM     13  C   UNL     1      -8.344   3.795 120.886  0.00  0.00    +0.000 A 
ATOM     14  C   UNL     1      -8.765   3.073 122.019  0.00  0.00    +0.000 A 
ATOM     15  C   UNL     1      -7.831   2.429 122.839  0.00  0.00    +0.000 A 
ATOM     16  C   UNL     1      -6.503   2.507 122.444  0.00  0.00    +0.000 A 
ATOM     17  N   UNL     1      -6.076   3.187 121.336  0.00  0.00    +0.000 NA
BRANCH  12  19
ATOM     18  C   UNL     1      -5.432   5.362 119.649  0.00  0.00    +0.000 C 
ATOM     19  O   UNL     1      -6.494   4.429 119.451  0.00  0.00    +0.000 OA
ENDBRANCH  12  19
ENDBRANCH   1  15
BRANCH  10  20
ATOM     20  O   UNL     1      -5.657   5.036 127.779  0.00  0.00    +0.000 OA
BRANCH  20  21
ATOM     21  C   UNL     1      -4.586   5.535 128.523  0.00  0.00    +0.000 A 
ATOM     22  C   UNL     1      -3.577   6.199 127.785  0.00  0.00    +0.000 A 
ATOM     23  C   UNL     1      -2.348   6.563 128.378  0.00  0.00    +0.000 A 
ATOM     24  C   UNL     1      -2.094   6.240 129.698  0.00  0.00    +0.000 A 
ATOM     25  F   UNL     1      -0.925   6.541 130.276  0.00  0.00    +0.000 F 
ATOM     26  C   UNL     1      -3.047   5.588 130.439  0.00  0.00    +0.000 A 
ATOM     27  C   UNL     1      -4.285   5.221 129.881  0.00  0.00    +0.000 A 
ATOM     28  C   UNL     1      -5.130   4.537 130.912  0.00  0.00    +0.000 C 
ENDBRANCH  20  21
ENDBRANCH  10  20
TORSDOF 4
ENDMDL
MODEL 3
REMARK VINA RESULT:      -8.3      4.573      7.037
REMARK  Name = CHEMBL591310
REMARK  7 active torsions:
REMARK  status: ('A' for Active; 'I' for Inactive)
REMARK    1  A    between atoms: C_1  and  O_2
REMARK    2  A    between atoms: O_2  and  C_3
REMARK    3  A    between atoms: C_6  and  N_7
REMARK    4  A    between atoms: C_8  and  C_9
REMARK    5  A    between atoms: C_16  and  O_17
REMARK    6  A    between atoms: O_17  and  C_18
REMARK    7  A    between atoms: C_24  and  C_25
REMARK                            x       y       z     vdW  Elec       q    Type
REMARK                         _______ _______ _______ _____ _____    ______ ____
ROOT
ATOM      1  N   UNL     1      -6.724   2.829 123.477  0.00  0.00    +0.000 N 
ATOM      2  C   UNL     1      -6.024   3.585 122.536  0.00  0.00    +0.000 A 
ATOM      3  C   UNL     1      -5.992   3.457 121.056  0.00  0.00    +0.000 C 
ATOM      4  N   UNL     1      -5.458   4.613 123.146  0.00  0.00    +0.000 NA
ATOM      5  N   UNL     1      -5.801   4.597 124.463  0.00  0.00    +0.000 NA
ATOM      6  C   UNL     1      -6.539   3.523 124.693  0.00  0.00    +0.000 A 
ATOM      7  N   UNL     1      -6.952   3.081 125.887  0.00  0.00    +0.000 N 
ATOM      8  C   UNL     1      -6.616   1.787 126.385  0.00  0.00    +0.000 C 
ATOM      9  C   UNL     1      -7.912   1.494 127.082  0.00  0.00    +0.000 C 
ATOM     10  C   UNL     1      -8.238   2.706 127.919  0.00  0.00    +0.000 C 
ATOM     11  C   UNL     1      -7.704   3.825 126.920  0.00  0.00    +0.000 C 
ENDROOT
BRANCH   1  15
ATOM     12  C   UNL     1      -9.138  -0.614 123.141  0.00  0.00    +0.000 A 
ATOM     13  C   UNL     1      -9.750   0.628 123.161  0.00  0.00    +0.000 A 
ATOM     14  C   UNL     1      -8.946   1.781 123.241  0.00  0.00    +0.000 A 
ATOM     15  C   UNL     1      -7.551   1.673 123.281  0.00  0.00    +0.000 A 
ATOM     16  C   UNL     1      -7.029   0.387 123.287  0.00  0.00    +0.000 A 
ATOM     17  N   UNL     1      -7.794  -0.746 123.229  0.00  0.00    +0.000 NA
BRANCH  12  19
ATOM     18  C   UNL     1      -9.150  -2.908 123.744  0.00  0.00    +0.000 C 
ATOM     19  O   UNL     1      -9.836  -1.796 123.170  0.00  0.00    +0.000 OA
ENDBRANCH  12  19
ENDBRANCH   1  15
BRANCH  10  20
ATOM     20  O   UNL     1      -7.527   2.651 129.195  0.00  0.00    +0.000 OA
BRANCH  20  21
ATOM     21  C   UNL     1      -8.214   2.822 130.398  0.00  0.00    +0.000 A 
ATOM     22  C   UNL     1      -8.288   4.150 130.884  0.00  0.00    +0.000 A 
ATOM     23  C   UNL     1      -8.765   4.435 132.183  0.00  0.00    +0.000 A 
ATOM     24  C   UNL     1      -9.138   3.404 133.024  0.00  0.00    +0.000 A 
ATOM     25  F   UNL     1      -9.561   3.641 134.272  0.00  0.00    +0.000 F 
ATOM     26  C   UNL     1      -9.070   2.105 132.588  0.00  0.00    +0.000 A 
ATOM     27  C   UNL     1      -8.609   1.788 131.298  0.00  0.00    +0.000 A 
ATOM     28  C   UNL     1      -8.649   0.306 131.087  0.00  0.00    +0.000 C 
ENDBRANCH  20  21
ENDBRANCH  10  20
TORSDOF 4
ENDMDL
MODEL 4
REMARK VINA RESULT:      -8.2      3.951      6.236
REMARK  Name = CHEMBL591310
REMARK  7 active torsions:
REMARK  status: ('A' for Active; 'I' for Inactive)
REMARK    1  A    between atoms: C_1  and  O_2
REMARK    2  A    between atoms: O_2  and  C_3
REMARK    3  A    between atoms: C_6  and  N_7
REMARK    4  A    between atoms: C_8  and  C_9
REMARK    5  A    between atoms: C_16  and  O_17
REMARK    6  A    between atoms: O_17  and  C_18
REMARK    7  A    between atoms: C_24  and  C_25
REMARK                            x       y       z     vdW  Elec       q    Type
REMARK                         _______ _______ _______ _____ _____    ______ ____
ROOT
ATOM      1  N   UNL     1      -6.530   2.880 123.094  0.00  0.00    +0.000 N 
ATOM      2  C   UNL     1      -6.222   3.603 121.941  0.00  0.00    +0.000 A 
ATOM      3  C   UNL     1      -6.711   3.418 120.551  0.00  0.00    +0.000 C 
ATOM      4  N   UNL     1      -5.495   4.656 122.277  0.00  0.00    +0.000 NA
ATOM      5  N   UNL     1      -5.349   4.689 123.629  0.00  0.00    +0.000 NA
ATOM      6  C   UNL     1      -5.939   3.620 124.142  0.00  0.00    +0.000 A 
ATOM      7  N   UNL     1      -5.897   3.223 125.419  0.00  0.00    +0.000 N 
ATOM      8  C   UNL     1      -5.384   1.950 125.811  0.00  0.00    +0.000 C 
ATOM      9  C   UNL     1      -6.345   1.678 126.930  0.00  0.00    +0.000 C 
ATOM     10  C   UNL     1      -6.375   2.921 127.786  0.00  0.00    +0.000 C 
ATOM     11  C   UNL     1      -6.248   4.003 126.625  0.00  0.00    +0.000 C 
ENDROOT
BRANCH   1  15
ATOM     12  C   UNL     1      -9.001  -0.533 123.297  0.00  0.00    +0.000 A 
ATOM     13  C   UNL     1      -7.628  -0.708 123.243  0.00  0.00    +0.000 A 
ATOM     14  C   UNL     1      -6.799   0.429 123.207  0.00  0.00    +0.000 A 
ATOM     15  C   UNL     1      -7.353   1.714 123.244  0.00  0.00    +0.000 A 
ATOM     16  C   UNL     1      -8.738   1.791 123.267  0.00  0.00    +0.000 A 
ATOM     17  N   UNL     1      -9.562   0.698 123.282  0.00  0.00    +0.000 NA
BRANCH  12  19
ATOM     18  C   UNL     1      -9.337  -2.880 123.368  0.00  0.00    +0.000 C 
ATOM     19  O   UNL     1      -9.895  -1.574 123.229  0.00  0.00    +0.000 OA
ENDBRANCH  12  19
ENDBRANCH   1  15
BRANCH  10  20
ATOM     20  O   UNL     1      -5.258   2.917 128.729  0.00  0.00    +0.000 OA
BRANCH  20  21
ATOM     21  C   UNL     1      -4.357   3.983 128.766  0.00  0.00    +0.000 A 
ATOM     22  C   UNL     1      -4.822   5.164 129.392  0.00  0.00    +0.000 A 
ATOM     23  C   UNL     1      -4.100   6.375 129.313  0.00  0.00    +0.000 A 
ATOM     24  C   UNL     1      -2.928   6.436 128.582  0.00  0.00    +0.000 A 
ATOM     25  F   UNL     1      -2.240   7.578 128.461  0.00  0.00    +0.000 F 
ATOM     26  C   UNL     1      -2.454   5.311 127.955  0.00  0.00    +0.000 A 
ATOM     27  C   UNL     1      -3.144   4.088 128.023  0.00  0.00    +0.000 A 
ATOM     28  C   UNL     1      -2.400   3.035 127.260  0.00  0.00    +0.000 C 
ENDBRANCH  20  21
ENDBRANCH  10  20
TORSDOF 4
ENDMDL
MODEL 5
REMARK VINA RESULT:      -8.2      4.941      7.446
REMARK  Name = CHEMBL591310
REMARK  7 active torsions:
REMARK  status: ('A' for Active; 'I' for Inactive)
REMARK    1  A    between atoms: C_1  and  O_2
REMARK    2  A    between atoms: O_2  and  C_3
REMARK    3  A    between atoms: C_6  and  N_7
REMARK    4  A    between atoms: C_8  and  C_9
REMARK    5  A    between atoms: C_16  and  O_17
REMARK    6  A    between atoms: O_17  and  C_18
REMARK    7  A    between atoms: C_24  and  C_25
REMARK                            x       y       z     vdW  Elec       q    Type
REMARK                         _______ _______ _______ _____ _____    ______ ____
ROOT
ATOM      1  N   UNL     1      -4.252  -0.836 132.146  0.00  0.00    +0.000 N 
ATOM      2  C   UNL     1      -3.167  -1.094 132.985  0.00  0.00    +0.000 A 
ATOM      3  C   UNL     1      -2.898  -0.600 134.360  0.00  0.00    +0.000 C 
ATOM      4  N   UNL     1      -2.408  -2.024 132.431  0.00  0.00    +0.000 NA
ATOM      5  N   UNL     1      -2.980  -2.437 131.268  0.00  0.00    +0.000 NA
ATOM      6  C   UNL     1      -4.074  -1.722 131.060  0.00  0.00    +0.000 A 
ATOM      7  N   UNL     1      -4.836  -1.732 129.959  0.00  0.00    +0.000 N 
ATOM      8  C   UNL     1      -5.072  -0.562 129.178  0.00  0.00    +0.000 C 
ATOM      9  C   UNL     1      -6.497  -0.849 128.807  0.00  0.00    +0.000 C 
ATOM     10  C   UNL     1      -6.536  -2.271 128.303  0.00  0.00    +0.000 C 
ATOM     11  C   UNL     1      -5.466  -2.897 129.302  0.00  0.00    +0.000 C 
ENDROOT
BRANCH   1  15
ATOM     12  C   UNL     1      -7.522   1.691 132.992  0.00  0.00    +0.000 A 
ATOM     13  C   UNL     1      -6.314   2.265 132.629  0.00  0.00    +0.000 A 
ATOM     14  C   UNL     1      -5.230   1.424 132.315  0.00  0.00    +0.000 A 
ATOM     15  C   UNL     1      -5.375   0.033 132.352  0.00  0.00    +0.000 A 
ATOM     16  C   UNL     1      -6.612  -0.450 132.756  0.00  0.00    +0.000 A 
ATOM     17  N   UNL     1      -7.672   0.350 133.084  0.00  0.00    +0.000 NA
BRANCH  12  19
ATOM     18  C   UNL     1      -9.362   3.060 132.390  0.00  0.00    +0.000 C 
ATOM     19  O   UNL     1      -8.603   2.423 133.416  0.00  0.00    +0.000 OA
ENDBRANCH  12  19
ENDBRANCH   1  15
BRANCH  10  20
ATOM     20  O   UNL     1      -6.146  -2.324 126.895  0.00  0.00    +0.000 OA
BRANCH  20  21
ATOM     21  C   UNL     1      -7.110  -2.488 125.898  0.00  0.00    +0.000 A 
ATOM     22  C   UNL     1      -8.436  -2.694 126.349  0.00  0.00    +0.000 A 
ATOM     23  C   UNL     1      -9.465  -3.081 125.462  0.00  0.00    +0.000 A 
ATOM     24  C   UNL     1      -9.181  -3.302 124.127  0.00  0.00    +0.000 A 
ATOM     25  F   UNL     1     -10.128  -3.703 123.270  0.00  0.00    +0.000 F 
ATOM     26  C   UNL     1      -7.904  -3.120 123.659  0.00  0.00    +0.000 A 
ATOM     27  C   UNL     1      -6.859  -2.725 124.514  0.00  0.00    +0.000 A 
ATOM     28  C   UNL     1      -5.584  -2.594 123.740  0.00  0.00    +0.000 C 
ENDBRANCH  20  21
ENDBRANCH  10  20
TORSDOF 4
ENDMDL
MODEL 6
REMARK VINA RESULT:      -8.2      5.137      7.784
REMARK  Name = CHEMBL591310
REMARK  7 active torsions:
REMARK  status: ('A' for Active; 'I' for Inactive)
REMARK    1  A    between atoms: C_1  and  O_2
REMARK    2  A    between atoms: O_2  and  C_3
REMARK    3  A    between atoms: C_6  and  N_7
REMARK    4  A    between atoms: C_8  and  C_9
REMARK    5  A    between atoms: C_16  and  O_17
REMARK    6  A    between atoms: O_17  and  C_18
REMARK    7  A    between atoms: C_24  and  C_25
REMARK                            x       y       z     vdW  Elec       q    Type
REMARK                         _______ _______ _______ _____ _____    ______ ____
ROOT
ATOM      1  N   UNL     1      -8.429   3.707 131.485  0.00  0.00    +0.000 N 
ATOM      2  C   UNL     1      -8.263   3.387 132.833  0.00  0.00    +0.000 A 
ATOM      3  C   UNL     1      -9.013   3.876 134.018  0.00  0.00    +0.000 C 
ATOM      4  N   UNL     1      -7.386   2.403 132.936  0.00  0.00    +0.000 NA
ATOM      5  N   UNL     1      -6.996   2.017 131.692  0.00  0.00    +0.000 NA
ATOM      6  C   UNL     1      -7.587   2.800 130.803  0.00  0.00    +0.000 A 
ATOM      7  N   UNL     1      -7.353   2.828 129.485  0.00  0.00    +0.000 N 
ATOM      8  C   UNL     1      -6.908   4.003 128.810  0.00  0.00    +0.000 C 
ATOM      9  C   UNL     1      -7.672   3.806 127.534  0.00  0.00    +0.000 C 
ATOM     10  C   UNL     1      -7.422   2.385 127.094  0.00  0.00    +0.000 C 
ATOM     11  C   UNL     1      -7.400   1.700 128.531  0.00  0.00    +0.000 C 
ENDROOT
BRANCH   1  15
ATOM     12  C   UNL     1     -11.190   6.473 129.899  0.00  0.00    +0.000 A 
ATOM     13  C   UNL     1      -9.983   6.944 130.388  0.00  0.00    +0.000 A 
ATOM     14  C   UNL     1      -9.046   6.021 130.889  0.00  0.00    +0.000 A 
ATOM     15  C   UNL     1      -9.323   4.649 130.876  0.00  0.00    +0.000 A 
ATOM     16  C   UNL     1     -10.569   4.273 130.395  0.00  0.00    +0.000 A 
ATOM     17  N   UNL     1     -11.501   5.157 129.922  0.00  0.00    +0.000 NA
BRANCH  12  19
ATOM     18  C   UNL     1     -12.982   6.827 128.386  0.00  0.00    +0.000 C 
ATOM     19  O   UNL     1     -12.207   7.298 129.487  0.00  0.00    +0.000 OA
ENDBRANCH  12  19
ENDBRANCH   1  15
BRANCH  10  20
ATOM     20  O   UNL     1      -6.158   2.291 126.365  0.00  0.00    +0.000 OA
BRANCH  20  21
ATOM     21  C   UNL     1      -6.097   2.611 125.007  0.00  0.00    +0.000 A 
ATOM     22  C   UNL     1      -5.448   3.827 124.687  0.00  0.00    +0.000 A 
ATOM     23  C   UNL     1      -5.500   4.371 123.385  0.00  0.00    +0.000 A 
ATOM     24  C   UNL     1      -6.226   3.733 122.396  0.00  0.00    +0.000 A 
ATOM     25  F   UNL     1      -6.321   4.243 121.163  0.00  0.00    +0.000 F 
ATOM     26  C   UNL     1      -6.874   2.556 122.675  0.00  0.00    +0.000 A 
ATOM     27  C   UNL     1      -6.834   1.983 123.959  0.00  0.00    +0.000 A 
ATOM     28  C   UNL     1      -7.615   0.705 123.976  0.00  0.00    +0.000 C 
ENDBRANCH  20  21
ENDBRANCH  10  20
TORSDOF 4
ENDMDL
MODEL 7
REMARK VINA RESULT:      -8.0      5.157      8.174
REMARK  Name = CHEMBL591310
REMARK  7 active torsions:
REMARK  status: ('A' for Active; 'I' for Inactive)
REMARK    1  A    between atoms: C_1  and  O_2
REMARK    2  A    between atoms: O_2  and  C_3
REMARK    3  A    between atoms: C_6  and  N_7
REMARK    4  A    between atoms: C_8  and  C_9
REMARK    5  A    between atoms: C_16  and  O_17
REMARK    6  A    between atoms: O_17  and  C_18
REMARK    7  A    between atoms: C_24  and  C_25
REMARK                            x       y       z     vdW  Elec       q    Type
REMARK                         _______ _______ _______ _____ _____    ______ ____
ROOT
ATOM      1  N   UNL     1      -8.568   3.371 131.612  0.00  0.00    +0.000 N 
ATOM      2  C   UNL     1      -8.542   3.099 132.980  0.00  0.00    +0.000 A 
ATOM      3  C   UNL     1      -9.197   3.823 134.099  0.00  0.00    +0.000 C 
ATOM      4  N   UNL     1      -7.936   1.940 133.177  0.00  0.00    +0.000 NA
ATOM      5  N   UNL     1      -7.601   1.399 131.975  0.00  0.00    +0.000 NA
ATOM      6  C   UNL     1      -7.945   2.249 131.020  0.00  0.00    +0.000 A 
ATOM      7  N   UNL     1      -7.657   2.144 129.717  0.00  0.00    +0.000 N 
ATOM      8  C   UNL     1      -6.911   3.135 129.013  0.00  0.00    +0.000 C 
ATOM      9  C   UNL     1      -7.647   3.055 127.708  0.00  0.00    +0.000 C 
ATOM     10  C   UNL     1      -7.733   1.592 127.348  0.00  0.00    +0.000 C 
ATOM     11  C   UNL     1      -7.939   1.007 128.814  0.00  0.00    +0.000 C 
ENDROOT
BRANCH   1  15
ATOM     12  C   UNL     1     -10.505   6.623 129.751  0.00  0.00    +0.000 A 
ATOM     13  C   UNL     1      -9.253   6.825 130.308  0.00  0.00    +0.000 A 
ATOM     14  C   UNL     1      -8.590   5.735 130.902  0.00  0.00    +0.000 A 
ATOM     15  C   UNL     1      -9.178   4.465 130.913  0.00  0.00    +0.000 A 
ATOM     16  C   UNL     1     -10.446   4.365 130.358  0.00  0.00    +0.000 A 
ATOM     17  N   UNL     1     -11.116   5.416 129.793  0.00  0.00    +0.000 NA
BRANCH  12  19
ATOM     18  C   UNL     1     -10.648   8.460 128.257  0.00  0.00    +0.000 C 
ATOM     19  O   UNL     1     -11.275   7.640 129.243  0.00  0.00    +0.000 OA
ENDBRANCH  12  19
ENDBRANCH   1  15
BRANCH  10  20
ATOM     20  O   UNL     1      -6.502   1.154 126.693  0.00  0.00    +0.000 OA
BRANCH  20  21
ATOM     21  C   UNL     1      -6.533   0.152 125.721  0.00  0.00    +0.000 A 
ATOM     22  C   UNL     1      -5.891  -1.062 126.065  0.00  0.00    +0.000 A 
ATOM     23  C   UNL     1      -5.665  -2.074 125.106  0.00  0.00    +0.000 A 
ATOM     24  C   UNL     1      -6.041  -1.878 123.790  0.00  0.00    +0.000 A 
ATOM     25  F   UNL     1      -5.808  -2.805 122.854  0.00  0.00    +0.000 F 
ATOM     26  C   UNL     1      -6.657  -0.708 123.422  0.00  0.00    +0.000 A 
ATOM     27  C   UNL     1      -6.906   0.315 124.354  0.00  0.00    +0.000 A 
ATOM     28  C   UNL     1      -7.594   1.465 123.684  0.00  0.00    +0.000 C 
ENDBRANCH  20  21
ENDBRANCH  10  20
TORSDOF 4
ENDMDL
MODEL 8
REMARK VINA RESULT:      -8.0      6.712      8.312
REMARK  Name = CHEMBL591310
REMARK  7 active torsions:
REMARK  status: ('A' for Active; 'I' for Inactive)
REMARK    1  A    between atoms: C_1  and  O_2
REMARK    2  A    between atoms: O_2  and  C_3
REMARK    3  A    between atoms: C_6  and  N_7
REMARK    4  A    between atoms: C_8  and  C_9
REMARK    5  A    between atoms: C_16  and  O_17
REMARK    6  A    between atoms: O_17  and  C_18
REMARK    7  A    between atoms: C_24  and  C_25
REMARK                            x       y       z     vdW  Elec       q    Type
REMARK                         _______ _______ _______ _____ _____    ______ ____
ROOT
ATOM      1  N   UNL     1      -6.395   1.696 130.168  0.00  0.00    +0.000 N 
ATOM      2  C   UNL     1      -6.082   0.347 129.995  0.00  0.00    +0.000 A 
ATOM      3  C   UNL     1      -4.806  -0.367 130.254  0.00  0.00    +0.000 C 
ATOM      4  N   UNL     1      -7.186  -0.314 129.688  0.00  0.00    +0.000 NA
ATOM      5  N   UNL     1      -8.241   0.544 129.700  0.00  0.00    +0.000 NA
ATOM      6  C   UNL     1      -7.791   1.762 129.960  0.00  0.00    +0.000 A 
ATOM      7  N   UNL     1      -8.498   2.898 129.920  0.00  0.00    +0.000 N 
ATOM      8  C   UNL     1      -8.154   3.986 129.065  0.00  0.00    +0.000 C 
ATOM      9  C   UNL     1      -8.530   5.102 129.995  0.00  0.00    +0.000 C 
ATOM     10  C   UNL     1      -9.911   4.788 130.513  0.00  0.00    +0.000 C 
ATOM     11  C   UNL     1      -9.759   3.207 130.627  0.00  0.00    +0.000 C 
ENDROOT
BRANCH   1  15
ATOM     12  C   UNL     1      -3.776   4.724 131.495  0.00  0.00    +0.000 A 
ATOM     13  C   UNL     1      -3.645   4.251 130.200  0.00  0.00    +0.000 A 
ATOM     14  C   UNL     1      -4.537   3.263 129.743  0.00  0.00    +0.000 A 
ATOM     15  C   UNL     1      -5.551   2.780 130.578  0.00  0.00    +0.000 A 
ATOM     16  C   UNL     1      -5.586   3.291 131.868  0.00  0.00    +0.000 A 
ATOM     17  N   UNL     1      -4.716   4.237 132.337  0.00  0.00    +0.000 NA
BRANCH  12  19
ATOM     18  C   UNL     1      -1.577   5.106 132.299  0.00  0.00    +0.000 C 
ATOM     19  O   UNL     1      -2.893   5.607 132.066  0.00  0.00    +0.000 OA
ENDBRANCH  12  19
ENDBRANCH   1  15
BRANCH  10  20
ATOM     20  O   UNL     1     -10.927   5.226 129.558  0.00  0.00    +0.000 OA
BRANCH  20  21
ATOM     21  C   UNL     1     -11.366   6.552 129.547  0.00  0.00    +0.000 A 
ATOM     22  C   UNL     1     -12.162   6.947 130.649  0.00  0.00    +0.000 A 
ATOM     23  C   UNL     1     -12.842   8.185 130.661  0.00  0.00    +0.000 A 
ATOM     24  C   UNL     1     -12.769   9.026 129.566  0.00  0.00    +0.000 A 
ATOM     25  F   UNL     1     -13.430  10.189 129.535  0.00  0.00    +0.000 F 
ATOM     26  C   UNL     1     -12.014   8.668 128.478  0.00  0.00    +0.000 A 
ATOM     27  C   UNL     1     -11.316   7.448 128.439  0.00  0.00    +0.000 A 
ATOM     28  C   UNL     1     -10.572   7.322 127.145  0.00  0.00    +0.000 C 
ENDBRANCH  20  21
ENDBRANCH  10  20
TORSDOF 4
ENDMDL
MODEL 9
REMARK VINA RESULT:      -8.0      4.807      7.290
REMARK  Name = CHEMBL591310
REMARK  7 active torsions:
REMARK  status: ('A' for Active; 'I' for Inactive)
REMARK    1  A    between atoms: C_1  and  O_2
REMARK    2  A    between atoms: O_2  and  C_3
REMARK    3  A    between atoms: C_6  and  N_7
REMARK    4  A    between atoms: C_8  and  C_9
REMARK    5  A    between atoms: C_16  and  O_17
REMARK    6  A    between atoms: O_17  and  C_18
REMARK    7  A    between atoms: C_24  and  C_25
REMARK                            x       y       z     vdW  Elec       q    Type
REMARK                         _______ _______ _______ _____ _____    ______ ____
ROOT
ATOM      1  N   UNL     1      -8.318   4.283 130.189  0.00  0.00    +0.000 N 
ATOM      2  C   UNL     1      -8.780   5.595 130.296  0.00  0.00    +0.000 A 
ATOM      3  C   UNL     1      -8.876   6.468 131.494  0.00  0.00    +0.000 C 
ATOM      4  N   UNL     1      -9.007   6.071 129.083  0.00  0.00    +0.000 NA
ATOM      5  N   UNL     1      -8.661   5.134 128.161  0.00  0.00    +0.000 NA
ATOM      6  C   UNL     1      -8.269   4.041 128.797  0.00  0.00    +0.000 A 
ATOM      7  N   UNL     1      -7.983   2.856 128.245  0.00  0.00    +0.000 N 
ATOM      8  C   UNL     1      -8.676   1.659 128.594  0.00  0.00    +0.000 C 
ATOM      9  C   UNL     1      -7.512   0.717 128.509  0.00  0.00    +0.000 C 
ATOM     10  C   UNL     1      -6.829   0.991 127.191  0.00  0.00    +0.000 C 
ATOM     11  C   UNL     1      -7.027   2.570 127.154  0.00  0.00    +0.000 C 
ENDROOT
BRANCH   1  15
ATOM     12  C   UNL     1      -7.073   1.467 133.072  0.00  0.00    +0.000 A 
ATOM     13  C   UNL     1      -6.115   2.070 132.273  0.00  0.00    +0.000 A 
ATOM     14  C   UNL     1      -6.523   3.033 131.332  0.00  0.00    +0.000 A 
ATOM     15  C   UNL     1      -7.872   3.388 131.218  0.00  0.00    +0.000 A 
ATOM     16  C   UNL     1      -8.762   2.711 132.038  0.00  0.00    +0.000 A 
ATOM     17  N   UNL     1      -8.388   1.757 132.946  0.00  0.00    +0.000 NA
BRANCH  12  19
ATOM     18  C   UNL     1      -6.524  -0.824 133.345  0.00  0.00    +0.000 C 
ATOM     19  O   UNL     1      -6.790   0.444 133.943  0.00  0.00    +0.000 OA
ENDBRANCH  12  19
ENDBRANCH   1  15
BRANCH  10  20
ATOM     20  O   UNL     1      -7.502   0.275 126.109  0.00  0.00    +0.000 OA
BRANCH  20  21
ATOM     21  C   UNL     1      -7.049  -0.981 125.700  0.00  0.00    +0.000 A 
ATOM     22  C   UNL     1      -5.731  -1.026 125.186  0.00  0.00    +0.000 A 
ATOM     23  C   UNL     1      -5.228  -2.180 124.546  0.00  0.00    +0.000 A 
ATOM     24  C   UNL     1      -6.038  -3.287 124.378  0.00  0.00    +0.000 A 
ATOM     25  F   UNL     1      -5.599  -4.382 123.746  0.00  0.00    +0.000 F 
ATOM     26  C   UNL     1      -7.324  -3.274 124.857  0.00  0.00    +0.000 A 
ATOM     27  C   UNL     1      -7.852  -2.144 125.507  0.00  0.00    +0.000 A 
ATOM     28  C   UNL     1      -9.264  -2.409 125.932  0.00  0.00    +0.000 C 
ENDBRANCH  20  21
ENDBRANCH  10  20
TORSDOF 4
ENDMDL
