MODEL 1
REMARK VINA RESULT:      -7.9      0.000      0.000
REMARK  Name = CHEMBL198328
REMARK  12 active torsions:
REMARK  status: ('A' for Active; 'I' for Inactive)
REMARK    1  A    between atoms: CD1_1  and  CG_2
REMARK    2  A    between atoms: CG_2  and  CD2_3
REMARK    3  A    between atoms: CG_2  and  CB_4
REMARK    4  A    between atoms: CB_4  and  CA_5
REMARK    5  A    between atoms: C_9  and  C_10
REMARK    6  A    between atoms: N_21  and  C_22
REMARK    7  A    between atoms: C_22  and  C_23
REMARK    8  A    between atoms: C_22  and  C_30
REMARK    9  A    between atoms: N_25  and  C_26
REMARK   10  A    between atoms: C_26  and  C_27
REMARK   11  A    between atoms: C_26  and  C_28
REMARK   12  A    between atoms: C_26  and  C_29
REMARK                            x       y       z     vdW  Elec       q    Type
REMARK                         _______ _______ _______ _____ _____    ______ ____
ROOT
ATOM      1  CA  LEU A   2      -5.602   3.116 127.372  0.00  0.00    +0.000 C 
ATOM      2  C   LEU A   2      -6.139   2.957 125.946  0.00  0.00    +0.000 C 
ATOM      3  O   LEU A   2      -6.126   3.773 125.048  0.00  0.00    +0.000 OA
ATOM      4  N   UNK A   1      -6.625   1.731 125.679  0.00  0.00    +0.000 N 
ATOM      5  C   UNK A   1      -6.774   0.694 126.668  0.00  0.00    +0.000 C 
ATOM      6  C   UNK A   1      -7.193   1.330 128.019  0.00  0.00    +0.000 C 
ATOM      7  O   UNK A   1      -7.934   0.716 128.784  0.00  0.00    +0.000 OA
ATOM      8  N   LEU A   2      -6.623   2.583 128.321  0.00  0.00    +0.000 N 
ATOM      9  H   UNK A   1      -6.934   1.645 124.720  0.00  0.00    +0.000 HD
ENDROOT
BRANCH   5  10
ATOM     10  C   UNK A   1      -7.888  -0.302 126.267  0.00  0.00    +0.000 C 
ATOM     11  C   UNK A   1      -7.484  -1.778 126.464  0.00  0.00    +0.000 C 
ATOM     12  C   UNK A   1      -6.866  -2.098 125.134  0.00  0.00    +0.000 A 
ATOM     13  C   UNK A   1      -5.922  -3.066 124.849  0.00  0.00    +0.000 A 
ATOM     14  C   UNK A   1      -5.356  -3.080 123.572  0.00  0.00    +0.000 A 
ATOM     15  C   UNK A   1      -5.725  -2.126 122.609  0.00  0.00    +0.000 A 
ATOM     16  C   UNK A   1      -6.678  -1.150 122.904  0.00  0.00    +0.000 A 
ATOM     17  C   UNK A   1      -7.254  -1.161 124.163  0.00  0.00    +0.000 A 
ATOM     18  C   UNK A   1      -8.198  -0.156 124.748  0.00  0.00    +0.000 C 
ENDBRANCH   5  10
BRANCH   1  19
ATOM     19  CB  LEU A   2      -5.229   4.586 127.481  0.00  0.00    +0.000 C 
BRANCH  19  21
ATOM     20  CD1 LEU A   2      -3.308   6.222 127.973  0.00  0.00    +0.000 C 
ATOM     21  CG  LEU A   2      -3.752   4.951 127.263  0.00  0.00    +0.000 C 
ATOM     22  CD2 LEU A   2      -2.912   3.799 127.783  0.00  0.00    +0.000 C 
ENDBRANCH  19  21
ENDBRANCH   1  19
BRANCH   8  23
ATOM     23  C   UNK A   0      -6.955   3.196 129.646  0.00  0.00    +0.000 C 
BRANCH  23  24
ATOM     24  C   UNK A   0      -5.738   3.721 130.442  0.00  0.00    +0.000 A 
ATOM     25  C   UNK A   0      -5.541   5.055 130.819  0.00  0.00    +0.000 A 
ATOM     26  C   UNK A   0      -4.320   5.464 131.347  0.00  0.00    +0.000 A 
ATOM     27  C   UNK A   0      -3.364   4.517 131.699  0.00  0.00    +0.000 A 
ATOM     28  C   UNK A   0      -3.603   3.167 131.472  0.00  0.00    +0.000 A 
ATOM     29  C   UNK A   0      -4.761   2.778 130.817  0.00  0.00    +0.000 A 
ENDBRANCH  23  24
BRANCH  23  30
ATOM     30  C   UNK A   0      -7.984   4.372 129.714  0.00  0.00    +0.000 C 
ATOM     31  O   UNK A   0      -8.266   4.980 128.675  0.00  0.00    +0.000 OA
ATOM     32  N   UNK A   0      -8.609   4.670 130.921  0.00  0.00    +0.000 N 
ATOM     33  H   UNK A   0      -8.542   4.003 131.683  0.00  0.00    +0.000 HD
BRANCH  32  34
ATOM     34  C   UNK A   0      -9.671   5.710 130.982  0.00  0.00    +0.000 C 
ATOM     35  C   UNK A   0     -10.910   5.273 130.227  0.00  0.00    +0.000 C 
ATOM     36  C   UNK A   0     -10.135   5.962 132.393  0.00  0.00    +0.000 C 
ATOM     37  C   UNK A   0      -9.141   7.082 130.519  0.00  0.00    +0.000 C 
ENDBRANCH  32  34
ENDBRANCH  23  30
ENDBRANCH   8  23
TORSDOF 7
ENDMDL
MODEL 2
REMARK VINA RESULT:      -7.8      3.370      7.367
REMARK  Name = CHEMBL198328
REMARK  12 active torsions:
REMARK  status: ('A' for Active; 'I' for Inactive)
REMARK    1  A    between atoms: CD1_1  and  CG_2
REMARK    2  A    between atoms: CG_2  and  CD2_3
REMARK    3  A    between atoms: CG_2  and  CB_4
REMARK    4  A    between atoms: CB_4  and  CA_5
REMARK    5  A    between atoms: C_9  and  C_10
REMARK    6  A    between atoms: N_21  and  C_22
REMARK    7  A    between atoms: C_22  and  C_23
REMARK    8  A    between atoms: C_22  and  C_30
REMARK    9  A    between atoms: N_25  and  C_26
REMARK   10  A    between atoms: C_26  and  C_27
REMARK   11  A    between atoms: C_26  and  C_28
REMARK   12  A    between atoms: C_26  and  C_29
REMARK                            x       y       z     vdW  Elec       q    Type
REMARK                         _______ _______ _______ _____ _____    ______ ____
ROOT
ATOM      1  CA  LEU A   2      -7.716   3.102 129.999  0.00  0.00    +0.000 C 
ATOM      2  C   LEU A   2      -7.654   4.374 129.147  0.00  0.00    +0.000 C 
ATOM      3  O   LEU A   2      -6.859   4.650 128.274  0.00  0.00    +0.000 OA
ATOM      4  N   UNK A   1      -8.656   5.241 129.388  0.00  0.00    +0.000 N 
ATOM      5  C   UNK A   1      -9.620   5.080 130.445  0.00  0.00    +0.000 C 
ATOM      6  C   UNK A   1      -8.925   4.459 131.684  0.00  0.00    +0.000 C 
ATOM      7  O   UNK A   1      -9.294   4.766 132.816  0.00  0.00    +0.000 OA
ATOM      8  N   LEU A   2      -7.927   3.500 131.422  0.00  0.00    +0.000 N 
ATOM      9  H   UNK A   1      -8.611   6.051 128.783  0.00  0.00    +0.000 HD
ENDROOT
BRANCH   5  10
ATOM     10  C   UNK A   1     -10.200   6.446 130.884  0.00  0.00    +0.000 C 
ATOM     11  C   UNK A   1     -11.741   6.487 130.865  0.00  0.00    +0.000 C 
ATOM     12  C   UNK A   1     -12.011   6.943 129.461  0.00  0.00    +0.000 A 
ATOM     13  C   UNK A   1     -13.146   6.725 128.701  0.00  0.00    +0.000 A 
ATOM     14  C   UNK A   1     -13.118   7.092 127.354  0.00  0.00    +0.000 A 
ATOM     15  C   UNK A   1     -11.963   7.653 126.783  0.00  0.00    +0.000 A 
ATOM     16  C   UNK A   1     -10.821   7.870 127.555  0.00  0.00    +0.000 A 
ATOM     17  C   UNK A   1     -10.867   7.527 128.896  0.00  0.00    +0.000 A 
ATOM     18  C   UNK A   1      -9.744   7.552 129.886  0.00  0.00    +0.000 C 
ENDBRANCH   5  10
BRANCH   1  19
ATOM     19  CB  LEU A   2      -6.444   2.345 129.653  0.00  0.00    +0.000 C 
BRANCH  19  21
ATOM     20  CD1 LEU A   2      -5.565   0.106 128.744  0.00  0.00    +0.000 C 
ATOM     21  CG  LEU A   2      -6.551   1.254 128.575  0.00  0.00    +0.000 C 
ATOM     22  CD2 LEU A   2      -7.956   0.685 128.636  0.00  0.00    +0.000 C 
ENDBRANCH  19  21
ENDBRANCH   1  19
BRANCH   8  23
ATOM     23  C   UNK A   0      -7.279   2.832 132.596  0.00  0.00    +0.000 C 
BRANCH  23  24
ATOM     24  C   UNK A   0      -7.130   1.299 132.471  0.00  0.00    +0.000 A 
ATOM     25  C   UNK A   0      -5.918   0.601 132.550  0.00  0.00    +0.000 A 
ATOM     26  C   UNK A   0      -5.860  -0.749 132.217  0.00  0.00    +0.000 A 
ATOM     27  C   UNK A   0      -7.036  -1.463 132.007  0.00  0.00    +0.000 A 
ATOM     28  C   UNK A   0      -8.265  -0.819 132.074  0.00  0.00    +0.000 A 
ATOM     29  C   UNK A   0      -8.308   0.554 132.267  0.00  0.00    +0.000 A 
ENDBRANCH  23  24
BRANCH  23  30
ATOM     30  C   UNK A   0      -5.867   3.310 133.071  0.00  0.00    +0.000 C 
ATOM     31  O   UNK A   0      -5.547   3.149 134.255  0.00  0.00    +0.000 OA
ATOM     32  N   UNK A   0      -4.975   3.844 132.145  0.00  0.00    +0.000 N 
ATOM     33  H   UNK A   0      -5.173   3.732 131.157  0.00  0.00    +0.000 HD
BRANCH  32  34
ATOM     34  C   UNK A   0      -3.590   4.200 132.554  0.00  0.00    +0.000 C 
ATOM     35  C   UNK A   0      -2.839   2.986 133.064  0.00  0.00    +0.000 C 
ATOM     36  C   UNK A   0      -2.773   4.713 131.396  0.00  0.00    +0.000 C 
ATOM     37  C   UNK A   0      -3.583   5.372 133.556  0.00  0.00    +0.000 C 
ENDBRANCH  32  34
ENDBRANCH  23  30
ENDBRANCH   8  23
TORSDOF 7
ENDMDL
MODEL 3
REMARK VINA RESULT:      -7.6      4.168      7.742
REMARK  Name = CHEMBL198328
REMARK  12 active torsions:
REMARK  status: ('A' for Active; 'I' for Inactive)
REMARK    1  A    between atoms: CD1_1  and  CG_2
REMARK    2  A    between atoms: CG_2  and  CD2_3
REMARK    3  A    between atoms: CG_2  and  CB_4
REMARK    4  A    between atoms: CB_4  and  CA_5
REMARK    5  A    between atoms: C_9  and  C_10
REMARK    6  A    between atoms: N_21  and  C_22
REMARK    7  A    between atoms: C_22  and  C_23
REMARK    8  A    between atoms: C_22  and  C_30
REMARK    9  A    between atoms: N_25  and  C_26
REMARK   10  A    between atoms: C_26  and  C_27
REMARK   11  A    between atoms: C_26  and  C_28
REMARK   12  A    between atoms: C_26  and  C_29
REMARK                            x       y       z     vdW  Elec       q    Type
REMARK                         _______ _______ _______ _____ _____    ______ ____
ROOT
ATOM      1  CA  LEU A   2      -7.095   5.743 131.047  0.00  0.00    +0.000 C 
ATOM      2  C   LEU A   2      -8.017   6.065 132.227  0.00  0.00    +0.000 C 
ATOM      3  O   LEU A   2      -7.707   6.270 133.382  0.00  0.00    +0.000 OA
ATOM      4  N   UNK A   1      -9.315   6.182 131.890  0.00  0.00    +0.000 N 
ATOM      5  C   UNK A   1      -9.833   5.890 130.578  0.00  0.00    +0.000 C 
ATOM      6  C   UNK A   1      -9.065   4.682 129.980  0.00  0.00    +0.000 C 
ATOM      7  O   UNK A   1      -9.644   3.891 129.239  0.00  0.00    +0.000 OA
ATOM      8  N   LEU A   2      -7.690   4.608 130.282  0.00  0.00    +0.000 N 
ATOM      9  H   UNK A   1      -9.892   6.434 132.681  0.00  0.00    +0.000 HD
ENDROOT
BRANCH   5  10
ATOM     10  C   UNK A   1     -11.327   5.493 130.644  0.00  0.00    +0.000 C 
ATOM     11  C   UNK A   1     -12.057   5.644 129.294  0.00  0.00    +0.000 C 
ATOM     12  C   UNK A   1     -12.539   7.063 129.372  0.00  0.00    +0.000 A 
ATOM     13  C   UNK A   1     -12.831   7.919 128.326  0.00  0.00    +0.000 A 
ATOM     14  C   UNK A   1     -13.102   9.256 128.624  0.00  0.00    +0.000 A 
ATOM     15  C   UNK A   1     -13.065   9.721 129.949  0.00  0.00    +0.000 A 
ATOM     16  C   UNK A   1     -12.769   8.853 131.000  0.00  0.00    +0.000 A 
ATOM     17  C   UNK A   1     -12.527   7.523 130.698  0.00  0.00    +0.000 A 
ATOM     18  C   UNK A   1     -12.076   6.439 131.629  0.00  0.00    +0.000 C 
ENDBRANCH   5  10
BRANCH   1  19
ATOM     19  CB  LEU A   2      -5.725   5.537 131.673  0.00  0.00    +0.000 C 
BRANCH  19  21
ATOM     20  CD1 LEU A   2      -3.350   6.428 132.090  0.00  0.00    +0.000 C 
ATOM     21  CG  LEU A   2      -4.792   6.758 131.732  0.00  0.00    +0.000 C 
ATOM     22  CD2 LEU A   2      -4.804   7.410 130.362  0.00  0.00    +0.000 C 
ENDBRANCH  19  21
ENDBRANCH   1  19
BRANCH   8  23
ATOM     23  C   UNK A   0      -6.904   3.491 129.668  0.00  0.00    +0.000 C 
BRANCH  23  24
ATOM     24  C   UNK A   0      -5.532   3.904 129.088  0.00  0.00    +0.000 A 
ATOM     25  C   UNK A   0      -4.291   3.577 129.650  0.00  0.00    +0.000 A 
ATOM     26  C   UNK A   0      -3.126   4.169 129.175  0.00  0.00    +0.000 A 
ATOM     27  C   UNK A   0      -3.157   4.924 128.007  0.00  0.00    +0.000 A 
ATOM     28  C   UNK A   0      -4.360   5.136 127.346  0.00  0.00    +0.000 A 
ATOM     29  C   UNK A   0      -5.539   4.663 127.901  0.00  0.00    +0.000 A 
ENDBRANCH  23  24
BRANCH  23  30
ATOM     30  C   UNK A   0      -6.584   2.217 130.518  0.00  0.00    +0.000 C 
ATOM     31  O   UNK A   0      -6.306   1.163 129.935  0.00  0.00    +0.000 OA
ATOM     32  N   UNK A   0      -6.556   2.306 131.906  0.00  0.00    +0.000 N 
ATOM     33  H   UNK A   0      -6.544   3.226 132.336  0.00  0.00    +0.000 HD
BRANCH  32  34
ATOM     34  C   UNK A   0      -6.146   1.136 132.728  0.00  0.00    +0.000 C 
ATOM     35  C   UNK A   0      -6.211   1.456 134.208  0.00  0.00    +0.000 C 
ATOM     36  C   UNK A   0      -7.069  -0.040 132.537  0.00  0.00    +0.000 C 
ATOM     37  C   UNK A   0      -4.769   0.597 132.293  0.00  0.00    +0.000 C 
ENDBRANCH  32  34
ENDBRANCH  23  30
ENDBRANCH   8  23
TORSDOF 7
ENDMDL
MODEL 4
REMARK VINA RESULT:      -7.6      2.527      5.406
REMARK  Name = CHEMBL198328
REMARK  12 active torsions:
REMARK  status: ('A' for Active; 'I' for Inactive)
REMARK    1  A    between atoms: CD1_1  and  CG_2
REMARK    2  A    between atoms: CG_2  and  CD2_3
REMARK    3  A    between atoms: CG_2  and  CB_4
REMARK    4  A    between atoms: CB_4  and  CA_5
REMARK    5  A    between atoms: C_9  and  C_10
REMARK    6  A    between atoms: N_21  and  C_22
REMARK    7  A    between atoms: C_22  and  C_23
REMARK    8  A    between atoms: C_22  and  C_30
REMARK    9  A    between atoms: N_25  and  C_26
REMARK   10  A    between atoms: C_26  and  C_27
REMARK   11  A    between atoms: C_26  and  C_28
REMARK   12  A    between atoms: C_26  and  C_29
REMARK                            x       y       z     vdW  Elec       q    Type
REMARK                         _______ _______ _______ _____ _____    ______ ____
ROOT
ATOM      1  CA  LEU A   2      -7.336   2.077 131.311  0.00  0.00    +0.000 C 
ATOM      2  C   LEU A   2      -6.660   0.765 131.721  0.00  0.00    +0.000 C 
ATOM      3  O   LEU A   2      -6.322   0.415 132.832  0.00  0.00    +0.000 OA
ATOM      4  N   UNK A   1      -6.488  -0.101 130.705  0.00  0.00    +0.000 N 
ATOM      5  C   UNK A   1      -6.770   0.211 129.328  0.00  0.00    +0.000 C 
ATOM      6  C   UNK A   1      -6.396   1.691 129.050  0.00  0.00    +0.000 C 
ATOM      7  O   UNK A   1      -5.968   2.021 127.946  0.00  0.00    +0.000 OA
ATOM      8  N   LEU A   2      -6.646   2.602 130.096  0.00  0.00    +0.000 N 
ATOM      9  H   UNK A   1      -6.077  -0.972 131.014  0.00  0.00    +0.000 HD
ENDROOT
BRANCH   5  10
ATOM     10  C   UNK A   1      -5.918  -0.660 128.374  0.00  0.00    +0.000 C 
ATOM     11  C   UNK A   1      -6.511  -0.764 126.954  0.00  0.00    +0.000 C 
ATOM     12  C   UNK A   1      -7.400  -1.966 127.089  0.00  0.00    +0.000 A 
ATOM     13  C   UNK A   1      -8.523  -2.280 126.345  0.00  0.00    +0.000 A 
ATOM     14  C   UNK A   1      -9.302  -3.365 126.752  0.00  0.00    +0.000 A 
ATOM     15  C   UNK A   1      -8.962  -4.108 127.894  0.00  0.00    +0.000 A 
ATOM     16  C   UNK A   1      -7.828  -3.787 128.641  0.00  0.00    +0.000 A 
ATOM     17  C   UNK A   1      -7.047  -2.726 128.215  0.00  0.00    +0.000 A 
ATOM     18  C   UNK A   1      -5.865  -2.122 128.909  0.00  0.00    +0.000 C 
ENDBRANCH   5  10
BRANCH   1  19
ATOM     19  CB  LEU A   2      -7.312   2.932 132.568  0.00  0.00    +0.000 C 
BRANCH  19  21
ATOM     20  CD1 LEU A   2      -8.899   4.298 134.058  0.00  0.00    +0.000 C 
ATOM     21  CG  LEU A   2      -8.586   2.949 133.428  0.00  0.00    +0.000 C 
ATOM     22  CD2 LEU A   2      -9.748   2.563 132.532  0.00  0.00    +0.000 C 
ENDBRANCH  19  21
ENDBRANCH   1  19
BRANCH   8  23
ATOM     23  C   UNK A   0      -6.358   4.049 129.839  0.00  0.00    +0.000 C 
BRANCH  23  24
ATOM     24  C   UNK A   0      -7.522   5.011 130.168  0.00  0.00    +0.000 A 
ATOM     25  C   UNK A   0      -7.421   6.147 130.982  0.00  0.00    +0.000 A 
ATOM     26  C   UNK A   0      -8.565   6.828 131.386  0.00  0.00    +0.000 A 
ATOM     27  C   UNK A   0      -9.796   6.515 130.819  0.00  0.00    +0.000 A 
ATOM     28  C   UNK A   0      -9.894   5.486 129.890  0.00  0.00    +0.000 A 
ATOM     29  C   UNK A   0      -8.777   4.719 129.597  0.00  0.00    +0.000 A 
ENDBRANCH  23  24
BRANCH  23  30
ATOM     30  C   UNK A   0      -5.116   4.718 130.516  0.00  0.00    +0.000 C 
ATOM     31  O   UNK A   0      -4.862   4.452 131.696  0.00  0.00    +0.000 OA
ATOM     32  N   UNK A   0      -4.287   5.546 129.764  0.00  0.00    +0.000 N 
ATOM     33  H   UNK A   0      -4.381   5.543 128.754  0.00  0.00    +0.000 HD
BRANCH  32  34
ATOM     34  C   UNK A   0      -3.041   6.102 130.357  0.00  0.00    +0.000 C 
ATOM     35  C   UNK A   0      -2.325   5.065 131.200  0.00  0.00    +0.000 C 
ATOM     36  C   UNK A   0      -2.046   6.511 129.302  0.00  0.00    +0.000 C 
ATOM     37  C   UNK A   0      -3.319   7.409 131.127  0.00  0.00    +0.000 C 
ENDBRANCH  32  34
ENDBRANCH  23  30
ENDBRANCH   8  23
TORSDOF 7
ENDMDL
MODEL 5
REMARK VINA RESULT:      -7.6      3.263      7.273
REMARK  Name = CHEMBL198328
REMARK  12 active torsions:
REMARK  status: ('A' for Active; 'I' for Inactive)
REMARK    1  A    between atoms: CD1_1  and  CG_2
REMARK    2  A    between atoms: CG_2  and  CD2_3
REMARK    3  A    between atoms: CG_2  and  CB_4
REMARK    4  A    between atoms: CB_4  and  CA_5
REMARK    5  A    between atoms: C_9  and  C_10
REMARK    6  A    between atoms: N_21  and  C_22
REMARK    7  A    between atoms: C_22  and  C_23
REMARK    8  A    between atoms: C_22  and  C_30
REMARK    9  A    between atoms: N_25  and  C_26
REMARK   10  A    between atoms: C_26  and  C_27
REMARK   11  A    between atoms: C_26  and  C_28
REMARK   12  A    between atoms: C_26  and  C_29
REMARK                            x       y       z     vdW  Elec       q    Type
REMARK                         _______ _______ _______ _____ _____    ______ ____
ROOT
ATOM      1  CA  LEU A   2      -7.911   3.775 130.045  0.00  0.00    +0.000 C 
ATOM      2  C   LEU A   2      -8.426   4.575 128.844  0.00  0.00    +0.000 C 
ATOM      3  O   LEU A   2      -8.107   4.461 127.679  0.00  0.00    +0.000 OA
ATOM      4  N   UNK A   1      -9.389   5.463 129.152  0.00  0.00    +0.000 N 
ATOM      5  C   UNK A   1      -9.808   5.758 130.498  0.00  0.00    +0.000 C 
ATOM      6  C   UNK A   1      -8.577   5.712 131.441  0.00  0.00    +0.000 C 
ATOM      7  O   UNK A   1      -8.516   6.464 132.411  0.00  0.00    +0.000 OA
ATOM      8  N   LEU A   2      -7.608   4.731 131.151  0.00  0.00    +0.000 N 
ATOM      9  H   UNK A   1      -9.737   5.946 128.334  0.00  0.00    +0.000 HD
ENDROOT
BRANCH   5  10
ATOM     10  C   UNK A   1     -10.405   7.182 130.596  0.00  0.00    +0.000 C 
ATOM     11  C   UNK A   1     -11.946   7.194 130.652  0.00  0.00    +0.000 C 
ATOM     12  C   UNK A   1     -12.297   7.261 129.195  0.00  0.00    +0.000 A 
ATOM     13  C   UNK A   1     -13.460   6.835 128.581  0.00  0.00    +0.000 A 
ATOM     14  C   UNK A   1     -13.509   6.837 127.185  0.00  0.00    +0.000 A 
ATOM     15  C   UNK A   1     -12.400   7.247 126.426  0.00  0.00    +0.000 A 
ATOM     16  C   UNK A   1     -11.229   7.675 127.051  0.00  0.00    +0.000 A 
ATOM     17  C   UNK A   1     -11.198   7.695 128.435  0.00  0.00    +0.000 A 
ATOM     18  C   UNK A   1     -10.030   7.995 129.322  0.00  0.00    +0.000 C 
ENDBRANCH   5  10
BRANCH   1  19
ATOM     19  CB  LEU A   2      -6.765   2.943 129.491  0.00  0.00    +0.000 C 
BRANCH  19  21
ATOM     20  CD1 LEU A   2      -8.264   0.931 130.054  0.00  0.00    +0.000 C 
ATOM     21  CG  LEU A   2      -6.994   1.427 129.376  0.00  0.00    +0.000 C 
ATOM     22  CD2 LEU A   2      -7.080   1.086 127.900  0.00  0.00    +0.000 C 
ENDBRANCH  19  21
ENDBRANCH   1  19
BRANCH   8  23
ATOM     23  C   UNK A   0      -6.437   4.615 132.078  0.00  0.00    +0.000 C 
BRANCH  23  24
ATOM     24  C   UNK A   0      -6.048   3.167 132.455  0.00  0.00    +0.000 A 
ATOM     25  C   UNK A   0      -4.828   2.556 132.138  0.00  0.00    +0.000 A 
ATOM     26  C   UNK A   0      -4.654   1.190 132.335  0.00  0.00    +0.000 A 
ATOM     27  C   UNK A   0      -5.608   0.463 133.040  0.00  0.00    +0.000 A 
ATOM     28  C   UNK A   0      -6.762   1.087 133.498  0.00  0.00    +0.000 A 
ATOM     29  C   UNK A   0      -6.995   2.415 133.176  0.00  0.00    +0.000 A 
ENDBRANCH  23  24
BRANCH  23  30
ATOM     30  C   UNK A   0      -5.077   5.281 131.687  0.00  0.00    +0.000 C 
ATOM     31  O   UNK A   0      -4.717   5.256 130.504  0.00  0.00    +0.000 OA
ATOM     32  N   UNK A   0      -4.330   5.940 132.658  0.00  0.00    +0.000 N 
ATOM     33  H   UNK A   0      -4.766   6.152 133.549  0.00  0.00    +0.000 HD
BRANCH  32  34
ATOM     34  C   UNK A   0      -3.090   6.673 132.286  0.00  0.00    +0.000 C 
ATOM     35  C   UNK A   0      -3.380   7.757 131.267  0.00  0.00    +0.000 C 
ATOM     36  C   UNK A   0      -2.481   7.389 133.463  0.00  0.00    +0.000 C 
ATOM     37  C   UNK A   0      -1.980   5.706 131.830  0.00  0.00    +0.000 C 
ENDBRANCH  32  34
ENDBRANCH  23  30
ENDBRANCH   8  23
TORSDOF 7
ENDMDL
MODEL 6
REMARK VINA RESULT:      -7.5      3.211      4.179
REMARK  Name = CHEMBL198328
REMARK  12 active torsions:
REMARK  status: ('A' for Active; 'I' for Inactive)
REMARK    1  A    between atoms: CD1_1  and  CG_2
REMARK    2  A    between atoms: CG_2  and  CD2_3
REMARK    3  A    between atoms: CG_2  and  CB_4
REMARK    4  A    between atoms: CB_4  and  CA_5
REMARK    5  A    between atoms: C_9  and  C_10
REMARK    6  A    between atoms: N_21  and  C_22
REMARK    7  A    between atoms: C_22  and  C_23
REMARK    8  A    between atoms: C_22  and  C_30
REMARK    9  A    between atoms: N_25  and  C_26
REMARK   10  A    between atoms: C_26  and  C_27
REMARK   11  A    between atoms: C_26  and  C_28
REMARK   12  A    between atoms: C_26  and  C_29
REMARK                            x       y       z     vdW  Elec       q    Type
REMARK                         _______ _______ _______ _____ _____    ______ ____
ROOT
ATOM      1  CA  LEU A   2      -6.195   2.527 129.806  0.00  0.00    +0.000 C 
ATOM      2  C   LEU A   2      -6.579   1.388 128.855  0.00  0.00    +0.000 C 
ATOM      3  O   LEU A   2      -6.530   1.380 127.643  0.00  0.00    +0.000 OA
ATOM      4  N   UNK A   1      -6.958   0.259 129.482  0.00  0.00    +0.000 N 
ATOM      5  C   UNK A   1      -7.138   0.152 130.906  0.00  0.00    +0.000 C 
ATOM      6  C   UNK A   1      -7.726   1.481 131.451  0.00  0.00    +0.000 C 
ATOM      7  O   UNK A   1      -8.498   1.466 132.407  0.00  0.00    +0.000 OA
ATOM      8  N   LEU A   2      -7.268   2.662 130.835  0.00  0.00    +0.000 N 
ATOM      9  H   UNK A   1      -7.167  -0.485 128.829  0.00  0.00    +0.000 HD
ENDROOT
BRANCH   5  10
ATOM     10  C   UNK A   1      -8.143  -0.970 131.259  0.00  0.00    +0.000 C 
ATOM     11  C   UNK A   1      -7.780  -1.727 132.553  0.00  0.00    +0.000 C 
ATOM     12  C   UNK A   1      -6.904  -2.823 132.022  0.00  0.00    +0.000 A 
ATOM     13  C   UNK A   1      -5.916  -3.521 132.692  0.00  0.00    +0.000 A 
ATOM     14  C   UNK A   1      -5.104  -4.386 131.956  0.00  0.00    +0.000 A 
ATOM     15  C   UNK A   1      -5.276  -4.532 130.569  0.00  0.00    +0.000 A 
ATOM     16  C   UNK A   1      -6.273  -3.824 129.898  0.00  0.00    +0.000 A 
ATOM     17  C   UNK A   1      -7.092  -2.989 130.640  0.00  0.00    +0.000 A 
ATOM     18  C   UNK A   1      -8.140  -2.047 130.134  0.00  0.00    +0.000 C 
ENDBRANCH   5  10
BRANCH   1  19
ATOM     19  CB  LEU A   2      -5.927   3.715 128.896  0.00  0.00    +0.000 C 
BRANCH  19  21
ATOM     20  CD1 LEU A   2      -4.191   5.390 128.009  0.00  0.00    +0.000 C 
ATOM     21  CG  LEU A   2      -4.466   3.974 128.496  0.00  0.00    +0.000 C 
ATOM     22  CD2 LEU A   2      -3.603   3.717 129.717  0.00  0.00    +0.000 C 
ENDBRANCH  19  21
ENDBRANCH   1  19
BRANCH   8  23
ATOM     23  C   UNK A   0      -7.766   3.966 131.378  0.00  0.00    +0.000 C 
BRANCH  23  24
ATOM     24  C   UNK A   0      -6.677   5.046 131.573  0.00  0.00    +0.000 A 
ATOM     25  C   UNK A   0      -6.624   6.267 130.889  0.00  0.00    +0.000 A 
ATOM     26  C   UNK A   0      -5.497   7.077 130.980  0.00  0.00    +0.000 A 
ATOM     27  C   UNK A   0      -4.506   6.785 131.912  0.00  0.00    +0.000 A 
ATOM     28  C   UNK A   0      -4.613   5.655 132.713  0.00  0.00    +0.000 A 
ATOM     29  C   UNK A   0      -5.668   4.776 132.519  0.00  0.00    +0.000 A 
ENDBRANCH  23  24
BRANCH  23  30
ATOM     30  C   UNK A   0      -8.915   4.722 130.632  0.00  0.00    +0.000 C 
ATOM     31  O   UNK A   0      -9.074   4.524 129.422  0.00  0.00    +0.000 OA
ATOM     32  N   UNK A   0      -9.772   5.550 131.350  0.00  0.00    +0.000 N 
ATOM     33  H   UNK A   0      -9.767   5.496 132.363  0.00  0.00    +0.000 HD
BRANCH  32  34
ATOM     34  C   UNK A   0     -10.936   6.190 130.680  0.00  0.00    +0.000 C 
ATOM     35  C   UNK A   0     -11.778   5.165 129.947  0.00  0.00    +0.000 C 
ATOM     36  C   UNK A   0     -11.872   6.836 131.669  0.00  0.00    +0.000 C 
ATOM     37  C   UNK A   0     -10.494   7.358 129.776  0.00  0.00    +0.000 C 
ENDBRANCH  32  34
ENDBRANCH  23  30
ENDBRANCH   8  23
TORSDOF 7
ENDMDL
MODEL 7
REMARK VINA RESULT:      -7.5      3.351      7.186
REMARK  Name = CHEMBL198328
REMARK  12 active torsions:
REMARK  status: ('A' for Active; 'I' for Inactive)
REMARK    1  A    between atoms: CD1_1  and  CG_2
REMARK    2  A    between atoms: CG_2  and  CD2_3
REMARK    3  A    between atoms: CG_2  and  CB_4
REMARK    4  A    between atoms: CB_4  and  CA_5
REMARK    5  A    between atoms: C_9  and  C_10
REMARK    6  A    between atoms: N_21  and  C_22
REMARK    7  A    between atoms: C_22  and  C_23
REMARK    8  A    between atoms: C_22  and  C_30
REMARK    9  A    between atoms: N_25  and  C_26
REMARK   10  A    between atoms: C_26  and  C_27
REMARK   11  A    between atoms: C_26  and  C_28
REMARK   12  A    between atoms: C_26  and  C_29
REMARK                            x       y       z     vdW  Elec       q    Type
REMARK                         _______ _______ _______ _____ _____    ______ ____
ROOT
ATOM      1  CA  LEU A   2      -7.989   3.652 130.142  0.00  0.00    +0.000 C 
ATOM      2  C   LEU A   2      -8.474   4.462 128.936  0.00  0.00    +0.000 C 
ATOM      3  O   LEU A   2      -8.154   4.332 127.773  0.00  0.00    +0.000 OA
ATOM      4  N   UNK A   1      -9.409   5.382 129.236  0.00  0.00    +0.000 N 
ATOM      5  C   UNK A   1      -9.823   5.697 130.579  0.00  0.00    +0.000 C 
ATOM      6  C   UNK A   1      -8.598   5.616 131.527  0.00  0.00    +0.000 C 
ATOM      7  O   UNK A   1      -8.517   6.370 132.494  0.00  0.00    +0.000 OA
ATOM      8  N   LEU A   2      -7.659   4.602 131.245  0.00  0.00    +0.000 N 
ATOM      9  H   UNK A   1      -9.738   5.872 128.415  0.00  0.00    +0.000 HD
ENDROOT
BRANCH   5  10
ATOM     10  C   UNK A   1     -10.374   7.140 130.669  0.00  0.00    +0.000 C 
ATOM     11  C   UNK A   1     -11.914   7.200 130.740  0.00  0.00    +0.000 C 
ATOM     12  C   UNK A   1     -12.276   7.264 129.285  0.00  0.00    +0.000 A 
ATOM     13  C   UNK A   1     -13.459   6.869 128.686  0.00  0.00    +0.000 A 
ATOM     14  C   UNK A   1     -13.521   6.858 127.291  0.00  0.00    +0.000 A 
ATOM     15  C   UNK A   1     -12.408   7.226 126.517  0.00  0.00    +0.000 A 
ATOM     16  C   UNK A   1     -11.217   7.623 127.126  0.00  0.00    +0.000 A 
ATOM     17  C   UNK A   1     -11.173   7.656 128.510  0.00  0.00    +0.000 A 
ATOM     18  C   UNK A   1      -9.987   7.928 129.383  0.00  0.00    +0.000 C 
ENDBRANCH   5  10
BRANCH   1  19
ATOM     19  CB  LEU A   2      -6.869   2.781 129.596  0.00  0.00    +0.000 C 
BRANCH  19  21
ATOM     20  CD1 LEU A   2      -8.229   0.796 130.500  0.00  0.00    +0.000 C 
ATOM     21  CG  LEU A   2      -7.107   1.262 129.584  0.00  0.00    +0.000 C 
ATOM     22  CD2 LEU A   2      -7.458   0.864 128.163  0.00  0.00    +0.000 C 
ENDBRANCH  19  21
ENDBRANCH   1  19
BRANCH   8  23
ATOM     23  C   UNK A   0      -6.497   4.454 132.178  0.00  0.00    +0.000 C 
BRANCH  23  24
ATOM     24  C   UNK A   0      -5.305   5.394 131.885  0.00  0.00    +0.000 A 
ATOM     25  C   UNK A   0      -4.027   5.269 132.443  0.00  0.00    +0.000 A 
ATOM     26  C   UNK A   0      -3.086   6.281 132.281  0.00  0.00    +0.000 A 
ATOM     27  C   UNK A   0      -3.333   7.323 131.394  0.00  0.00    +0.000 A 
ATOM     28  C   UNK A   0      -4.542   7.386 130.711  0.00  0.00    +0.000 A 
ATOM     29  C   UNK A   0      -5.530   6.452 130.982  0.00  0.00    +0.000 A 
ENDBRANCH  23  24
BRANCH  23  30
ATOM     30  C   UNK A   0      -6.722   4.603 133.719  0.00  0.00    +0.000 C 
ATOM     31  O   UNK A   0      -7.321   3.706 134.325  0.00  0.00    +0.000 OA
ATOM     32  N   UNK A   0      -6.193   5.702 134.388  0.00  0.00    +0.000 N 
ATOM     33  H   UNK A   0      -5.507   6.278 133.912  0.00  0.00    +0.000 HD
BRANCH  32  34
ATOM     34  C   UNK A   0      -6.301   5.805 135.868  0.00  0.00    +0.000 C 
ATOM     35  C   UNK A   0      -5.716   4.582 136.547  0.00  0.00    +0.000 C 
ATOM     36  C   UNK A   0      -5.518   6.972 136.412  0.00  0.00    +0.000 C 
ATOM     37  C   UNK A   0      -7.750   6.098 136.308  0.00  0.00    +0.000 C 
ENDBRANCH  32  34
ENDBRANCH  23  30
ENDBRANCH   8  23
TORSDOF 7
ENDMDL
MODEL 8
REMARK VINA RESULT:      -7.5      5.526      8.990
REMARK  Name = CHEMBL198328
REMARK  12 active torsions:
REMARK  status: ('A' for Active; 'I' for Inactive)
REMARK    1  A    between atoms: CD1_1  and  CG_2
REMARK    2  A    between atoms: CG_2  and  CD2_3
REMARK    3  A    between atoms: CG_2  and  CB_4
REMARK    4  A    between atoms: CB_4  and  CA_5
REMARK    5  A    between atoms: C_9  and  C_10
REMARK    6  A    between atoms: N_21  and  C_22
REMARK    7  A    between atoms: C_22  and  C_23
REMARK    8  A    between atoms: C_22  and  C_30
REMARK    9  A    between atoms: N_25  and  C_26
REMARK   10  A    between atoms: C_26  and  C_27
REMARK   11  A    between atoms: C_26  and  C_28
REMARK   12  A    between atoms: C_26  and  C_29
REMARK                            x       y       z     vdW  Elec       q    Type
REMARK                         _______ _______ _______ _____ _____    ______ ____
ROOT
ATOM      1  CA  LEU A   2      -6.160  -0.032 132.735  0.00  0.00    +0.000 C 
ATOM      2  C   LEU A   2      -6.243   1.297 133.493  0.00  0.00    +0.000 C 
ATOM      3  O   LEU A   2      -5.500   1.711 134.357  0.00  0.00    +0.000 OA
ATOM      4  N   UNK A   1      -7.243   2.098 133.081  0.00  0.00    +0.000 N 
ATOM      5  C   UNK A   1      -8.245   1.705 132.123  0.00  0.00    +0.000 C 
ATOM      6  C   UNK A   1      -8.594   0.208 132.331  0.00  0.00    +0.000 C 
ATOM      7  O   UNK A   1      -9.737  -0.192 132.121  0.00  0.00    +0.000 OA
ATOM      8  N   LEU A   2      -7.525  -0.635 132.693  0.00  0.00    +0.000 N 
ATOM      9  H   UNK A   1      -7.247   2.983 133.571  0.00  0.00    +0.000 HD
ENDROOT
BRANCH   5  10
ATOM     10  C   UNK A   1      -9.551   2.510 132.321  0.00  0.00    +0.000 C 
ATOM     11  C   UNK A   1     -10.066   3.163 131.022  0.00  0.00    +0.000 C 
ATOM     12  C   UNK A   1      -9.367   4.490 131.058  0.00  0.00    +0.000 A 
ATOM     13  C   UNK A   1      -9.045   5.309 129.991  0.00  0.00    +0.000 A 
ATOM     14  C   UNK A   1      -8.240   6.424 130.234  0.00  0.00    +0.000 A 
ATOM     15  C   UNK A   1      -7.759   6.698 131.525  0.00  0.00    +0.000 A 
ATOM     16  C   UNK A   1      -8.087   5.868 132.598  0.00  0.00    +0.000 A 
ATOM     17  C   UNK A   1      -8.907   4.779 132.352  0.00  0.00    +0.000 A 
ATOM     18  C   UNK A   1      -9.294   3.691 133.305  0.00  0.00    +0.000 C 
ENDBRANCH   5  10
BRANCH   1  19
ATOM     19  CB  LEU A   2      -5.061  -0.810 133.441  0.00  0.00    +0.000 C 
BRANCH  19  21
ATOM     20  CD1 LEU A   2      -2.837  -2.060 133.122  0.00  0.00    +0.000 C 
ATOM     21  CG  LEU A   2      -3.684  -0.849 132.758  0.00  0.00    +0.000 C 
ATOM     22  CD2 LEU A   2      -3.915  -0.866 131.259  0.00  0.00    +0.000 C 
ENDBRANCH  19  21
ENDBRANCH   1  19
BRANCH   8  23
ATOM     23  C   UNK A   0      -7.814  -2.098 132.839  0.00  0.00    +0.000 C 
BRANCH  23  24
ATOM     24  C   UNK A   0      -6.900  -3.026 132.006  0.00  0.00    +0.000 A 
ATOM     25  C   UNK A   0      -6.043  -3.998 132.538  0.00  0.00    +0.000 A 
ATOM     26  C   UNK A   0      -5.112  -4.635 131.725  0.00  0.00    +0.000 A 
ATOM     27  C   UNK A   0      -5.165  -4.468 130.345  0.00  0.00    +0.000 A 
ATOM     28  C   UNK A   0      -6.111  -3.621 129.781  0.00  0.00    +0.000 A 
ATOM     29  C   UNK A   0      -6.944  -2.881 130.605  0.00  0.00    +0.000 A 
ENDBRANCH  23  24
BRANCH  23  30
ATOM     30  C   UNK A   0      -7.808  -2.746 134.263  0.00  0.00    +0.000 C 
ATOM     31  O   UNK A   0      -7.190  -2.181 135.175  0.00  0.00    +0.000 OA
ATOM     32  N   UNK A   0      -8.545  -3.903 134.496  0.00  0.00    +0.000 N 
ATOM     33  H   UNK A   0      -9.227  -4.193 133.803  0.00  0.00    +0.000 HD
BRANCH  32  34
ATOM     34  C   UNK A   0      -8.642  -4.471 135.867  0.00  0.00    +0.000 C 
ATOM     35  C   UNK A   0      -9.169  -3.444 136.849  0.00  0.00    +0.000 C 
ATOM     36  C   UNK A   0      -9.615  -5.620 135.935  0.00  0.00    +0.000 C 
ATOM     37  C   UNK A   0      -7.304  -5.095 136.313  0.00  0.00    +0.000 C 
ENDBRANCH  32  34
ENDBRANCH  23  30
ENDBRANCH   8  23
TORSDOF 7
ENDMDL
MODEL 9
REMARK VINA RESULT:      -7.4      3.465      6.133
REMARK  Name = CHEMBL198328
REMARK  12 active torsions:
REMARK  status: ('A' for Active; 'I' for Inactive)
REMARK    1  A    between atoms: CD1_1  and  CG_2
REMARK    2  A    between atoms: CG_2  and  CD2_3
REMARK    3  A    between atoms: CG_2  and  CB_4
REMARK    4  A    between atoms: CB_4  and  CA_5
REMARK    5  A    between atoms: C_9  and  C_10
REMARK    6  A    between atoms: N_21  and  C_22
REMARK    7  A    between atoms: C_22  and  C_23
REMARK    8  A    between atoms: C_22  and  C_30
REMARK    9  A    between atoms: N_25  and  C_26
REMARK   10  A    between atoms: C_26  and  C_27
REMARK   11  A    between atoms: C_26  and  C_28
REMARK   12  A    between atoms: C_26  and  C_29
REMARK                            x       y       z     vdW  Elec       q    Type
REMARK                         _______ _______ _______ _____ _____    ______ ____
ROOT
ATOM      1  CA  LEU A   2      -6.473   2.304 131.943  0.00  0.00    +0.000 C 
ATOM      2  C   LEU A   2      -5.404   1.405 132.574  0.00  0.00    +0.000 C 
ATOM      3  O   LEU A   2      -4.898   1.506 133.672  0.00  0.00    +0.000 OA
ATOM      4  N   UNK A   1      -5.052   0.356 131.808  0.00  0.00    +0.000 N 
ATOM      5  C   UNK A   1      -5.511   0.157 130.458  0.00  0.00    +0.000 C 
ATOM      6  C   UNK A   1      -5.624   1.531 129.746  0.00  0.00    +0.000 C 
ATOM      7  O   UNK A   1      -5.395   1.621 128.542  0.00  0.00    +0.000 OA
ATOM      8  N   LEU A   2      -6.063   2.609 130.541  0.00  0.00    +0.000 N 
ATOM      9  H   UNK A   1      -4.375  -0.239 132.268  0.00  0.00    +0.000 HD
ENDROOT
BRANCH   5  10
ATOM     10  C   UNK A   1      -4.506  -0.695 129.647  0.00  0.00    +0.000 C 
ATOM     11  C   UNK A   1      -5.169  -1.872 128.902  0.00  0.00    +0.000 C 
ATOM     12  C   UNK A   1      -5.096  -2.958 129.935  0.00  0.00    +0.000 A 
ATOM     13  C   UNK A   1      -5.911  -4.068 130.059  0.00  0.00    +0.000 A 
ATOM     14  C   UNK A   1      -5.773  -4.865 131.198  0.00  0.00    +0.000 A 
ATOM     15  C   UNK A   1      -4.841  -4.538 132.197  0.00  0.00    +0.000 A 
ATOM     16  C   UNK A   1      -4.022  -3.416 132.067  0.00  0.00    +0.000 A 
ATOM     17  C   UNK A   1      -4.147  -2.647 130.922  0.00  0.00    +0.000 A 
ATOM     18  C   UNK A   1      -3.473  -1.346 130.614  0.00  0.00    +0.000 C 
ENDBRANCH   5  10
BRANCH   1  19
ATOM     19  CB  LEU A   2      -6.619   3.467 132.911  0.00  0.00    +0.000 C 
BRANCH  19  21
ATOM     20  CD1 LEU A   2      -8.023   4.651 134.710  0.00  0.00    +0.000 C 
ATOM     21  CG  LEU A   2      -7.710   3.349 133.987  0.00  0.00    +0.000 C 
ATOM     22  CD2 LEU A   2      -8.978   2.869 133.305  0.00  0.00    +0.000 C 
ENDBRANCH  19  21
ENDBRANCH   1  19
BRANCH   8  23
ATOM     23  C   UNK A   0      -6.245   3.936 129.871  0.00  0.00    +0.000 C 
BRANCH  23  24
ATOM     24  C   UNK A   0      -7.509   4.714 130.304  0.00  0.00    +0.000 A 
ATOM     25  C   UNK A   0      -7.507   5.899 131.049  0.00  0.00    +0.000 A 
ATOM     26  C   UNK A   0      -8.694   6.408 131.566  0.00  0.00    +0.000 A 
ATOM     27  C   UNK A   0      -9.912   5.864 131.172  0.00  0.00    +0.000 A 
ATOM     28  C   UNK A   0      -9.943   4.776 130.308  0.00  0.00    +0.000 A 
ATOM     29  C   UNK A   0      -8.754   4.185 129.909  0.00  0.00    +0.000 A 
ENDBRANCH  23  24
BRANCH  23  30
ATOM     30  C   UNK A   0      -5.102   5.002 129.952  0.00  0.00    +0.000 C 
ATOM     31  O   UNK A   0      -5.140   5.978 129.192  0.00  0.00    +0.000 OA
ATOM     32  N   UNK A   0      -4.105   4.870 130.913  0.00  0.00    +0.000 N 
ATOM     33  H   UNK A   0      -4.240   4.205 131.667  0.00  0.00    +0.000 HD
BRANCH  32  34
ATOM     34  C   UNK A   0      -3.073   5.929 131.078  0.00  0.00    +0.000 C 
ATOM     35  C   UNK A   0      -3.672   7.188 131.673  0.00  0.00    +0.000 C 
ATOM     36  C   UNK A   0      -1.987   5.515 132.037  0.00  0.00    +0.000 C 
ATOM     37  C   UNK A   0      -2.319   6.191 129.759  0.00  0.00    +0.000 C 
ENDBRANCH  32  34
ENDBRANCH  23  30
ENDBRANCH   8  23
TORSDOF 7
ENDMDL
