MODEL 1
REMARK VINA RESULT:      -8.2      0.000      0.000
REMARK  Name = CHEMBL549633
REMARK  9 active torsions:
REMARK  status: ('A' for Active; 'I' for Inactive)
REMARK    1  A    between atoms: C_1  and  O_2
REMARK    2  A    between atoms: O_2  and  C_3
REMARK    3  A    between atoms: C_6  and  N_7
REMARK    4  A    between atoms: C_8  and  C_9
REMARK    5  A    between atoms: C_12  and  C_13
REMARK    6  A    between atoms: C_16  and  O_17
REMARK    7  A    between atoms: O_17  and  C_18
REMARK    8  A    between atoms: C_23  and  O_24
REMARK    9  A    between atoms: O_24  and  C_25
REMARK                            x       y       z     vdW  Elec       q    Type
REMARK                         _______ _______ _______ _____ _____    ______ ____
ROOT
ATOM      1  C   UNL     1      -7.143   4.004 125.615  0.00  0.00    +0.000 A 
ATOM      2  C   UNL     1      -8.154   4.875 126.020  0.00  0.00    +0.000 A 
ATOM      3  N   UNL     1      -8.647   4.929 127.289  0.00  0.00    +0.000 NA
ATOM      4  C   UNL     1      -8.200   3.951 128.107  0.00  0.00    +0.000 A 
ATOM      5  C   UNL     1      -7.200   3.063 127.708  0.00  0.00    +0.000 A 
ATOM      6  N   UNL     1      -6.629   3.086 126.469  0.00  0.00    +0.000 NA
ENDROOT
BRANCH   1  12
ATOM      7  N   UNL     1      -6.680   3.175 123.270  0.00  0.00    +0.000 N 
ATOM      8  C   UNL     1      -5.834   3.611 122.252  0.00  0.00    +0.000 A 
ATOM      9  C   UNL     1      -5.705   3.071 120.869  0.00  0.00    +0.000 C 
ATOM     10  N   UNL     1      -5.218   4.704 122.645  0.00  0.00    +0.000 NA
ATOM     11  N   UNL     1      -5.645   5.019 123.908  0.00  0.00    +0.000 NA
ATOM     12  C   UNL     1      -6.511   4.113 124.294  0.00  0.00    +0.000 A 
BRANCH   7  16
ATOM     13  C   UNL     1      -9.092  -0.231 123.147  0.00  0.00    +0.000 A 
ATOM     14  C   UNL     1      -7.762  -0.384 123.499  0.00  0.00    +0.000 A 
ATOM     15  C   UNL     1      -6.963   0.756 123.608  0.00  0.00    +0.000 A 
ATOM     16  C   UNL     1      -7.507   2.024 123.344  0.00  0.00    +0.000 A 
ATOM     17  C   UNL     1      -8.831   2.072 122.931  0.00  0.00    +0.000 A 
ATOM     18  N   UNL     1      -9.625   0.973 122.830  0.00  0.00    +0.000 NA
BRANCH  13  20
ATOM     19  C   UNL     1      -9.325  -2.557 123.279  0.00  0.00    +0.000 C 
ATOM     20  O   UNL     1      -9.942  -1.299 123.011  0.00  0.00    +0.000 OA
ENDBRANCH  13  20
ENDBRANCH   7  16
ENDBRANCH   1  12
BRANCH   4  21
ATOM     21  O   UNL     1      -8.918   3.603 129.246  0.00  0.00    +0.000 OA
BRANCH  21  22
ATOM     22  C   UNL     1      -9.276   4.569 130.168  0.00  0.00    +0.000 A 
ATOM     23  C   UNL     1      -8.319   4.715 131.196  0.00  0.00    +0.000 A 
ATOM     24  C   UNL     1      -8.560   5.510 132.321  0.00  0.00    +0.000 A 
ATOM     25  C   UNL     1      -9.741   6.228 132.413  0.00  0.00    +0.000 A 
ATOM     26  C   UNL     1     -10.697   6.095 131.409  0.00  0.00    +0.000 A 
ATOM     27  C   UNL     1     -10.512   5.234 130.306  0.00  0.00    +0.000 A 
BRANCH  27  28
ATOM     28  O   UNL     1     -11.677   5.161 129.588  0.00  0.00    +0.000 OA
ATOM     29  C   UNL     1     -12.409   6.329 129.324  0.00  0.00    +0.000 C 
ENDBRANCH  27  28
ENDBRANCH  21  22
ENDBRANCH   4  21
TORSDOF 6
ENDMDL
MODEL 2
REMARK VINA RESULT:      -8.1      0.962      1.734
REMARK  Name = CHEMBL549633
REMARK  9 active torsions:
REMARK  status: ('A' for Active; 'I' for Inactive)
REMARK    1  A    between atoms: C_1  and  O_2
REMARK    2  A    between atoms: O_2  and  C_3
REMARK    3  A    between atoms: C_6  and  N_7
REMARK    4  A    between atoms: C_8  and  C_9
REMARK    5  A    between atoms: C_12  and  C_13
REMARK    6  A    between atoms: C_16  and  O_17
REMARK    7  A    between atoms: O_17  and  C_18
REMARK    8  A    between atoms: C_23  and  O_24
REMARK    9  A    between atoms: O_24  and  C_25
REMARK                            x       y       z     vdW  Elec       q    Type
REMARK                         _______ _______ _______ _____ _____    ______ ____
ROOT
ATOM      1  C   UNL     1      -6.907   4.009 125.501  0.00  0.00    +0.000 A 
ATOM      2  C   UNL     1      -8.047   4.712 125.891  0.00  0.00    +0.000 A 
ATOM      3  N   UNL     1      -8.490   4.785 127.177  0.00  0.00    +0.000 NA
ATOM      4  C   UNL     1      -7.835   3.982 128.044  0.00  0.00    +0.000 A 
ATOM      5  C   UNL     1      -6.703   3.260 127.661  0.00  0.00    +0.000 A 
ATOM      6  N   UNL     1      -6.197   3.279 126.395  0.00  0.00    +0.000 NA
ENDROOT
BRANCH   1  12
ATOM      7  N   UNL     1      -6.607   3.184 123.128  0.00  0.00    +0.000 N 
ATOM      8  C   UNL     1      -5.822   3.614 122.059  0.00  0.00    +0.000 A 
ATOM      9  C   UNL     1      -5.789   3.078 120.669  0.00  0.00    +0.000 C 
ATOM     10  N   UNL     1      -5.168   4.698 122.416  0.00  0.00    +0.000 NA
ATOM     11  N   UNL     1      -5.509   5.012 123.705  0.00  0.00    +0.000 NA
ATOM     12  C   UNL     1      -6.360   4.115 124.143  0.00  0.00    +0.000 A 
BRANCH   7  16
ATOM     13  C   UNL     1      -9.064  -0.191 123.148  0.00  0.00    +0.000 A 
ATOM     14  C   UNL     1      -7.717  -0.362 123.416  0.00  0.00    +0.000 A 
ATOM     15  C   UNL     1      -6.898   0.768 123.478  0.00  0.00    +0.000 A 
ATOM     16  C   UNL     1      -7.442   2.043 123.251  0.00  0.00    +0.000 A 
ATOM     17  C   UNL     1      -8.787   2.109 122.921  0.00  0.00    +0.000 A 
ATOM     18  N   UNL     1      -9.600   1.021 122.867  0.00  0.00    +0.000 NA
BRANCH  13  20
ATOM     19  C   UNL     1      -9.331  -2.509 123.348  0.00  0.00    +0.000 C 
ATOM     20  O   UNL     1      -9.935  -1.248 123.063  0.00  0.00    +0.000 OA
ENDBRANCH  13  20
ENDBRANCH   7  16
ENDBRANCH   1  12
BRANCH   4  21
ATOM     21  O   UNL     1      -8.429   3.609 129.245  0.00  0.00    +0.000 OA
BRANCH  21  22
ATOM     22  C   UNL     1      -8.977   4.565 130.080  0.00  0.00    +0.000 A 
ATOM     23  C   UNL     1     -10.355   4.358 130.307  0.00  0.00    +0.000 A 
ATOM     24  C   UNL     1     -11.142   5.299 130.979  0.00  0.00    +0.000 A 
ATOM     25  C   UNL     1     -10.553   6.442 131.494  0.00  0.00    +0.000 A 
ATOM     26  C   UNL     1      -9.195   6.664 131.278  0.00  0.00    +0.000 A 
ATOM     27  C   UNL     1      -8.399   5.770 130.531  0.00  0.00    +0.000 A 
BRANCH  27  28
ATOM     28  O   UNL     1      -7.165   6.329 130.321  0.00  0.00    +0.000 OA
ATOM     29  C   UNL     1      -6.380   6.718 131.419  0.00  0.00    +0.000 C 
ENDBRANCH  27  28
ENDBRANCH  21  22
ENDBRANCH   4  21
TORSDOF 6
ENDMDL
MODEL 3
REMARK VINA RESULT:      -8.0      5.584      7.441
REMARK  Name = CHEMBL549633
REMARK  9 active torsions:
REMARK  status: ('A' for Active; 'I' for Inactive)
REMARK    1  A    between atoms: C_1  and  O_2
REMARK    2  A    between atoms: O_2  and  C_3
REMARK    3  A    between atoms: C_6  and  N_7
REMARK    4  A    between atoms: C_8  and  C_9
REMARK    5  A    between atoms: C_12  and  C_13
REMARK    6  A    between atoms: C_16  and  O_17
REMARK    7  A    between atoms: O_17  and  C_18
REMARK    8  A    between atoms: C_23  and  O_24
REMARK    9  A    between atoms: O_24  and  C_25
REMARK                            x       y       z     vdW  Elec       q    Type
REMARK                         _______ _______ _______ _____ _____    ______ ____
ROOT
ATOM      1  C   UNL     1      -5.925   6.007 131.817  0.00  0.00    +0.000 A 
ATOM      2  C   UNL     1      -6.431   7.071 131.072  0.00  0.00    +0.000 A 
ATOM      3  N   UNL     1      -7.729   7.167 130.669  0.00  0.00    +0.000 NA
ATOM      4  C   UNL     1      -8.472   6.064 130.902  0.00  0.00    +0.000 A 
ATOM      5  C   UNL     1      -7.972   4.984 131.633  0.00  0.00    +0.000 A 
ATOM      6  N   UNL     1      -6.703   4.942 132.131  0.00  0.00    +0.000 NA
ENDROOT
BRANCH   1  12
ATOM      7  N   UNL     1      -3.433   5.581 131.722  0.00  0.00    +0.000 N 
ATOM      8  C   UNL     1      -2.407   5.700 132.659  0.00  0.00    +0.000 A 
ATOM      9  C   UNL     1      -0.947   5.484 132.455  0.00  0.00    +0.000 C 
ATOM     10  N   UNL     1      -2.902   6.177 133.779  0.00  0.00    +0.000 NA
ATOM     11  N   UNL     1      -4.245   6.394 133.610  0.00  0.00    +0.000 NA
ATOM     12  C   UNL     1      -4.574   6.037 132.391  0.00  0.00    +0.000 A 
BRANCH   7  16
ATOM     13  C   UNL     1      -3.032   4.025 127.869  0.00  0.00    +0.000 A 
ATOM     14  C   UNL     1      -3.554   3.204 128.854  0.00  0.00    +0.000 A 
ATOM     15  C   UNL     1      -3.754   3.735 130.131  0.00  0.00    +0.000 A 
ATOM     16  C   UNL     1      -3.410   5.070 130.398  0.00  0.00    +0.000 A 
ATOM     17  C   UNL     1      -2.829   5.794 129.368  0.00  0.00    +0.000 A 
ATOM     18  N   UNL     1      -2.638   5.296 128.118  0.00  0.00    +0.000 NA
BRANCH  13  20
ATOM     19  C   UNL     1      -1.507   2.995 126.420  0.00  0.00    +0.000 C 
ATOM     20  O   UNL     1      -2.797   3.579 126.593  0.00  0.00    +0.000 OA
ENDBRANCH  13  20
ENDBRANCH   7  16
ENDBRANCH   1  12
BRANCH   4  21
ATOM     21  O   UNL     1      -9.636   5.832 130.177  0.00  0.00    +0.000 OA
BRANCH  21  22
ATOM     22  C   UNL     1     -10.599   6.819 130.068  0.00  0.00    +0.000 A 
ATOM     23  C   UNL     1     -11.547   6.766 131.113  0.00  0.00    +0.000 A 
ATOM     24  C   UNL     1     -12.699   7.558 131.106  0.00  0.00    +0.000 A 
ATOM     25  C   UNL     1     -12.898   8.469 130.081  0.00  0.00    +0.000 A 
ATOM     26  C   UNL     1     -11.973   8.534 129.040  0.00  0.00    +0.000 A 
ATOM     27  C   UNL     1     -10.847   7.686 128.984  0.00  0.00    +0.000 A 
BRANCH  27  28
ATOM     28  O   UNL     1     -10.226   7.838 127.772  0.00  0.00    +0.000 OA
ATOM     29  C   UNL     1     -10.973   7.737 126.588  0.00  0.00    +0.000 C 
ENDBRANCH  27  28
ENDBRANCH  21  22
ENDBRANCH   4  21
TORSDOF 6
ENDMDL
MODEL 4
REMARK VINA RESULT:      -7.8      4.295      8.016
REMARK  Name = CHEMBL549633
REMARK  9 active torsions:
REMARK  status: ('A' for Active; 'I' for Inactive)
REMARK    1  A    between atoms: C_1  and  O_2
REMARK    2  A    between atoms: O_2  and  C_3
REMARK    3  A    between atoms: C_6  and  N_7
REMARK    4  A    between atoms: C_8  and  C_9
REMARK    5  A    between atoms: C_12  and  C_13
REMARK    6  A    between atoms: C_16  and  O_17
REMARK    7  A    between atoms: O_17  and  C_18
REMARK    8  A    between atoms: C_23  and  O_24
REMARK    9  A    between atoms: O_24  and  C_25
REMARK                            x       y       z     vdW  Elec       q    Type
REMARK                         _______ _______ _______ _____ _____    ______ ____
ROOT
ATOM      1  C   UNL     1      -8.471  -0.048 125.207  0.00  0.00    +0.000 A 
ATOM      2  C   UNL     1      -9.143   1.130 125.530  0.00  0.00    +0.000 A 
ATOM      3  N   UNL     1      -8.892   2.333 124.942  0.00  0.00    +0.000 NA
ATOM      4  C   UNL     1      -7.816   2.345 124.125  0.00  0.00    +0.000 A 
ATOM      5  C   UNL     1      -7.125   1.175 123.806  0.00  0.00    +0.000 A 
ATOM      6  N   UNL     1      -7.452  -0.049 124.313  0.00  0.00    +0.000 NA
ENDROOT
BRANCH   1  12
ATOM      7  N   UNL     1      -8.374  -1.949 126.874  0.00  0.00    +0.000 N 
ATOM      8  C   UNL     1      -8.988  -3.200 126.934  0.00  0.00    +0.000 A 
ATOM      9  C   UNL     1      -8.903  -4.214 128.022  0.00  0.00    +0.000 C 
ATOM     10  N   UNL     1      -9.801  -3.328 125.909  0.00  0.00    +0.000 NA
ATOM     11  N   UNL     1      -9.755  -2.178 125.164  0.00  0.00    +0.000 NA
ATOM     12  C   UNL     1      -8.904  -1.352 125.725  0.00  0.00    +0.000 A 
BRANCH   7  16
ATOM     13  C   UNL     1      -5.402  -0.033 129.093  0.00  0.00    +0.000 A 
ATOM     14  C   UNL     1      -6.723   0.293 129.351  0.00  0.00    +0.000 A 
ATOM     15  C   UNL     1      -7.728  -0.390 128.661  0.00  0.00    +0.000 A 
ATOM     16  C   UNL     1      -7.388  -1.371 127.715  0.00  0.00    +0.000 A 
ATOM     17  C   UNL     1      -6.038  -1.580 127.474  0.00  0.00    +0.000 A 
ATOM     18  N   UNL     1      -5.049  -0.932 128.144  0.00  0.00    +0.000 NA
BRANCH  13  20
ATOM     19  C   UNL     1      -4.715   1.841 130.318  0.00  0.00    +0.000 C 
ATOM     20  O   UNL     1      -4.357   0.595 129.721  0.00  0.00    +0.000 OA
ENDBRANCH  13  20
ENDBRANCH   7  16
ENDBRANCH   1  12
BRANCH   4  21
ATOM     21  O   UNL     1      -7.178   3.542 123.818  0.00  0.00    +0.000 OA
BRANCH  21  22
ATOM     22  C   UNL     1      -6.676   3.760 122.548  0.00  0.00    +0.000 A 
ATOM     23  C   UNL     1      -5.348   4.239 122.568  0.00  0.00    +0.000 A 
ATOM     24  C   UNL     1      -4.707   4.686 121.409  0.00  0.00    +0.000 A 
ATOM     25  C   UNL     1      -5.360   4.606 120.190  0.00  0.00    +0.000 A 
ATOM     26  C   UNL     1      -6.672   4.137 120.151  0.00  0.00    +0.000 A 
ATOM     27  C   UNL     1      -7.368   3.759 121.319  0.00  0.00    +0.000 A 
BRANCH  27  28
ATOM     28  O   UNL     1      -8.681   3.524 121.008  0.00  0.00    +0.000 OA
ATOM     29  C   UNL     1      -9.203   3.988 119.789  0.00  0.00    +0.000 C 
ENDBRANCH  27  28
ENDBRANCH  21  22
ENDBRANCH   4  21
TORSDOF 6
ENDMDL
MODEL 5
REMARK VINA RESULT:      -7.7      2.626      4.467
REMARK  Name = CHEMBL549633
REMARK  9 active torsions:
REMARK  status: ('A' for Active; 'I' for Inactive)
REMARK    1  A    between atoms: C_1  and  O_2
REMARK    2  A    between atoms: O_2  and  C_3
REMARK    3  A    between atoms: C_6  and  N_7
REMARK    4  A    between atoms: C_8  and  C_9
REMARK    5  A    between atoms: C_12  and  C_13
REMARK    6  A    between atoms: C_16  and  O_17
REMARK    7  A    between atoms: O_17  and  C_18
REMARK    8  A    between atoms: C_23  and  O_24
REMARK    9  A    between atoms: O_24  and  C_25
REMARK                            x       y       z     vdW  Elec       q    Type
REMARK                         _______ _______ _______ _____ _____    ______ ____
ROOT
ATOM      1  C   UNL     1      -6.702   4.335 129.330  0.00  0.00    +0.000 A 
ATOM      2  C   UNL     1      -7.625   3.368 128.934  0.00  0.00    +0.000 A 
ATOM      3  N   UNL     1      -8.975   3.550 128.962  0.00  0.00    +0.000 NA
ATOM      4  C   UNL     1      -9.376   4.690 129.565  0.00  0.00    +0.000 A 
ATOM      5  C   UNL     1      -8.461   5.659 129.982  0.00  0.00    +0.000 A 
ATOM      6  N   UNL     1      -7.111   5.519 129.849  0.00  0.00    +0.000 NA
ENDROOT
BRANCH   1  12
ATOM      7  N   UNL     1      -4.698   3.865 127.859  0.00  0.00    +0.000 N 
ATOM      8  C   UNL     1      -3.339   3.699 128.120  0.00  0.00    +0.000 A 
ATOM      9  C   UNL     1      -2.233   3.495 127.142  0.00  0.00    +0.000 C 
ATOM     10  N   UNL     1      -3.123   3.884 129.404  0.00  0.00    +0.000 NA
ATOM     11  N   UNL     1      -4.314   4.183 130.011  0.00  0.00    +0.000 NA
ATOM     12  C   UNL     1      -5.261   4.169 129.103  0.00  0.00    +0.000 A 
BRANCH   7  16
ATOM     13  C   UNL     1      -6.539   3.493 124.130  0.00  0.00    +0.000 A 
ATOM     14  C   UNL     1      -6.210   2.336 124.815  0.00  0.00    +0.000 A 
ATOM     15  C   UNL     1      -5.654   2.449 126.092  0.00  0.00    +0.000 A 
ATOM     16  C   UNL     1      -5.423   3.717 126.648  0.00  0.00    +0.000 A 
ATOM     17  C   UNL     1      -5.721   4.819 125.859  0.00  0.00    +0.000 A 
ATOM     18  N   UNL     1      -6.272   4.727 124.620  0.00  0.00    +0.000 NA
BRANCH  13  20
ATOM     19  C   UNL     1      -8.414   2.963 122.831  0.00  0.00    +0.000 C 
ATOM     20  O   UNL     1      -7.081   3.470 122.870  0.00  0.00    +0.000 OA
ENDBRANCH  13  20
ENDBRANCH   7  16
ENDBRANCH   1  12
BRANCH   4  21
ATOM     21  O   UNL     1     -10.668   4.805 130.063  0.00  0.00    +0.000 OA
BRANCH  21  22
ATOM     22  C   UNL     1     -11.326   6.021 130.023  0.00  0.00    +0.000 A 
ATOM     23  C   UNL     1     -11.844   6.397 131.281  0.00  0.00    +0.000 A 
ATOM     24  C   UNL     1     -12.689   7.501 131.432  0.00  0.00    +0.000 A 
ATOM     25  C   UNL     1     -12.985   8.293 130.334  0.00  0.00    +0.000 A 
ATOM     26  C   UNL     1     -12.484   7.936 129.084  0.00  0.00    +0.000 A 
ATOM     27  C   UNL     1     -11.698   6.779 128.893  0.00  0.00    +0.000 A 
BRANCH  27  28
ATOM     28  O   UNL     1     -11.509   6.577 127.552  0.00  0.00    +0.000 OA
ATOM     29  C   UNL     1     -10.802   7.527 126.795  0.00  0.00    +0.000 C 
ENDBRANCH  27  28
ENDBRANCH  21  22
ENDBRANCH   4  21
TORSDOF 6
ENDMDL
MODEL 6
REMARK VINA RESULT:      -7.7      3.991      7.564
REMARK  Name = CHEMBL549633
REMARK  9 active torsions:
REMARK  status: ('A' for Active; 'I' for Inactive)
REMARK    1  A    between atoms: C_1  and  O_2
REMARK    2  A    between atoms: O_2  and  C_3
REMARK    3  A    between atoms: C_6  and  N_7
REMARK    4  A    between atoms: C_8  and  C_9
REMARK    5  A    between atoms: C_12  and  C_13
REMARK    6  A    between atoms: C_16  and  O_17
REMARK    7  A    between atoms: O_17  and  C_18
REMARK    8  A    between atoms: C_23  and  O_24
REMARK    9  A    between atoms: O_24  and  C_25
REMARK                            x       y       z     vdW  Elec       q    Type
REMARK                         _______ _______ _______ _____ _____    ______ ____
ROOT
ATOM      1  C   UNL     1      -9.034  -0.408 124.957  0.00  0.00    +0.000 A 
ATOM      2  C   UNL     1      -9.782   0.740 125.216  0.00  0.00    +0.000 A 
ATOM      3  N   UNL     1      -9.990   1.732 124.306  0.00  0.00    +0.000 NA
ATOM      4  C   UNL     1      -9.275   1.608 123.166  0.00  0.00    +0.000 A 
ATOM      5  C   UNL     1      -8.509   0.471 122.902  0.00  0.00    +0.000 A 
ATOM      6  N   UNL     1      -8.393  -0.572 123.773  0.00  0.00    +0.000 NA
ENDROOT
BRANCH   1  12
ATOM      7  N   UNL     1      -8.140  -1.600 127.002  0.00  0.00    +0.000 N 
ATOM      8  C   UNL     1      -8.363  -2.865 127.545  0.00  0.00    +0.000 A 
ATOM      9  C   UNL     1      -7.822  -3.430 128.813  0.00  0.00    +0.000 C 
ATOM     10  N   UNL     1      -9.265  -3.489 126.819  0.00  0.00    +0.000 NA
ATOM     11  N   UNL     1      -9.663  -2.661 125.803  0.00  0.00    +0.000 NA
ATOM     12  C   UNL     1      -8.996  -1.535 125.897  0.00  0.00    +0.000 A 
BRANCH   7  16
ATOM     13  C   UNL     1      -5.549   1.558 127.865  0.00  0.00    +0.000 A 
ATOM     14  C   UNL     1      -6.768   1.515 128.519  0.00  0.00    +0.000 A 
ATOM     15  C   UNL     1      -7.614   0.428 128.288  0.00  0.00    +0.000 A 
ATOM     16  C   UNL     1      -7.230  -0.583 127.392  0.00  0.00    +0.000 A 
ATOM     17  C   UNL     1      -6.022  -0.419 126.731  0.00  0.00    +0.000 A 
ATOM     18  N   UNL     1      -5.182   0.626 126.953  0.00  0.00    +0.000 NA
BRANCH  13  20
ATOM     19  C   UNL     1      -3.995   2.971 126.827  0.00  0.00    +0.000 C 
ATOM     20  O   UNL     1      -4.664   2.593 128.030  0.00  0.00    +0.000 OA
ENDBRANCH  13  20
ENDBRANCH   7  16
ENDBRANCH   1  12
BRANCH   4  21
ATOM     21  O   UNL     1      -9.032   2.717 122.364  0.00  0.00    +0.000 OA
BRANCH  21  22
ATOM     22  C   UNL     1      -7.789   3.324 122.370  0.00  0.00    +0.000 A 
ATOM     23  C   UNL     1      -7.312   3.589 121.067  0.00  0.00    +0.000 A 
ATOM     24  C   UNL     1      -6.009   4.039 120.836  0.00  0.00    +0.000 A 
ATOM     25  C   UNL     1      -5.172   4.296 121.911  0.00  0.00    +0.000 A 
ATOM     26  C   UNL     1      -5.626   4.040 123.203  0.00  0.00    +0.000 A 
ATOM     27  C   UNL     1      -6.908   3.506 123.455  0.00  0.00    +0.000 A 
BRANCH  27  28
ATOM     28  O   UNL     1      -7.010   3.183 124.782  0.00  0.00    +0.000 OA
ATOM     29  C   UNL     1      -7.536   4.116 125.690  0.00  0.00    +0.000 C 
ENDBRANCH  27  28
ENDBRANCH  21  22
ENDBRANCH   4  21
TORSDOF 6
ENDMDL
MODEL 7
REMARK VINA RESULT:      -7.6      3.151      5.545
REMARK  Name = CHEMBL549633
REMARK  9 active torsions:
REMARK  status: ('A' for Active; 'I' for Inactive)
REMARK    1  A    between atoms: C_1  and  O_2
REMARK    2  A    between atoms: O_2  and  C_3
REMARK    3  A    between atoms: C_6  and  N_7
REMARK    4  A    between atoms: C_8  and  C_9
REMARK    5  A    between atoms: C_12  and  C_13
REMARK    6  A    between atoms: C_16  and  O_17
REMARK    7  A    between atoms: O_17  and  C_18
REMARK    8  A    between atoms: C_23  and  O_24
REMARK    9  A    between atoms: O_24  and  C_25
REMARK                            x       y       z     vdW  Elec       q    Type
REMARK                         _______ _______ _______ _____ _____    ______ ____
ROOT
ATOM      1  C   UNL     1      -8.162   1.777 124.284  0.00  0.00    +0.000 A 
ATOM      2  C   UNL     1      -8.521   2.324 125.514  0.00  0.00    +0.000 A 
ATOM      3  N   UNL     1      -8.064   3.522 125.976  0.00  0.00    +0.000 NA
ATOM      4  C   UNL     1      -7.093   4.080 125.222  0.00  0.00    +0.000 A 
ATOM      5  C   UNL     1      -6.712   3.533 123.995  0.00  0.00    +0.000 A 
ATOM      6  N   UNL     1      -7.255   2.391 123.485  0.00  0.00    +0.000 NA
ENDROOT
BRANCH   1  12
ATOM      7  N   UNL     1      -8.496  -0.726 124.117  0.00  0.00    +0.000 N 
ATOM      8  C   UNL     1      -9.287  -1.532 123.298  0.00  0.00    +0.000 A 
ATOM      9  C   UNL     1      -9.451  -3.012 123.349  0.00  0.00    +0.000 C 
ATOM     10  N   UNL     1     -10.009  -0.765 122.512  0.00  0.00    +0.000 NA
ATOM     11  N   UNL     1      -9.729   0.546 122.795  0.00  0.00    +0.000 NA
ATOM     12  C   UNL     1      -8.825   0.583 123.745  0.00  0.00    +0.000 A 
BRANCH   7  16
ATOM     13  C   UNL     1      -5.762  -2.081 126.966  0.00  0.00    +0.000 A 
ATOM     14  C   UNL     1      -5.341  -1.983 125.651  0.00  0.00    +0.000 A 
ATOM     15  C   UNL     1      -6.227  -1.468 124.701  0.00  0.00    +0.000 A 
ATOM     16  C   UNL     1      -7.521  -1.080 125.085  0.00  0.00    +0.000 A 
ATOM     17  C   UNL     1      -7.876  -1.279 126.411  0.00  0.00    +0.000 A 
ATOM     18  N   UNL     1      -7.023  -1.769 127.349  0.00  0.00    +0.000 NA
BRANCH  13  20
ATOM     19  C   UNL     1      -5.656  -2.875 129.167  0.00  0.00    +0.000 C 
ATOM     20  O   UNL     1      -4.958  -2.583 127.957  0.00  0.00    +0.000 OA
ENDBRANCH  13  20
ENDBRANCH   7  16
ENDBRANCH   1  12
BRANCH   4  21
ATOM     21  O   UNL     1      -6.235   5.029 125.768  0.00  0.00    +0.000 OA
BRANCH  21  22
ATOM     22  C   UNL     1      -5.194   4.639 126.590  0.00  0.00    +0.000 A 
ATOM     23  C   UNL     1      -4.164   3.984 125.881  0.00  0.00    +0.000 A 
ATOM     24  C   UNL     1      -3.100   3.356 126.537  0.00  0.00    +0.000 A 
ATOM     25  C   UNL     1      -3.011   3.425 127.918  0.00  0.00    +0.000 A 
ATOM     26  C   UNL     1      -4.020   4.065 128.634  0.00  0.00    +0.000 A 
ATOM     27  C   UNL     1      -5.145   4.633 127.999  0.00  0.00    +0.000 A 
BRANCH  27  28
ATOM     28  O   UNL     1      -6.053   5.020 128.949  0.00  0.00    +0.000 OA
ATOM     29  C   UNL     1      -7.019   4.109 129.404  0.00  0.00    +0.000 C 
ENDBRANCH  27  28
ENDBRANCH  21  22
ENDBRANCH   4  21
TORSDOF 6
ENDMDL
MODEL 8
REMARK VINA RESULT:      -7.6      5.616      8.017
REMARK  Name = CHEMBL549633
REMARK  9 active torsions:
REMARK  status: ('A' for Active; 'I' for Inactive)
REMARK    1  A    between atoms: C_1  and  O_2
REMARK    2  A    between atoms: O_2  and  C_3
REMARK    3  A    between atoms: C_6  and  N_7
REMARK    4  A    between atoms: C_8  and  C_9
REMARK    5  A    between atoms: C_12  and  C_13
REMARK    6  A    between atoms: C_16  and  O_17
REMARK    7  A    between atoms: O_17  and  C_18
REMARK    8  A    between atoms: C_23  and  O_24
REMARK    9  A    between atoms: O_24  and  C_25
REMARK                            x       y       z     vdW  Elec       q    Type
REMARK                         _______ _______ _______ _____ _____    ______ ____
ROOT
ATOM      1  C   UNL     1      -8.637   3.125 131.878  0.00  0.00    +0.000 A 
ATOM      2  C   UNL     1      -9.048   2.675 130.624  0.00  0.00    +0.000 A 
ATOM      3  N   UNL     1      -9.897   3.364 129.811  0.00  0.00    +0.000 NA
ATOM      4  C   UNL     1     -10.455   4.456 130.378  0.00  0.00    +0.000 A 
ATOM      5  C   UNL     1     -10.064   4.907 131.640  0.00  0.00    +0.000 A 
ATOM      6  N   UNL     1      -9.129   4.273 132.404  0.00  0.00    +0.000 NA
ENDROOT
BRANCH   1  12
ATOM      7  N   UNL     1      -6.225   2.804 132.573  0.00  0.00    +0.000 N 
ATOM      8  C   UNL     1      -5.574   1.847 133.351  0.00  0.00    +0.000 A 
ATOM      9  C   UNL     1      -4.139   1.810 133.751  0.00  0.00    +0.000 C 
ATOM     10  N   UNL     1      -6.462   1.000 133.821  0.00  0.00    +0.000 NA
ATOM     11  N   UNL     1      -7.705   1.377 133.383  0.00  0.00    +0.000 NA
ATOM     12  C   UNL     1      -7.576   2.446 132.634  0.00  0.00    +0.000 A 
BRANCH   7  16
ATOM     13  C   UNL     1      -4.980   6.006 130.200  0.00  0.00    +0.000 A 
ATOM     14  C   UNL     1      -5.321   6.262 131.517  0.00  0.00    +0.000 A 
ATOM     15  C   UNL     1      -5.675   5.188 132.338  0.00  0.00    +0.000 A 
ATOM     16  C   UNL     1      -5.698   3.884 131.817  0.00  0.00    +0.000 A 
ATOM     17  C   UNL     1      -5.409   3.734 130.469  0.00  0.00    +0.000 A 
ATOM     18  N   UNL     1      -5.053   4.766 129.660  0.00  0.00    +0.000 NA
BRANCH  13  20
ATOM     19  C   UNL     1      -3.251   7.367 129.400  0.00  0.00    +0.000 C 
ATOM     20  O   UNL     1      -4.629   7.004 129.327  0.00  0.00    +0.000 OA
ENDBRANCH  13  20
ENDBRANCH   7  16
ENDBRANCH   1  12
BRANCH   4  21
ATOM     21  O   UNL     1     -11.636   4.987 129.871  0.00  0.00    +0.000 OA
BRANCH  21  22
ATOM     22  C   UNL     1     -11.774   6.353 129.708  0.00  0.00    +0.000 A 
ATOM     23  C   UNL     1     -12.623   6.930 130.677  0.00  0.00    +0.000 A 
ATOM     24  C   UNL     1     -13.037   8.263 130.597  0.00  0.00    +0.000 A 
ATOM     25  C   UNL     1     -12.558   9.069 129.577  0.00  0.00    +0.000 A 
ATOM     26  C   UNL     1     -11.721   8.517 128.610  0.00  0.00    +0.000 A 
ATOM     27  C   UNL     1     -11.357   7.153 128.624  0.00  0.00    +0.000 A 
BRANCH  27  28
ATOM     28  O   UNL     1     -10.691   6.851 127.465  0.00  0.00    +0.000 OA
ATOM     29  C   UNL     1     -10.957   7.582 126.296  0.00  0.00    +0.000 C 
ENDBRANCH  27  28
ENDBRANCH  21  22
ENDBRANCH   4  21
TORSDOF 6
ENDMDL
MODEL 9
REMARK VINA RESULT:      -7.6      3.707      4.998
REMARK  Name = CHEMBL549633
REMARK  9 active torsions:
REMARK  status: ('A' for Active; 'I' for Inactive)
REMARK    1  A    between atoms: C_1  and  O_2
REMARK    2  A    between atoms: O_2  and  C_3
REMARK    3  A    between atoms: C_6  and  N_7
REMARK    4  A    between atoms: C_8  and  C_9
REMARK    5  A    between atoms: C_12  and  C_13
REMARK    6  A    between atoms: C_16  and  O_17
REMARK    7  A    between atoms: O_17  and  C_18
REMARK    8  A    between atoms: C_23  and  O_24
REMARK    9  A    between atoms: O_24  and  C_25
REMARK                            x       y       z     vdW  Elec       q    Type
REMARK                         _______ _______ _______ _____ _____    ______ ____
ROOT
ATOM      1  C   UNL     1      -6.200   2.364 125.676  0.00  0.00    +0.000 A 
ATOM      2  C   UNL     1      -7.382   2.328 126.416  0.00  0.00    +0.000 A 
ATOM      3  N   UNL     1      -7.480   1.789 127.663  0.00  0.00    +0.000 NA
ATOM      4  C   UNL     1      -6.376   1.132 128.080  0.00  0.00    +0.000 A 
ATOM      5  C   UNL     1      -5.191   1.147 127.340  0.00  0.00    +0.000 A 
ATOM      6  N   UNL     1      -5.067   1.785 126.141  0.00  0.00    +0.000 NA
ENDROOT
BRANCH   1  12
ATOM      7  N   UNL     1      -6.705   2.735 123.224  0.00  0.00    +0.000 N 
ATOM      8  C   UNL     1      -6.264   3.670 122.289  0.00  0.00    +0.000 A 
ATOM      9  C   UNL     1      -6.698   3.828 120.872  0.00  0.00    +0.000 C 
ATOM     10  N   UNL     1      -5.462   4.526 122.883  0.00  0.00    +0.000 NA
ATOM     11  N   UNL     1      -5.365   4.191 124.208  0.00  0.00    +0.000 NA
ATOM     12  C   UNL     1      -6.096   3.122 124.423  0.00  0.00    +0.000 A 
BRANCH   7  16
ATOM     13  C   UNL     1      -9.105  -0.678 123.074  0.00  0.00    +0.000 A 
ATOM     14  C   UNL     1      -9.727   0.558 123.099  0.00  0.00    +0.000 A 
ATOM     15  C   UNL     1      -8.933   1.708 123.083  0.00  0.00    +0.000 A 
ATOM     16  C   UNL     1      -7.534   1.595 123.060  0.00  0.00    +0.000 A 
ATOM     17  C   UNL     1      -7.000   0.316 123.106  0.00  0.00    +0.000 A 
ATOM     18  N   UNL     1      -7.758  -0.813 123.112  0.00  0.00    +0.000 NA
BRANCH  13  20
ATOM     19  C   UNL     1      -9.188  -2.879 123.871  0.00  0.00    +0.000 C 
ATOM     20  O   UNL     1      -9.810  -1.854 123.096  0.00  0.00    +0.000 OA
ENDBRANCH  13  20
ENDBRANCH   7  16
ENDBRANCH   1  12
BRANCH   4  21
ATOM     21  O   UNL     1      -6.462   0.179 129.089  0.00  0.00    +0.000 OA
BRANCH  21  22
ATOM     22  C   UNL     1      -7.179  -0.986 128.889  0.00  0.00    +0.000 A 
ATOM     23  C   UNL     1      -7.557  -1.602 130.102  0.00  0.00    +0.000 A 
ATOM     24  C   UNL     1      -8.137  -2.874 130.134  0.00  0.00    +0.000 A 
ATOM     25  C   UNL     1      -8.411  -3.533 128.947  0.00  0.00    +0.000 A 
ATOM     26  C   UNL     1      -8.043  -2.941 127.740  0.00  0.00    +0.000 A 
ATOM     27  C   UNL     1      -7.381  -1.696 127.687  0.00  0.00    +0.000 A 
BRANCH  27  28
ATOM     28  O   UNL     1      -6.978  -1.453 126.401  0.00  0.00    +0.000 OA
ATOM     29  C   UNL     1      -5.928  -2.202 125.844  0.00  0.00    +0.000 C 
ENDBRANCH  27  28
ENDBRANCH  21  22
ENDBRANCH   4  21
TORSDOF 6
ENDMDL
