MODEL 1
REMARK VINA RESULT:     -11.3      0.000      0.000
REMARK  Name = CHEMBL281243
REMARK  8 active torsions:
REMARK  status: ('A' for Active; 'I' for Inactive)
REMARK    1  A    between atoms: C_1  and  O_2
REMARK    2  A    between atoms: O_2  and  C_3
REMARK    3  A    between atoms: N_7  and  C_8
REMARK    4  A    between atoms: C_8  and  C_9
REMARK    5  A    between atoms: N_11  and  C_12
REMARK    6  A    between atoms: C_12  and  C_13
REMARK    7  A    between atoms: C_17  and  C_18
REMARK    8  A    between atoms: C_23  and  N_24
REMARK                            x       y       z     vdW  Elec       q    Type
REMARK                         _______ _______ _______ _____ _____    ______ ____
ROOT
ATOM      1  C   UNL     1      -7.530   4.019 131.316  0.00  0.00    +0.000 A 
ATOM      2  C   UNL     1      -6.298   4.591 131.599  0.00  0.00    +0.000 A 
ATOM      3  C   UNL     1      -5.577   4.456 130.390  0.00  0.00    +0.000 A 
ATOM      4  C   UNL     1      -5.843   4.908 129.060  0.00  0.00    +0.000 A 
ATOM      5  C   UNL     1      -5.325   4.306 127.892  0.00  0.00    +0.000 A 
ATOM      6  C   UNL     1      -4.440   3.259 128.079  0.00  0.00    +0.000 A 
ATOM      7  C   UNL     1      -4.465   2.629 129.351  0.00  0.00    +0.000 A 
ATOM      8  C   UNL     1      -5.460   3.071 130.317  0.00  0.00    +0.000 A 
ATOM      9  O   UNL     1      -7.083   2.914 130.402  0.00  0.00    +0.000 OA
ENDROOT
BRANCH   5  10
ATOM     10  C   UNL     1      -5.855   4.634 126.519  0.00  0.00    +0.000 C 
ATOM     11  O   UNL     1      -5.628   5.749 126.048  0.00  0.00    +0.000 OA
ATOM     12  N   UNL     1      -6.453   3.589 125.779  0.00  0.00    +0.000 N 
ATOM     13  C   UNL     1      -5.925   3.171 124.476  0.00  0.00    +0.000 C 
ATOM     14  C   UNL     1      -7.012   2.999 123.423  0.00  0.00    +0.000 C 
ATOM     15  C   UNL     1      -7.927   1.549 123.802  0.00  0.00    +0.000 C 
ATOM     16  C   UNL     1      -8.563   2.436 125.247  0.00  0.00    +0.000 C 
ATOM     17  C   UNL     1      -7.519   2.741 126.302  0.00  0.00    +0.000 C 
BRANCH  15  18
ATOM     18  N   UNL     1      -7.139  -0.024 123.115  0.00  0.00    +0.000 N 
ATOM     19  C   UNL     1      -8.469  -0.512 123.322  0.00  0.00    +0.000 C 
ATOM     20  O   UNL     1      -9.539  -0.065 122.808  0.00  0.00    +0.000 OA
ATOM     21  O   UNL     1      -8.606  -1.379 124.311  0.00  0.00    +0.000 OA
ATOM     22  C   UNL     1      -8.357  -2.503 123.559  0.00  0.00    +0.000 C 
ATOM     23  C   UNL     1      -6.953  -2.600 123.935  0.00  0.00    +0.000 A 
ATOM     24  C   UNL     1      -6.064  -2.891 124.973  0.00  0.00    +0.000 A 
ATOM     25  C   UNL     1      -4.797  -3.528 124.729  0.00  0.00    +0.000 A 
ATOM     26  C   UNL     1      -4.596  -3.889 123.446  0.00  0.00    +0.000 A 
ATOM     27  C   UNL     1      -5.429  -2.962 122.575  0.00  0.00    +0.000 A 
ATOM     28  C   UNL     1      -6.312  -1.708 123.226  0.00  0.00    +0.000 A 
ENDBRANCH  15  18
ENDBRANCH   5  10
BRANCH   1  29
ATOM     29  C   UNL     1      -8.757   4.128 132.266  0.00  0.00    +0.000 C 
BRANCH  29  32
ATOM     30  C   UNL     1     -10.432   5.879 132.239  0.00  0.00    +0.000 C 
ATOM     31  O   UNL     1      -9.564   6.453 132.899  0.00  0.00    +0.000 OA
ATOM     32  N   UNL     1     -10.111   4.566 131.872  0.00  0.00    +0.000 N 
ATOM     33  H   UNL     1     -10.818   3.933 131.539  0.00  0.00    +0.000 HD
BRANCH  30  34
ATOM     34  C   UNL     1     -11.865   6.516 131.894  0.00  0.00    +0.000 C 
BRANCH  34  39
ATOM     35  C   UNL     1     -11.854   7.345 128.138  0.00  0.00    +0.000 A 
ATOM     36  C   UNL     1     -12.144   8.652 128.215  0.00  0.00    +0.000 A 
ATOM     37  C   UNL     1     -12.805   9.161 129.404  0.00  0.00    +0.000 A 
ATOM     38  C   UNL     1     -12.646   8.530 130.582  0.00  0.00    +0.000 A 
ATOM     39  N   UNL     1     -12.044   7.271 130.613  0.00  0.00    +0.000 N 
ATOM     40  C   UNL     1     -11.942   6.578 129.412  0.00  0.00    +0.000 A 
ATOM     41  O   UNL     1     -11.952   5.362 129.332  0.00  0.00    +0.000 OA
BRANCH  35  43
ATOM     42  C   UNL     1     -10.867   7.593 126.000  0.00  0.00    +0.000 C 
ATOM     43  O   UNL     1     -11.465   6.700 126.967  0.00  0.00    +0.000 OA
ENDBRANCH  35  43
ENDBRANCH  34  39
ENDBRANCH  30  34
ENDBRANCH  29  32
ENDBRANCH   1  29
TORSDOF 7
ENDMDL
MODEL 2
REMARK VINA RESULT:     -10.9      4.094      7.869
REMARK  Name = CHEMBL281243
REMARK  8 active torsions:
REMARK  status: ('A' for Active; 'I' for Inactive)
REMARK    1  A    between atoms: C_1  and  O_2
REMARK    2  A    between atoms: O_2  and  C_3
REMARK    3  A    between atoms: N_7  and  C_8
REMARK    4  A    between atoms: C_8  and  C_9
REMARK    5  A    between atoms: N_11  and  C_12
REMARK    6  A    between atoms: C_12  and  C_13
REMARK    7  A    between atoms: C_17  and  C_18
REMARK    8  A    between atoms: C_23  and  N_24
REMARK                            x       y       z     vdW  Elec       q    Type
REMARK                         _______ _______ _______ _____ _____    ______ ____
ROOT
ATOM      1  C   UNL     1      -5.513   4.819 126.182  0.00  0.00    +0.000 A 
ATOM      2  C   UNL     1      -4.403   4.000 126.025  0.00  0.00    +0.000 A 
ATOM      3  C   UNL     1      -3.873   3.894 127.332  0.00  0.00    +0.000 A 
ATOM      4  C   UNL     1      -4.439   3.434 128.561  0.00  0.00    +0.000 A 
ATOM      5  C   UNL     1      -3.998   3.831 129.843  0.00  0.00    +0.000 A 
ATOM      6  C   UNL     1      -2.890   4.659 129.884  0.00  0.00    +0.000 A 
ATOM      7  C   UNL     1      -2.575   5.355 128.687  0.00  0.00    +0.000 A 
ATOM      8  C   UNL     1      -3.474   5.209 127.551  0.00  0.00    +0.000 A 
ATOM      9  O   UNL     1      -4.991   5.736 127.251  0.00  0.00    +0.000 OA
ENDROOT
BRANCH   5  10
ATOM     10  C   UNL     1      -4.798   3.549 131.089  0.00  0.00    +0.000 C 
ATOM     11  O   UNL     1      -5.256   4.499 131.725  0.00  0.00    +0.000 OA
ATOM     12  N   UNL     1      -5.114   2.202 131.376  0.00  0.00    +0.000 N 
ATOM     13  C   UNL     1      -6.504   1.744 131.480  0.00  0.00    +0.000 C 
ATOM     14  C   UNL     1      -6.750   0.868 132.702  0.00  0.00    +0.000 C 
ATOM     15  C   UNL     1      -5.990  -0.692 132.428  0.00  0.00    +0.000 C 
ATOM     16  C   UNL     1      -4.398   0.162 132.556  0.00  0.00    +0.000 C 
ATOM     17  C   UNL     1      -4.119   1.136 131.430  0.00  0.00    +0.000 C 
BRANCH  15  18
ATOM     18  N   UNL     1      -7.085  -1.888 131.460  0.00  0.00    +0.000 N 
ATOM     19  C   UNL     1      -5.951  -2.738 131.666  0.00  0.00    +0.000 C 
ATOM     20  O   UNL     1      -5.450  -3.095 132.775  0.00  0.00    +0.000 OA
ATOM     21  O   UNL     1      -5.236  -2.998 130.583  0.00  0.00    +0.000 OA
ATOM     22  C   UNL     1      -5.947  -4.112 130.200  0.00  0.00    +0.000 C 
ATOM     23  C   UNL     1      -6.781  -3.407 129.236  0.00  0.00    +0.000 A 
ATOM     24  C   UNL     1      -6.800  -2.760 127.998  0.00  0.00    +0.000 A 
ATOM     25  C   UNL     1      -7.946  -2.822 127.129  0.00  0.00    +0.000 A 
ATOM     26  C   UNL     1      -8.937  -3.618 127.576  0.00  0.00    +0.000 A 
ATOM     27  C   UNL     1      -8.832  -3.672 129.092  0.00  0.00    +0.000 A 
ATOM     28  C   UNL     1      -7.699  -2.778 129.924  0.00  0.00    +0.000 A 
ENDBRANCH  15  18
ENDBRANCH   5  10
BRANCH   1  29
ATOM     29  C   UNL     1      -6.566   5.049 125.061  0.00  0.00    +0.000 C 
BRANCH  29  32
ATOM     30  C   UNL     1      -8.263   3.557 124.186  0.00  0.00    +0.000 C 
ATOM     31  O   UNL     1      -8.860   3.963 125.185  0.00  0.00    +0.000 OA
ATOM     32  N   UNL     1      -6.964   4.057 124.041  0.00  0.00    +0.000 N 
ATOM     33  H   UNL     1      -6.311   3.630 123.407  0.00  0.00    +0.000 HD
BRANCH  30  34
ATOM     34  C   UNL     1      -8.857   2.466 123.168  0.00  0.00    +0.000 C 
BRANCH  34  39
ATOM     35  C   UNL     1      -9.001  -1.374 123.339  0.00  0.00    +0.000 A 
ATOM     36  C   UNL     1      -7.727  -1.612 123.685  0.00  0.00    +0.000 A 
ATOM     37  C   UNL     1      -6.717  -0.607 123.400  0.00  0.00    +0.000 A 
ATOM     38  C   UNL     1      -7.066   0.690 123.321  0.00  0.00    +0.000 A 
ATOM     39  N   UNL     1      -8.417   1.040 123.280  0.00  0.00    +0.000 N 
ATOM     40  C   UNL     1      -9.331   0.035 122.983  0.00  0.00    +0.000 A 
ATOM     41  O   UNL     1     -10.390   0.234 122.413  0.00  0.00    +0.000 OA
BRANCH  35  43
ATOM     42  C   UNL     1      -9.526  -3.650 123.725  0.00  0.00    +0.000 C 
ATOM     43  O   UNL     1      -9.999  -2.344 123.320  0.00  0.00    +0.000 OA
ENDBRANCH  35  43
ENDBRANCH  34  39
ENDBRANCH  30  34
ENDBRANCH  29  32
ENDBRANCH   1  29
TORSDOF 7
ENDMDL
MODEL 3
REMARK VINA RESULT:     -10.6      2.111      9.318
REMARK  Name = CHEMBL281243
REMARK  8 active torsions:
REMARK  status: ('A' for Active; 'I' for Inactive)
REMARK    1  A    between atoms: C_1  and  O_2
REMARK    2  A    between atoms: O_2  and  C_3
REMARK    3  A    between atoms: N_7  and  C_8
REMARK    4  A    between atoms: C_8  and  C_9
REMARK    5  A    between atoms: N_11  and  C_12
REMARK    6  A    between atoms: C_12  and  C_13
REMARK    7  A    between atoms: C_17  and  C_18
REMARK    8  A    between atoms: C_23  and  N_24
REMARK                            x       y       z     vdW  Elec       q    Type
REMARK                         _______ _______ _______ _____ _____    ______ ____
ROOT
ATOM      1  C   UNL     1      -5.121   4.767 126.294  0.00  0.00    +0.000 A 
ATOM      2  C   UNL     1      -3.982   3.981 126.396  0.00  0.00    +0.000 A 
ATOM      3  C   UNL     1      -3.482   4.276 127.685  0.00  0.00    +0.000 A 
ATOM      4  C   UNL     1      -4.063   4.167 128.987  0.00  0.00    +0.000 A 
ATOM      5  C   UNL     1      -3.667   4.931 130.106  0.00  0.00    +0.000 A 
ATOM      6  C   UNL     1      -2.588   5.778 129.923  0.00  0.00    +0.000 A 
ATOM      7  C   UNL     1      -2.267   6.113 128.582  0.00  0.00    +0.000 A 
ATOM      8  C   UNL     1      -3.131   5.612 127.523  0.00  0.00    +0.000 A 
ATOM      9  O   UNL     1      -4.656   5.972 127.062  0.00  0.00    +0.000 OA
ENDROOT
BRANCH   5  10
ATOM     10  C   UNL     1      -4.489   4.988 131.369  0.00  0.00    +0.000 C 
ATOM     11  O   UNL     1      -3.906   5.052 132.452  0.00  0.00    +0.000 OA
ATOM     12  N   UNL     1      -5.889   5.123 131.235  0.00  0.00    +0.000 N 
ATOM     13  C   UNL     1      -6.609   6.269 131.801  0.00  0.00    +0.000 C 
ATOM     14  C   UNL     1      -7.868   5.865 132.556  0.00  0.00    +0.000 C 
ATOM     15  C   UNL     1      -9.078   5.360 131.386  0.00  0.00    +0.000 C 
ATOM     16  C   UNL     1      -8.031   3.919 131.060  0.00  0.00    +0.000 C 
ATOM     17  C   UNL     1      -6.706   4.246 130.402  0.00  0.00    +0.000 C 
BRANCH  15  18
ATOM     18  N   UNL     1     -10.071   6.803 130.681  0.00  0.00    +0.000 N 
ATOM     19  C   UNL     1     -10.876   6.517 131.831  0.00  0.00    +0.000 C 
ATOM     20  O   UNL     1     -10.512   6.534 133.046  0.00  0.00    +0.000 OA
ATOM     21  O   UNL     1     -12.056   5.978 131.574  0.00  0.00    +0.000 OA
ATOM     22  C   UNL     1     -12.737   7.167 131.447  0.00  0.00    +0.000 C 
ATOM     23  C   UNL     1     -12.662   7.203 129.993  0.00  0.00    +0.000 A 
ATOM     24  C   UNL     1     -13.118   6.619 128.809  0.00  0.00    +0.000 A 
ATOM     25  C   UNL     1     -13.329   7.393 127.614  0.00  0.00    +0.000 A 
ATOM     26  C   UNL     1     -13.134   8.717 127.771  0.00  0.00    +0.000 A 
ATOM     27  C   UNL     1     -12.153   8.901 128.917  0.00  0.00    +0.000 A 
ATOM     28  C   UNL     1     -11.454   7.601 129.690  0.00  0.00    +0.000 A 
ENDBRANCH  15  18
ENDBRANCH   5  10
BRANCH   1  29
ATOM     29  C   UNL     1      -6.153   4.625 125.139  0.00  0.00    +0.000 C 
BRANCH  29  32
ATOM     30  C   UNL     1      -8.227   3.391 124.920  0.00  0.00    +0.000 C 
ATOM     31  O   UNL     1      -8.667   4.419 125.438  0.00  0.00    +0.000 OA
ATOM     32  N   UNL     1      -6.837   3.375 124.749  0.00  0.00    +0.000 N 
ATOM     33  H   UNL     1      -6.348   2.518 124.556  0.00  0.00    +0.000 HD
BRANCH  30  34
ATOM     34  C   UNL     1      -9.128   2.114 124.552  0.00  0.00    +0.000 C 
BRANCH  34  39
ATOM     35  C   UNL     1      -8.316  -1.635 124.836  0.00  0.00    +0.000 A 
ATOM     36  C   UNL     1      -8.380  -1.758 126.171  0.00  0.00    +0.000 A 
ATOM     37  C   UNL     1      -8.209  -0.577 126.999  0.00  0.00    +0.000 A 
ATOM     38  C   UNL     1      -8.527   0.636 126.511  0.00  0.00    +0.000 A 
ATOM     39  N   UNL     1      -8.794   0.782 125.149  0.00  0.00    +0.000 N 
ATOM     40  C   UNL     1      -8.396  -0.247 124.303  0.00  0.00    +0.000 A 
ATOM     41  O   UNL     1      -8.073  -0.076 123.139  0.00  0.00    +0.000 OA
BRANCH  35  43
ATOM     42  C   UNL     1      -9.486  -3.218 123.522  0.00  0.00    +0.000 C 
ATOM     43  O   UNL     1      -8.204  -2.709 123.958  0.00  0.00    +0.000 OA
ENDBRANCH  35  43
ENDBRANCH  34  39
ENDBRANCH  30  34
ENDBRANCH  29  32
ENDBRANCH   1  29
TORSDOF 7
ENDMDL
MODEL 4
REMARK VINA RESULT:     -10.6      1.645      2.320
REMARK  Name = CHEMBL281243
REMARK  8 active torsions:
REMARK  status: ('A' for Active; 'I' for Inactive)
REMARK    1  A    between atoms: C_1  and  O_2
REMARK    2  A    between atoms: O_2  and  C_3
REMARK    3  A    between atoms: N_7  and  C_8
REMARK    4  A    between atoms: C_8  and  C_9
REMARK    5  A    between atoms: N_11  and  C_12
REMARK    6  A    between atoms: C_12  and  C_13
REMARK    7  A    between atoms: C_17  and  C_18
REMARK    8  A    between atoms: C_23  and  N_24
REMARK                            x       y       z     vdW  Elec       q    Type
REMARK                         _______ _______ _______ _____ _____    ______ ____
ROOT
ATOM      1  C   UNL     1      -4.436   5.338 130.644  0.00  0.00    +0.000 A 
ATOM      2  C   UNL     1      -3.329   5.997 130.129  0.00  0.00    +0.000 A 
ATOM      3  C   UNL     1      -3.320   5.627 128.763  0.00  0.00    +0.000 A 
ATOM      4  C   UNL     1      -4.292   5.773 127.725  0.00  0.00    +0.000 A 
ATOM      5  C   UNL     1      -4.368   4.950 126.580  0.00  0.00    +0.000 A 
ATOM      6  C   UNL     1      -3.375   3.997 126.439  0.00  0.00    +0.000 A 
ATOM      7  C   UNL     1      -2.654   3.656 127.613  0.00  0.00    +0.000 A 
ATOM      8  C   UNL     1      -3.062   4.264 128.871  0.00  0.00    +0.000 A 
ATOM      9  O   UNL     1      -4.371   4.077 129.831  0.00  0.00    +0.000 OA
ENDROOT
BRANCH   5  10
ATOM     10  C   UNL     1      -5.568   4.956 125.667  0.00  0.00    +0.000 C 
ATOM     11  O   UNL     1      -5.880   6.008 125.108  0.00  0.00    +0.000 OA
ATOM     12  N   UNL     1      -6.180   3.716 125.378  0.00  0.00    +0.000 N 
ATOM     13  C   UNL     1      -6.282   3.210 124.005  0.00  0.00    +0.000 C 
ATOM     14  C   UNL     1      -7.668   2.676 123.670  0.00  0.00    +0.000 C 
ATOM     15  C   UNL     1      -7.895   1.153 124.517  0.00  0.00    +0.000 C 
ATOM     16  C   UNL     1      -7.927   2.114 126.051  0.00  0.00    +0.000 C 
ATOM     17  C   UNL     1      -6.608   2.771 126.405  0.00  0.00    +0.000 C 
BRANCH  15  18
ATOM     18  N   UNL     1      -7.195  -0.327 123.577  0.00  0.00    +0.000 N 
ATOM     19  C   UNL     1      -8.456  -0.884 123.965  0.00  0.00    +0.000 C 
ATOM     20  O   UNL     1      -9.610  -0.442 123.680  0.00  0.00    +0.000 OA
ATOM     21  O   UNL     1      -8.396  -1.830 124.887  0.00  0.00    +0.000 OA
ATOM     22  C   UNL     1      -8.251  -2.881 124.011  0.00  0.00    +0.000 C 
ATOM     23  C   UNL     1      -6.801  -2.950 124.133  0.00  0.00    +0.000 A 
ATOM     24  C   UNL     1      -5.739  -3.285 124.977  0.00  0.00    +0.000 A 
ATOM     25  C   UNL     1      -4.516  -3.849 124.468  0.00  0.00    +0.000 A 
ATOM     26  C   UNL     1      -4.531  -4.100 123.144  0.00  0.00    +0.000 A 
ATOM     27  C   UNL     1      -5.526  -3.142 122.509  0.00  0.00    +0.000 A 
ATOM     28  C   UNL     1      -6.317  -1.979 123.403  0.00  0.00    +0.000 A 
ENDBRANCH  15  18
ENDBRANCH   5  10
BRANCH   1  29
ATOM     29  C   UNL     1      -5.002   5.610 132.067  0.00  0.00    +0.000 C 
BRANCH  29  32
ATOM     30  C   UNL     1      -7.407   5.457 132.319  0.00  0.00    +0.000 C 
ATOM     31  O   UNL     1      -7.176   4.299 131.964  0.00  0.00    +0.000 OA
ATOM     32  N   UNL     1      -6.280   6.286 132.367  0.00  0.00    +0.000 N 
ATOM     33  H   UNL     1      -6.374   7.286 132.417  0.00  0.00    +0.000 HD
BRANCH  30  34
ATOM     34  C   UNL     1      -8.879   6.028 132.614  0.00  0.00    +0.000 C 
BRANCH  34  39
ATOM     35  C   UNL     1     -10.610   7.371 129.453  0.00  0.00    +0.000 A 
ATOM     36  C   UNL     1     -11.717   6.613 129.488  0.00  0.00    +0.000 A 
ATOM     37  C   UNL     1     -11.696   5.363 130.226  0.00  0.00    +0.000 A 
ATOM     38  C   UNL     1     -10.856   5.213 131.267  0.00  0.00    +0.000 A 
ATOM     39  N   UNL     1      -9.854   6.160 131.486  0.00  0.00    +0.000 N 
ATOM     40  C   UNL     1      -9.550   7.026 130.441  0.00  0.00    +0.000 A 
ATOM     41  O   UNL     1      -8.443   7.505 130.262  0.00  0.00    +0.000 OA
BRANCH  35  43
ATOM     42  C   UNL     1     -10.849   8.150 127.230  0.00  0.00    +0.000 C 
ATOM     43  O   UNL     1     -10.424   8.440 128.582  0.00  0.00    +0.000 OA
ENDBRANCH  35  43
ENDBRANCH  34  39
ENDBRANCH  30  34
ENDBRANCH  29  32
ENDBRANCH   1  29
TORSDOF 7
ENDMDL
MODEL 5
REMARK VINA RESULT:     -10.5      2.991     10.015
REMARK  Name = CHEMBL281243
REMARK  8 active torsions:
REMARK  status: ('A' for Active; 'I' for Inactive)
REMARK    1  A    between atoms: C_1  and  O_2
REMARK    2  A    between atoms: O_2  and  C_3
REMARK    3  A    between atoms: N_7  and  C_8
REMARK    4  A    between atoms: C_8  and  C_9
REMARK    5  A    between atoms: N_11  and  C_12
REMARK    6  A    between atoms: C_12  and  C_13
REMARK    7  A    between atoms: C_17  and  C_18
REMARK    8  A    between atoms: C_23  and  N_24
REMARK                            x       y       z     vdW  Elec       q    Type
REMARK                         _______ _______ _______ _____ _____    ______ ____
ROOT
ATOM      1  C   UNL     1      -4.192   2.931 126.827  0.00  0.00    +0.000 A 
ATOM      2  C   UNL     1      -2.818   3.009 127.004  0.00  0.00    +0.000 A 
ATOM      3  C   UNL     1      -2.662   3.986 128.015  0.00  0.00    +0.000 A 
ATOM      4  C   UNL     1      -3.162   4.070 129.351  0.00  0.00    +0.000 A 
ATOM      5  C   UNL     1      -3.348   5.277 130.061  0.00  0.00    +0.000 A 
ATOM      6  C   UNL     1      -2.936   6.436 129.425  0.00  0.00    +0.000 A 
ATOM      7  C   UNL     1      -2.775   6.361 128.017  0.00  0.00    +0.000 A 
ATOM      8  C   UNL     1      -3.127   5.116 127.349  0.00  0.00    +0.000 A 
ATOM      9  O   UNL     1      -4.550   4.372 127.049  0.00  0.00    +0.000 OA
ENDROOT
BRANCH   5  10
ATOM     10  C   UNL     1      -4.138   5.339 131.343  0.00  0.00    +0.000 C 
ATOM     11  O   UNL     1      -3.530   5.473 132.406  0.00  0.00    +0.000 OA
ATOM     12  N   UNL     1      -5.546   5.396 131.246  0.00  0.00    +0.000 N 
ATOM     13  C   UNL     1      -6.309   6.524 131.791  0.00  0.00    +0.000 C 
ATOM     14  C   UNL     1      -7.525   6.084 132.596  0.00  0.00    +0.000 C 
ATOM     15  C   UNL     1      -8.738   5.475 131.481  0.00  0.00    +0.000 C 
ATOM     16  C   UNL     1      -7.627   4.079 131.175  0.00  0.00    +0.000 C 
ATOM     17  C   UNL     1      -6.339   4.448 130.468  0.00  0.00    +0.000 C 
BRANCH  15  18
ATOM     18  N   UNL     1      -9.824   6.838 130.754  0.00  0.00    +0.000 N 
ATOM     19  C   UNL     1     -10.635   6.481 131.879  0.00  0.00    +0.000 C 
ATOM     20  O   UNL     1     -10.308   6.519 133.104  0.00  0.00    +0.000 OA
ATOM     21  O   UNL     1     -11.761   5.851 131.587  0.00  0.00    +0.000 OA
ATOM     22  C   UNL     1     -12.531   6.981 131.445  0.00  0.00    +0.000 C 
ATOM     23  C   UNL     1     -12.418   7.033 129.994  0.00  0.00    +0.000 A 
ATOM     24  C   UNL     1     -12.793   6.421 128.795  0.00  0.00    +0.000 A 
ATOM     25  C   UNL     1     -13.032   7.184 127.598  0.00  0.00    +0.000 A 
ATOM     26  C   UNL     1     -12.949   8.518 127.766  0.00  0.00    +0.000 A 
ATOM     27  C   UNL     1     -12.018   8.774 128.941  0.00  0.00    +0.000 A 
ATOM     28  C   UNL     1     -11.238   7.529 129.727  0.00  0.00    +0.000 A 
ENDBRANCH  15  18
ENDBRANCH   5  10
BRANCH   1  29
ATOM     29  C   UNL     1      -4.879   1.825 125.976  0.00  0.00    +0.000 C 
BRANCH  29  32
ATOM     30  C   UNL     1      -5.841  -0.372 125.626  0.00  0.00    +0.000 C 
ATOM     31  O   UNL     1      -6.649   0.298 124.980  0.00  0.00    +0.000 OA
ATOM     32  N   UNL     1      -4.842   0.375 126.261  0.00  0.00    +0.000 N 
ATOM     33  H   UNL     1      -4.276  -0.027 126.988  0.00  0.00    +0.000 HD
BRANCH  30  34
ATOM     34  C   UNL     1      -5.952  -1.961 125.829  0.00  0.00    +0.000 C 
BRANCH  34  39
ATOM     35  C   UNL     1      -6.414  -3.193 129.443  0.00  0.00    +0.000 A 
ATOM     36  C   UNL     1      -7.660  -3.679 129.337  0.00  0.00    +0.000 A 
ATOM     37  C   UNL     1      -8.520  -3.193 128.271  0.00  0.00    +0.000 A 
ATOM     38  C   UNL     1      -7.978  -2.729 127.131  0.00  0.00    +0.000 A 
ATOM     39  N   UNL     1      -6.602  -2.499 127.065  0.00  0.00    +0.000 N 
ATOM     40  C   UNL     1      -5.905  -2.434 128.267  0.00  0.00    +0.000 A 
ATOM     41  O   UNL     1      -4.902  -1.760 128.429  0.00  0.00    +0.000 OA
BRANCH  35  43
ATOM     42  C   UNL     1      -5.416  -4.772 130.897  0.00  0.00    +0.000 C 
ATOM     43  O   UNL     1      -5.597  -3.379 130.554  0.00  0.00    +0.000 OA
ENDBRANCH  35  43
ENDBRANCH  34  39
ENDBRANCH  30  34
ENDBRANCH  29  32
ENDBRANCH   1  29
TORSDOF 7
ENDMDL
MODEL 6
REMARK VINA RESULT:     -10.5      3.940      8.380
REMARK  Name = CHEMBL281243
REMARK  8 active torsions:
REMARK  status: ('A' for Active; 'I' for Inactive)
REMARK    1  A    between atoms: C_1  and  O_2
REMARK    2  A    between atoms: O_2  and  C_3
REMARK    3  A    between atoms: N_7  and  C_8
REMARK    4  A    between atoms: C_8  and  C_9
REMARK    5  A    between atoms: N_11  and  C_12
REMARK    6  A    between atoms: C_12  and  C_13
REMARK    7  A    between atoms: C_17  and  C_18
REMARK    8  A    between atoms: C_23  and  N_24
REMARK                            x       y       z     vdW  Elec       q    Type
REMARK                         _______ _______ _______ _____ _____    ______ ____
ROOT
ATOM      1  C   UNL     1      -8.187  -2.283 127.225  0.00  0.00    +0.000 A 
ATOM      2  C   UNL     1      -8.731  -3.432 127.783  0.00  0.00    +0.000 A 
ATOM      3  C   UNL     1      -8.249  -3.421 129.113  0.00  0.00    +0.000 A 
ATOM      4  C   UNL     1      -8.369  -2.465 130.168  0.00  0.00    +0.000 A 
ATOM      5  C   UNL     1      -7.461  -2.341 131.243  0.00  0.00    +0.000 A 
ATOM      6  C   UNL     1      -6.438  -3.272 131.296  0.00  0.00    +0.000 A 
ATOM      7  C   UNL     1      -6.151  -3.965 130.091  0.00  0.00    +0.000 A 
ATOM      8  C   UNL     1      -6.886  -3.592 128.891  0.00  0.00    +0.000 A 
ATOM      9  O   UNL     1      -6.862  -2.271 127.931  0.00  0.00    +0.000 OA
ENDROOT
BRANCH   5  10
ATOM     10  C   UNL     1      -7.467  -1.147 132.163  0.00  0.00    +0.000 C 
ATOM     11  O   UNL     1      -7.507  -1.338 133.379  0.00  0.00    +0.000 OA
ATOM     12  N   UNL     1      -7.269   0.128 131.587  0.00  0.00    +0.000 N 
ATOM     13  C   UNL     1      -6.143   0.982 131.977  0.00  0.00    +0.000 C 
ATOM     14  C   UNL     1      -6.553   2.425 132.238  0.00  0.00    +0.000 C 
ATOM     15  C   UNL     1      -6.922   3.184 130.697  0.00  0.00    +0.000 C 
ATOM     16  C   UNL     1      -8.374   2.104 130.615  0.00  0.00    +0.000 C 
ATOM     17  C   UNL     1      -8.049   0.632 130.461  0.00  0.00    +0.000 C 
BRANCH  15  18
ATOM     18  N   UNL     1      -5.394   3.870 129.827  0.00  0.00    +0.000 N 
ATOM     19  C   UNL     1      -6.406   4.497 129.030  0.00  0.00    +0.000 C 
ATOM     20  O   UNL     1      -7.315   5.286 129.427  0.00  0.00    +0.000 OA
ATOM     21  O   UNL     1      -6.523   4.032 127.797  0.00  0.00    +0.000 OA
ATOM     22  C   UNL     1      -5.608   4.888 127.229  0.00  0.00    +0.000 C 
ATOM     23  C   UNL     1      -4.503   3.938 127.268  0.00  0.00    +0.000 A 
ATOM     24  C   UNL     1      -3.991   2.758 126.725  0.00  0.00    +0.000 A 
ATOM     25  C   UNL     1      -2.576   2.553 126.556  0.00  0.00    +0.000 A 
ATOM     26  C   UNL     1      -1.820   3.621 126.881  0.00  0.00    +0.000 A 
ATOM     27  C   UNL     1      -2.593   4.434 127.906  0.00  0.00    +0.000 A 
ATOM     28  C   UNL     1      -4.065   3.924 128.500  0.00  0.00    +0.000 A 
ENDBRANCH  15  18
ENDBRANCH   5  10
BRANCH   1  29
ATOM     29  C   UNL     1      -8.612  -1.731 125.834  0.00  0.00    +0.000 C 
BRANCH  29  32
ATOM     30  C   UNL     1      -8.397   0.255 124.462  0.00  0.00    +0.000 C 
ATOM     31  O   UNL     1      -7.524  -0.439 123.936  0.00  0.00    +0.000 OA
ATOM     32  N   UNL     1      -9.035  -0.343 125.555  0.00  0.00    +0.000 N 
ATOM     33  H   UNL     1      -9.590   0.201 126.194  0.00  0.00    +0.000 HD
BRANCH  30  34
ATOM     34  C   UNL     1      -8.734   1.762 124.020  0.00  0.00    +0.000 C 
BRANCH  34  39
ATOM     35  C   UNL     1      -6.705   3.716 121.400  0.00  0.00    +0.000 A 
ATOM     36  C   UNL     1      -5.616   3.978 122.137  0.00  0.00    +0.000 A 
ATOM     37  C   UNL     1      -5.720   3.955 123.586  0.00  0.00    +0.000 A 
ATOM     38  C   UNL     1      -6.653   3.187 124.179  0.00  0.00    +0.000 A 
ATOM     39  N   UNL     1      -7.658   2.603 123.406  0.00  0.00    +0.000 N 
ATOM     40  C   UNL     1      -7.855   3.106 122.124  0.00  0.00    +0.000 A 
ATOM     41  O   UNL     1      -8.935   3.105 121.558  0.00  0.00    +0.000 OA
BRANCH  35  43
ATOM     42  C   UNL     1      -5.885   4.982 119.575  0.00  0.00    +0.000 C 
ATOM     43  O   UNL     1      -6.799   3.958 120.032  0.00  0.00    +0.000 OA
ENDBRANCH  35  43
ENDBRANCH  34  39
ENDBRANCH  30  34
ENDBRANCH  29  32
ENDBRANCH   1  29
TORSDOF 7
ENDMDL
MODEL 7
REMARK VINA RESULT:     -10.4      2.680      9.522
REMARK  Name = CHEMBL281243
REMARK  8 active torsions:
REMARK  status: ('A' for Active; 'I' for Inactive)
REMARK    1  A    between atoms: C_1  and  O_2
REMARK    2  A    between atoms: O_2  and  C_3
REMARK    3  A    between atoms: N_7  and  C_8
REMARK    4  A    between atoms: C_8  and  C_9
REMARK    5  A    between atoms: N_11  and  C_12
REMARK    6  A    between atoms: C_12  and  C_13
REMARK    7  A    between atoms: C_17  and  C_18
REMARK    8  A    between atoms: C_23  and  N_24
REMARK                            x       y       z     vdW  Elec       q    Type
REMARK                         _______ _______ _______ _____ _____    ______ ____
ROOT
ATOM      1  C   UNL     1      -4.119   3.652 127.158  0.00  0.00    +0.000 A 
ATOM      2  C   UNL     1      -2.813   4.113 127.066  0.00  0.00    +0.000 A 
ATOM      3  C   UNL     1      -2.691   5.002 128.158  0.00  0.00    +0.000 A 
ATOM      4  C   UNL     1      -2.869   4.823 129.565  0.00  0.00    +0.000 A 
ATOM      5  C   UNL     1      -3.198   5.857 130.469  0.00  0.00    +0.000 A 
ATOM      6  C   UNL     1      -3.270   7.135 129.942  0.00  0.00    +0.000 A 
ATOM      7  C   UNL     1      -3.428   7.232 128.535  0.00  0.00    +0.000 A 
ATOM      8  C   UNL     1      -3.582   6.000 127.774  0.00  0.00    +0.000 A 
ATOM      9  O   UNL     1      -4.785   4.901 127.658  0.00  0.00    +0.000 OA
ENDROOT
BRANCH   5  10
ATOM     10  C   UNL     1      -3.653   5.575 131.878  0.00  0.00    +0.000 C 
ATOM     11  O   UNL     1      -2.920   5.899 132.812  0.00  0.00    +0.000 OA
ATOM     12  N   UNL     1      -4.970   5.094 132.059  0.00  0.00    +0.000 N 
ATOM     13  C   UNL     1      -5.953   5.828 132.862  0.00  0.00    +0.000 C 
ATOM     14  C   UNL     1      -6.715   4.935 133.832  0.00  0.00    +0.000 C 
ATOM     15  C   UNL     1      -7.833   3.942 132.910  0.00  0.00    +0.000 C 
ATOM     16  C   UNL     1      -6.383   3.084 132.245  0.00  0.00    +0.000 C 
ATOM     17  C   UNL     1      -5.509   3.938 131.349  0.00  0.00    +0.000 C 
BRANCH  15  18
ATOM     18  N   UNL     1      -9.474   4.808 132.559  0.00  0.00    +0.000 N 
ATOM     19  C   UNL     1      -9.709   3.586 131.850  0.00  0.00    +0.000 C 
ATOM     20  O   UNL     1      -9.703   2.410 132.325  0.00  0.00    +0.000 OA
ATOM     21  O   UNL     1      -9.723   3.691 130.532  0.00  0.00    +0.000 OA
ATOM     22  C   UNL     1     -11.066   3.965 130.419  0.00  0.00    +0.000 C 
ATOM     23  C   UNL     1     -10.896   5.409 130.332  0.00  0.00    +0.000 A 
ATOM     24  C   UNL     1     -10.442   6.461 129.533  0.00  0.00    +0.000 A 
ATOM     25  C   UNL     1     -11.085   7.748 129.539  0.00  0.00    +0.000 A 
ATOM     26  C   UNL     1     -12.194   7.810 130.301  0.00  0.00    +0.000 A 
ATOM     27  C   UNL     1     -12.057   6.761 131.393  0.00  0.00    +0.000 A 
ATOM     28  C   UNL     1     -10.681   5.834 131.550  0.00  0.00    +0.000 A 
ENDBRANCH  15  18
ENDBRANCH   5  10
BRANCH   1  29
ATOM     29  C   UNL     1      -4.666   2.471 126.306  0.00  0.00    +0.000 C 
BRANCH  29  32
ATOM     30  C   UNL     1      -5.607   0.408 127.163  0.00  0.00    +0.000 C 
ATOM     31  O   UNL     1      -6.559   1.160 127.379  0.00  0.00    +0.000 OA
ATOM     32  N   UNL     1      -4.484   1.037 126.611  0.00  0.00    +0.000 N 
ATOM     33  H   UNL     1      -3.586   0.584 126.606  0.00  0.00    +0.000 HD
BRANCH  30  34
ATOM     34  C   UNL     1      -5.583  -1.147 127.560  0.00  0.00    +0.000 C 
BRANCH  34  39
ATOM     35  C   UNL     1      -7.996  -3.223 125.400  0.00  0.00    +0.000 A 
ATOM     36  C   UNL     1      -8.943  -3.462 126.321  0.00  0.00    +0.000 A 
ATOM     37  C   UNL     1      -8.596  -3.377 127.730  0.00  0.00    +0.000 A 
ATOM     38  C   UNL     1      -7.588  -2.579 128.125  0.00  0.00    +0.000 A 
ATOM     39  N   UNL     1      -6.735  -2.022 127.171  0.00  0.00    +0.000 N 
ATOM     40  C   UNL     1      -6.750  -2.576 125.896  0.00  0.00    +0.000 A 
ATOM     41  O   UNL     1      -5.780  -2.592 125.156  0.00  0.00    +0.000 OA
BRANCH  35  43
ATOM     42  C   UNL     1      -9.258  -2.856 123.431  0.00  0.00    +0.000 C 
ATOM     43  O   UNL     1      -8.131  -3.522 124.048  0.00  0.00    +0.000 OA
ENDBRANCH  35  43
ENDBRANCH  34  39
ENDBRANCH  30  34
ENDBRANCH  29  32
ENDBRANCH   1  29
TORSDOF 7
ENDMDL
MODEL 8
REMARK VINA RESULT:     -10.3      2.330      9.319
REMARK  Name = CHEMBL281243
REMARK  8 active torsions:
REMARK  status: ('A' for Active; 'I' for Inactive)
REMARK    1  A    between atoms: C_1  and  O_2
REMARK    2  A    between atoms: O_2  and  C_3
REMARK    3  A    between atoms: N_7  and  C_8
REMARK    4  A    between atoms: C_8  and  C_9
REMARK    5  A    between atoms: N_11  and  C_12
REMARK    6  A    between atoms: C_12  and  C_13
REMARK    7  A    between atoms: C_17  and  C_18
REMARK    8  A    between atoms: C_23  and  N_24
REMARK                            x       y       z     vdW  Elec       q    Type
REMARK                         _______ _______ _______ _____ _____    ______ ____
ROOT
ATOM      1  C   UNL     1      -5.206   4.333 127.244  0.00  0.00    +0.000 A 
ATOM      2  C   UNL     1      -3.934   3.798 127.094  0.00  0.00    +0.000 A 
ATOM      3  C   UNL     1      -3.199   4.371 128.158  0.00  0.00    +0.000 A 
ATOM      4  C   UNL     1      -3.389   4.352 129.574  0.00  0.00    +0.000 A 
ATOM      5  C   UNL     1      -2.898   5.337 130.460  0.00  0.00    +0.000 A 
ATOM      6  C   UNL     1      -2.117   6.334 129.902  0.00  0.00    +0.000 A 
ATOM      7  C   UNL     1      -2.231   6.516 128.499  0.00  0.00    +0.000 A 
ATOM      8  C   UNL     1      -3.205   5.710 127.778  0.00  0.00    +0.000 A 
ATOM      9  O   UNL     1      -4.838   5.704 127.734  0.00  0.00    +0.000 OA
ENDROOT
BRANCH   5  10
ATOM     10  C   UNL     1      -3.362   5.429 131.892  0.00  0.00    +0.000 C 
ATOM     11  O   UNL     1      -2.615   5.945 132.723  0.00  0.00    +0.000 OA
ATOM     12  N   UNL     1      -4.696   5.058 132.175  0.00  0.00    +0.000 N 
ATOM     13  C   UNL     1      -5.649   6.005 132.764  0.00  0.00    +0.000 C 
ATOM     14  C   UNL     1      -6.443   5.408 133.918  0.00  0.00    +0.000 C 
ATOM     15  C   UNL     1      -7.600   4.262 133.260  0.00  0.00    +0.000 C 
ATOM     16  C   UNL     1      -6.186   3.212 132.839  0.00  0.00    +0.000 C 
ATOM     17  C   UNL     1      -5.281   3.784 131.767  0.00  0.00    +0.000 C 
BRANCH  15  18
ATOM     18  N   UNL     1      -9.207   5.077 132.693  0.00  0.00    +0.000 N 
ATOM     19  C   UNL     1      -9.401   3.777 132.122  0.00  0.00    +0.000 C 
ATOM     20  O   UNL     1      -9.437   2.668 132.735  0.00  0.00    +0.000 OA
ATOM     21  O   UNL     1      -9.322   3.722 130.803  0.00  0.00    +0.000 OA
ATOM     22  C   UNL     1     -10.652   3.978 130.564  0.00  0.00    +0.000 C 
ATOM     23  C   UNL     1     -10.466   5.402 130.316  0.00  0.00    +0.000 A 
ATOM     24  C   UNL     1      -9.950   6.350 129.429  0.00  0.00    +0.000 A 
ATOM     25  C   UNL     1     -10.583   7.627 129.233  0.00  0.00    +0.000 A 
ATOM     26  C   UNL     1     -11.742   7.780 129.904  0.00  0.00    +0.000 A 
ATOM     27  C   UNL     1     -11.688   6.871 131.121  0.00  0.00    +0.000 A 
ATOM     28  C   UNL     1     -10.333   5.972 131.485  0.00  0.00    +0.000 A 
ENDBRANCH  15  18
ENDBRANCH   5  10
BRANCH   1  29
ATOM     29  C   UNL     1      -6.441   3.828 126.445  0.00  0.00    +0.000 C 
BRANCH  29  32
ATOM     30  C   UNL     1      -7.647   2.557 124.771  0.00  0.00    +0.000 C 
ATOM     31  O   UNL     1      -8.604   2.951 125.441  0.00  0.00    +0.000 OA
ATOM     32  N   UNL     1      -6.394   2.945 125.261  0.00  0.00    +0.000 N 
ATOM     33  H   UNL     1      -5.551   2.502 124.940  0.00  0.00    +0.000 HD
BRANCH  30  34
ATOM     34  C   UNL     1      -7.783   1.594 123.493  0.00  0.00    +0.000 C 
BRANCH  34  39
ATOM     35  C   UNL     1      -8.686  -1.963 124.644  0.00  0.00    +0.000 A 
ATOM     36  C   UNL     1      -7.567  -2.594 124.258  0.00  0.00    +0.000 A 
ATOM     37  C   UNL     1      -6.742  -2.000 123.220  0.00  0.00    +0.000 A 
ATOM     38  C   UNL     1      -6.750  -0.667 123.038  0.00  0.00    +0.000 A 
ATOM     39  N   UNL     1      -7.715   0.111 123.681  0.00  0.00    +0.000 N 
ATOM     40  C   UNL     1      -8.823  -0.546 124.206  0.00  0.00    +0.000 A 
ATOM     41  O   UNL     1      -9.926  -0.035 124.303  0.00  0.00    +0.000 OA
BRANCH  35  43
ATOM     42  C   UNL     1      -9.153  -3.281 126.554  0.00  0.00    +0.000 C 
ATOM     43  O   UNL     1      -9.680  -2.544 125.427  0.00  0.00    +0.000 OA
ENDBRANCH  35  43
ENDBRANCH  34  39
ENDBRANCH  30  34
ENDBRANCH  29  32
ENDBRANCH   1  29
TORSDOF 7
ENDMDL
MODEL 9
REMARK VINA RESULT:      -9.9      2.568      8.818
REMARK  Name = CHEMBL281243
REMARK  8 active torsions:
REMARK  status: ('A' for Active; 'I' for Inactive)
REMARK    1  A    between atoms: C_1  and  O_2
REMARK    2  A    between atoms: O_2  and  C_3
REMARK    3  A    between atoms: N_7  and  C_8
REMARK    4  A    between atoms: C_8  and  C_9
REMARK    5  A    between atoms: N_11  and  C_12
REMARK    6  A    between atoms: C_12  and  C_13
REMARK    7  A    between atoms: C_17  and  C_18
REMARK    8  A    between atoms: C_23  and  N_24
REMARK                            x       y       z     vdW  Elec       q    Type
REMARK                         _______ _______ _______ _____ _____    ______ ____
ROOT
ATOM      1  C   UNL     1      -3.919   5.092 128.013  0.00  0.00    +0.000 A 
ATOM      2  C   UNL     1      -2.599   5.494 128.166  0.00  0.00    +0.000 A 
ATOM      3  C   UNL     1      -2.580   6.116 129.436  0.00  0.00    +0.000 A 
ATOM      4  C   UNL     1      -2.923   5.642 130.741  0.00  0.00    +0.000 A 
ATOM      5  C   UNL     1      -3.327   6.469 131.812  0.00  0.00    +0.000 A 
ATOM      6  C   UNL     1      -3.303   7.833 131.579  0.00  0.00    +0.000 A 
ATOM      7  C   UNL     1      -3.296   8.243 130.220  0.00  0.00    +0.000 A 
ATOM      8  C   UNL     1      -3.394   7.217 129.192  0.00  0.00    +0.000 A 
ATOM      9  O   UNL     1      -4.605   6.234 128.706  0.00  0.00    +0.000 OA
ENDROOT
BRANCH   5  10
ATOM     10  C   UNL     1      -3.949   5.910 133.066  0.00  0.00    +0.000 C 
ATOM     11  O   UNL     1      -3.385   6.105 134.143  0.00  0.00    +0.000 OA
ATOM     12  N   UNL     1      -5.230   5.323 132.959  0.00  0.00    +0.000 N 
ATOM     13  C   UNL     1      -6.377   5.838 133.713  0.00  0.00    +0.000 C 
ATOM     14  C   UNL     1      -7.185   4.738 134.389  0.00  0.00    +0.000 C 
ATOM     15  C   UNL     1      -8.071   3.860 133.152  0.00  0.00    +0.000 C 
ATOM     16  C   UNL     1      -6.472   3.229 132.582  0.00  0.00    +0.000 C 
ATOM     17  C   UNL     1      -5.560   4.283 131.989  0.00  0.00    +0.000 C 
BRANCH  15  18
ATOM     18  N   UNL     1      -9.716   4.672 132.705  0.00  0.00    +0.000 N 
ATOM     19  C   UNL     1      -9.809   3.506 131.878  0.00  0.00    +0.000 C 
ATOM     20  O   UNL     1      -9.782   2.295 132.253  0.00  0.00    +0.000 OA
ATOM     21  O   UNL     1      -9.698   3.726 130.578  0.00  0.00    +0.000 OA
ATOM     22  C   UNL     1     -11.037   3.942 130.349  0.00  0.00    +0.000 C 
ATOM     23  C   UNL     1     -10.943   5.395 130.400  0.00  0.00    +0.000 A 
ATOM     24  C   UNL     1     -10.474   6.534 129.741  0.00  0.00    +0.000 A 
ATOM     25  C   UNL     1     -11.188   7.782 129.785  0.00  0.00    +0.000 A 
ATOM     26  C   UNL     1     -12.369   7.722 130.431  0.00  0.00    +0.000 A 
ATOM     27  C   UNL     1     -12.280   6.590 131.441  0.00  0.00    +0.000 A 
ATOM     28  C   UNL     1     -10.875   5.722 131.663  0.00  0.00    +0.000 A 
ENDBRANCH  15  18
ENDBRANCH   5  10
BRANCH   1  29
ATOM     29  C   UNL     1      -4.395   4.155 126.867  0.00  0.00    +0.000 C 
BRANCH  29  32
ATOM     30  C   UNL     1      -6.562   4.532 125.849  0.00  0.00    +0.000 C 
ATOM     31  O   UNL     1      -5.997   5.568 125.491  0.00  0.00    +0.000 OA
ATOM     32  N   UNL     1      -5.783   3.694 126.656  0.00  0.00    +0.000 N 
ATOM     33  H   UNL     1      -6.201   2.950 127.187  0.00  0.00    +0.000 HD
BRANCH  30  34
ATOM     34  C   UNL     1      -8.095   4.186 125.519  0.00  0.00    +0.000 C 
BRANCH  34  39
ATOM     35  C   UNL     1      -8.840   0.450 124.987  0.00  0.00    +0.000 A 
ATOM     36  C   UNL     1      -8.829   0.428 123.645  0.00  0.00    +0.000 A 
ATOM     37  C   UNL     1      -9.058   1.662 122.915  0.00  0.00    +0.000 A 
ATOM     38  C   UNL     1      -8.746   2.843 123.480  0.00  0.00    +0.000 A 
ATOM     39  N   UNL     1      -8.425   2.895 124.838  0.00  0.00    +0.000 N 
ATOM     40  C   UNL     1      -8.767   1.797 125.619  0.00  0.00    +0.000 A 
ATOM     41  O   UNL     1      -9.045   1.873 126.804  0.00  0.00    +0.000 OA
BRANCH  35  43
ATOM     42  C   UNL     1      -7.625  -1.379 125.871  0.00  0.00    +0.000 C 
ATOM     43  O   UNL     1      -8.893  -0.688 125.785  0.00  0.00    +0.000 OA
ENDBRANCH  35  43
ENDBRANCH  34  39
ENDBRANCH  30  34
ENDBRANCH  29  32
ENDBRANCH   1  29
TORSDOF 7
ENDMDL
