MODEL 1
REMARK VINA RESULT:     -10.1      0.000      0.000
REMARK  Name = CHEMBL1790722
REMARK  23 active torsions:
REMARK  status: ('A' for Active; 'I' for Inactive)
REMARK    1  A    between atoms: C_1  and  C_2
REMARK    2  A    between atoms: C_2  and  C_3
REMARK    3  A    between atoms: C_3  and  C_4
REMARK    4  A    between atoms: C_3  and  C_5
REMARK    5  A    between atoms: C_9  and  C_10
REMARK    6  A    between atoms: C_13  and  O_14
REMARK    7  A    between atoms: C_30  and  C_31
REMARK    8  A    between atoms: CA_37  and  C_38
REMARK    9  A    between atoms: N_40  and  C_41
REMARK   10  A    between atoms: C_41  and  C_42
REMARK   11  A    between atoms: C_41  and  C_73
REMARK   12  A    between atoms: C_42  and  C_43
REMARK   13  A    between atoms: C_43  and  C_44
REMARK   14  A    between atoms: C_44  and  N_45
REMARK   15  A    between atoms: C_46  and  C_48
REMARK   16  A    between atoms: C_61  and  O_62
REMARK   17  A    between atoms: C_68  and  O_69
REMARK   18  A    between atoms: C_73  and  O_75
REMARK   19  A    between atoms: CA_79  and  CB_80
REMARK   20  A    between atoms: CB_80  and  CG_81
REMARK   21  A    between atoms: CA_87  and  CB_88
REMARK   22  A    between atoms: CB_88  and  CG2_89
REMARK   23  A    between atoms: CB_88  and  OG1_90
REMARK                            x       y       z     vdW  Elec       q    Type
REMARK                         _______ _______ _______ _____ _____    ______ ____
ROOT
ATOM      1  C   UNK A   1      -6.998   4.576 129.022  0.00  0.00    +0.000 C 
ATOM      2  N   UNK A   1      -6.977   6.029 130.747  0.00  0.00    +0.000 N 
ATOM      3  C   UNK A   1      -6.382   6.027 132.620  0.00  0.00    +0.000 C 
ATOM      4  O   UNK A   1      -5.320   6.016 133.617  0.00  0.00    +0.000 OA
ATOM      5  C   UNK A   1      -5.645   6.463 131.705  0.00  0.00    +0.000 C 
ATOM      6  N   UNK A   1      -4.316   6.675 132.252  0.00  0.00    +0.000 N 
ATOM      7  C   UNK A   0      -3.362   5.818 132.878  0.00  0.00    +0.000 C 
ATOM      8  O   UNK A   0      -2.210   6.108 132.585  0.00  0.00    +0.000 OA
ATOM      9  C   UNK A   0      -3.611   4.429 133.885  0.00  0.00    +0.000 C 
ATOM     10  C   UNK A   4      -4.981   4.211 134.638  0.00  0.00    +0.000 C 
ATOM     11  C   UNK A   4      -5.617   3.921 133.412  0.00  0.00    +0.000 C 
ATOM     12  C   UNK A   4      -7.233   4.067 133.866  0.00  0.00    +0.000 C 
ATOM     13  C   UNK A   4      -8.040   5.304 134.312  0.00  0.00    +0.000 C 
ATOM     14  C   UNK A   4      -7.429   5.376 135.591  0.00  0.00    +0.000 C 
ATOM     15  C   UNK A   4      -5.989   5.565 135.347  0.00  0.00    +0.000 C 
ATOM     16  S   UNK A   4      -5.289   2.882 135.703  0.00  0.00    +0.000 S 
ATOM     17  S   UNK A   4      -6.240   1.881 134.217  0.00  0.00    +0.000 S 
ATOM     18  C   UNK A   4      -6.414  -0.769 134.735  0.00  0.00    +0.000 C 
ATOM     19  C   UNK A   4      -6.417  -1.701 133.637  0.00  0.00    +0.000 C 
ATOM     20  N   UNK A   4      -7.515  -1.411 132.814  0.00  0.00    +0.000 N 
ATOM     21  C   ASN A   3      -7.369  -0.623 131.729  0.00  0.00    +0.000 C 
ATOM     22  O   ASN A   3      -8.355  -0.698 130.894  0.00  0.00    +0.000 OA
ATOM     23  CA  ASN A   3      -6.127   0.529 131.846  0.00  0.00    +0.000 C 
ATOM     24  N   ASN A   3      -5.728   0.616 130.385  0.00  0.00    +0.000 N 
ATOM     25  C   THR A   2      -6.703   1.298 129.212  0.00  0.00    +0.000 C 
ATOM     26  O   THR A   2      -6.064   1.435 128.174  0.00  0.00    +0.000 OA
ATOM     27  CA  THR A   2      -8.573   1.990 129.616  0.00  0.00    +0.000 C 
ATOM     28  N   THR A   2      -9.012   3.422 129.234  0.00  0.00    +0.000 N 
ATOM     29  C   UNK A   1      -8.327   4.364 128.527  0.00  0.00    +0.000 C 
ATOM     30  O   UNK A   1      -8.607   5.105 127.603  0.00  0.00    +0.000 OA
ATOM     31  H   UNK A   1      -7.518   6.191 131.987  0.00  0.00    +0.000 HD
ATOM     32  H   UNK A   1      -4.270   7.636 132.077  0.00  0.00    +0.000 HD
ATOM     33  H   UNK A   4      -8.376  -1.895 132.961  0.00  0.00    +0.000 HD
ATOM     34  H   ASN A   3      -4.715   0.668 130.338  0.00  0.00    +0.000 HD
ATOM     35  H   THR A   2      -8.836   3.975 130.056  0.00  0.00    +0.000 HD
ENDROOT
BRANCH  19  36
ATOM     36  C   UNK A   4      -5.038  -2.048 132.950  0.00  0.00    +0.000 C 
ATOM     37  O   UNK A   4      -4.268  -1.215 132.430  0.00  0.00    +0.000 OA
ATOM     38  N   PRO A   5      -4.827  -3.398 132.720  0.00  0.00    +0.000 N 
ATOM     39  CD  PRO A   5      -5.730  -4.532 132.583  0.00  0.00    +0.000 C 
ATOM     40  CG  PRO A   5      -5.229  -5.495 133.581  0.00  0.00    +0.000 C 
ATOM     41  CB  PRO A   5      -3.732  -5.355 133.338  0.00  0.00    +0.000 C 
ATOM     42  CA  PRO A   5      -3.477  -3.879 132.901  0.00  0.00    +0.000 C 
BRANCH  42  43
ATOM     43  C   PRO A   5      -2.825  -3.087 134.033  0.00  0.00    +0.000 C 
ATOM     44  O   PRO A   5      -1.791  -2.477 133.722  0.00  0.00    +0.000 OA
ATOM     45  N   UNK A   6      -3.439  -2.992 135.279  0.00  0.00    +0.000 N 
ATOM     46  H   UNK A   6      -4.103  -3.693 135.621  0.00  0.00    +0.000 HD
BRANCH  45  47
ATOM     47  C   UNK A   6      -3.115  -1.901 136.256  0.00  0.00    +0.000 C 
BRANCH  47  48
ATOM     48  C   UNK A   6      -1.688  -2.064 136.838  0.00  0.00    +0.000 C 
ATOM     49  O   UNK A   6      -1.480  -2.757 137.829  0.00  0.00    +0.000 OA
BRANCH  48  50
ATOM     50  O   UNK A   6      -0.667  -1.412 136.226  0.00  0.00    +0.000 OA
ATOM     51  H   UNK A   6      -0.825  -0.664 135.617  0.00  0.00    +0.000 HD
ENDBRANCH  48  50
ENDBRANCH  47  48
BRANCH  47  52
ATOM     52  C   UNK A   6      -4.130  -1.951 137.403  0.00  0.00    +0.000 C 
BRANCH  52  53
ATOM     53  C   UNK A   6      -4.607  -0.567 137.804  0.00  0.00    +0.000 C 
BRANCH  53  54
ATOM     54  C   UNK A   6      -3.910   0.059 138.968  0.00  0.00    +0.000 C 
BRANCH  54  55
ATOM     55  N   UNK A   6      -4.482   1.399 139.336  0.00  0.00    +0.000 N 
ATOM     56  C   UNK A   6      -3.819   2.590 138.961  0.00  0.00    +0.000 C 
ATOM     57  O   UNK A   6      -2.739   2.447 138.366  0.00  0.00    +0.000 OA
ATOM     58  H   UNK A   6      -5.357   1.384 139.837  0.00  0.00    +0.000 HD
BRANCH  56  59
ATOM     59  C   UNK A   6      -4.270   4.107 139.062  0.00  0.00    +0.000 A 
ATOM     60  C   UNK A   6      -3.590   4.977 138.388  0.00  0.00    +0.000 A 
ATOM     61  C   UNK A   6      -3.478   6.360 138.843  0.00  0.00    +0.000 A 
ATOM     62  C   UNK A   6      -3.777   7.204 137.965  0.00  0.00    +0.000 A 
ATOM     63  C   UNK A   6      -4.843   7.089 138.641  0.00  0.00    +0.000 A 
ATOM     64  C   UNK A   6      -5.043   5.250 139.370  0.00  0.00    +0.000 A 
ATOM     65  C   UNK A   6      -4.143   9.013 138.512  0.00  0.00    +0.000 C 
ATOM     66  O   UNK A   6      -4.046   8.872 136.902  0.00  0.00    +0.000 OA
ATOM     67  C   UNK A   6      -3.261   7.768 136.835  0.00  0.00    +0.000 C 
ATOM     68  O   UNK A   6      -2.779   6.819 136.240  0.00  0.00    +0.000 OA
ATOM     69  C   UNK A   6      -4.539  10.914 138.461  0.00  0.00    +0.000 A 
ATOM     70  C   UNK A   6      -3.780  12.255 138.466  0.00  0.00    +0.000 A 
ATOM     71  C   UNK A   6      -4.335  13.557 138.976  0.00  0.00    +0.000 A 
ATOM     72  C   UNK A   6      -5.641  13.587 139.440  0.00  0.00    +0.000 A 
ATOM     73  C   UNK A   6      -6.387  12.419 139.347  0.00  0.00    +0.000 A 
ATOM     74  C   UNK A   6      -5.859  11.195 138.824  0.00  0.00    +0.000 A 
ATOM     75  O   UNK A   6      -6.725  10.150 138.704  0.00  0.00    +0.000 OA
ATOM     76  C   UNK A   6      -6.334   9.065 139.423  0.00  0.00    +0.000 A 
ATOM     77  C   UNK A   6      -7.137   7.910 139.343  0.00  0.00    +0.000 A 
ATOM     78  C   UNK A   6      -6.896   6.795 140.141  0.00  0.00    +0.000 A 
ATOM     79  C   UNK A   6      -5.865   6.931 141.159  0.00  0.00    +0.000 A 
ATOM     80  C   UNK A   6      -4.849   8.063 141.055  0.00  0.00    +0.000 A 
ATOM     81  C   UNK A   6      -5.048   8.995 139.952  0.00  0.00    +0.000 A 
BRANCH  78  82
ATOM     82  O   UNK A   6      -7.444   5.558 139.803  0.00  0.00    +0.000 OA
ATOM     83  H   UNK A   6      -6.875   5.030 139.209  0.00  0.00    +0.000 HD
ENDBRANCH  78  82
BRANCH  72  84
ATOM     84  O   UNK A   6      -6.284  14.669 139.976  0.00  0.00    +0.000 OA
ATOM     85  H   UNK A   6      -7.253  14.598 139.960  0.00  0.00    +0.000 HD
ENDBRANCH  72  84
ENDBRANCH  56  59
ENDBRANCH  54  55
ENDBRANCH  53  54
ENDBRANCH  52  53
ENDBRANCH  47  52
ENDBRANCH  45  47
ENDBRANCH  42  43
ENDBRANCH  19  36
BRANCH   5  86
ATOM     86  C   UNK A   1      -6.500   4.691 131.662  0.00  0.00    +0.000 A 
ATOM     87  C   UNK A   1      -8.352   4.819 131.803  0.00  0.00    +0.000 A 
ATOM     88  C   UNK A   1      -8.773   3.668 131.829  0.00  0.00    +0.000 A 
ATOM     89  C   UNK A   1      -7.480   2.845 131.181  0.00  0.00    +0.000 A 
ATOM     90  C   UNK A   1      -6.113   3.060 130.790  0.00  0.00    +0.000 A 
ATOM     91  C   UNK A   1      -5.496   4.141 130.924  0.00  0.00    +0.000 A 
BRANCH  89  92
ATOM     92  O   UNK A   1      -7.579   1.254 130.903  0.00  0.00    +0.000 OA
ATOM     93  H   UNK A   1      -7.315   0.398 131.481  0.00  0.00    +0.000 HD
ENDBRANCH  89  92
ENDBRANCH   5  86
BRANCH   1  94
ATOM     94  C   UNK A   1      -7.072   3.480 127.162  0.00  0.00    +0.000 C 
ATOM     95  C   UNK A   1      -5.891   3.539 126.084  0.00  0.00    +0.000 C 
BRANCH  94  97
ATOM     96  C   UNK A   1      -8.590   1.004 125.723  0.00  0.00    +0.000 C 
ATOM     97  C   UNK A   1      -7.285   1.889 125.758  0.00  0.00    +0.000 C 
ENDBRANCH  94  97
ENDBRANCH   1  94
BRANCH  27  98
ATOM     98  CB  THR A   2      -9.186   1.658 131.603  0.00  0.00    +0.000 C 
ATOM     99  CG2 THR A   2     -10.542   1.962 131.553  0.00  0.00    +0.000 C 
BRANCH  98 100
ATOM    100  OG1 THR A   2      -8.931   0.640 132.598  0.00  0.00    +0.000 OA
ATOM    101  HG1 THR A   2      -8.190   0.156 132.231  0.00  0.00    +0.000 HD
ENDBRANCH  98 100
ENDBRANCH  27  98
BRANCH  23 102
ATOM    102  CB  ASN A   3      -5.023   0.434 132.824  0.00  0.00    +0.000 C 
BRANCH 102 103
ATOM    103  CG  ASN A   3      -3.369   1.288 132.633  0.00  0.00    +0.000 C 
ATOM    104  ND2 ASN A   3      -2.215   0.347 134.079  0.00  0.00    +0.000 N 
ATOM    105  OD1 ASN A   3      -2.997   2.224 131.950  0.00  0.00    +0.000 OA
ATOM    106 HD21 ASN A   3      -2.822  -0.128 134.851  0.00  0.00    +0.000 HD
ATOM    107 HD22 ASN A   3      -1.439   0.834 134.445  0.00  0.00    +0.000 HD
ENDBRANCH 102 103
ENDBRANCH  23 102
TORSDOF 20
ENDMDL
MODEL 2
REMARK VINA RESULT:      -9.9      4.979     10.925
REMARK  Name = CHEMBL1790722
REMARK  23 active torsions:
REMARK  status: ('A' for Active; 'I' for Inactive)
REMARK    1  A    between atoms: C_1  and  C_2
REMARK    2  A    between atoms: C_2  and  C_3
REMARK    3  A    between atoms: C_3  and  C_4
REMARK    4  A    between atoms: C_3  and  C_5
REMARK    5  A    between atoms: C_9  and  C_10
REMARK    6  A    between atoms: C_13  and  O_14
REMARK    7  A    between atoms: C_30  and  C_31
REMARK    8  A    between atoms: CA_37  and  C_38
REMARK    9  A    between atoms: N_40  and  C_41
REMARK   10  A    between atoms: C_41  and  C_42
REMARK   11  A    between atoms: C_41  and  C_73
REMARK   12  A    between atoms: C_42  and  C_43
REMARK   13  A    between atoms: C_43  and  C_44
REMARK   14  A    between atoms: C_44  and  N_45
REMARK   15  A    between atoms: C_46  and  C_48
REMARK   16  A    between atoms: C_61  and  O_62
REMARK   17  A    between atoms: C_68  and  O_69
REMARK   18  A    between atoms: C_73  and  O_75
REMARK   19  A    between atoms: CA_79  and  CB_80
REMARK   20  A    between atoms: CB_80  and  CG_81
REMARK   21  A    between atoms: CA_87  and  CB_88
REMARK   22  A    between atoms: CB_88  and  CG2_89
REMARK   23  A    between atoms: CB_88  and  OG1_90
REMARK                            x       y       z     vdW  Elec       q    Type
REMARK                         _______ _______ _______ _____ _____    ______ ____
ROOT
ATOM      1  C   UNK A   1       0.232  12.673 140.021  0.00  0.00    +0.000 C 
ATOM      2  N   UNK A   1       1.480  13.846 138.554  0.00  0.00    +0.000 N 
ATOM      3  C   UNK A   1       1.736  13.900 136.606  0.00  0.00    +0.000 C 
ATOM      4  O   UNK A   1       1.252  14.213 135.268  0.00  0.00    +0.000 OA
ATOM      5  C   UNK A   1       0.934  14.676 137.177  0.00  0.00    +0.000 C 
ATOM      6  N   UNK A   1       0.139  15.340 136.159  0.00  0.00    +0.000 N 
ATOM      7  C   UNK A   0      -0.739  14.872 135.137  0.00  0.00    +0.000 C 
ATOM      8  O   UNK A   0      -1.693  15.619 134.962  0.00  0.00    +0.000 OA
ATOM      9  C   UNK A   0      -0.682  13.408 134.210  0.00  0.00    +0.000 C 
ATOM     10  C   UNK A   4       0.664  12.598 134.059  0.00  0.00    +0.000 C 
ATOM     11  C   UNK A   4       0.585  12.200 135.411  0.00  0.00    +0.000 C 
ATOM     12  C   UNK A   4       2.159  11.655 135.659  0.00  0.00    +0.000 C 
ATOM     13  C   UNK A   4       3.495  12.426 135.675  0.00  0.00    +0.000 C 
ATOM     14  C   UNK A   4       3.530  12.610 134.268  0.00  0.00    +0.000 C 
ATOM     15  C   UNK A   4       2.317  13.373 133.925  0.00  0.00    +0.000 C 
ATOM     16  S   UNK A   4       0.816  11.161 133.108  0.00  0.00    +0.000 S 
ATOM     17  S   UNK A   4       0.611  10.013 134.767  0.00  0.00    +0.000 S 
ATOM     18  C   UNK A   4      -0.090   7.472 134.158  0.00  0.00    +0.000 C 
ATOM     19  C   UNK A   4      -0.896   6.722 135.087  0.00  0.00    +0.000 C 
ATOM     20  N   UNK A   4      -0.202   6.634 136.303  0.00  0.00    +0.000 N 
ATOM     21  C   ASN A   3      -0.444   7.516 137.295  0.00  0.00    +0.000 C 
ATOM     22  O   ASN A   3       0.007   7.139 138.448  0.00  0.00    +0.000 OA
ATOM     23  CA  ASN A   3      -0.966   9.047 136.778  0.00  0.00    +0.000 C 
ATOM     24  N   ASN A   3      -1.846   9.422 137.956  0.00  0.00    +0.000 N 
ATOM     25  C   THR A   2      -1.237   9.773 139.472  0.00  0.00    +0.000 C 
ATOM     26  O   THR A   2      -2.126  10.249 140.171  0.00  0.00    +0.000 OA
ATOM     27  CA  THR A   2       0.743   9.633 139.912  0.00  0.00    +0.000 C 
ATOM     28  N   THR A   2       1.523  10.806 140.550  0.00  0.00    +0.000 N 
ATOM     29  C   UNK A   1       1.048  12.004 140.992  0.00  0.00    +0.000 C 
ATOM     30  O   UNK A   1       1.204  12.660 142.005  0.00  0.00    +0.000 OA
ATOM     31  H   UNK A   1       2.487  13.664 137.654  0.00  0.00    +0.000 HD
ATOM     32  H   UNK A   1       0.413  16.254 136.376  0.00  0.00    +0.000 HD
ATOM     33  H   UNK A   4       0.375   5.839 136.478  0.00  0.00    +0.000 HD
ATOM     34  H   ASN A   3      -2.680   9.872 137.594  0.00  0.00    +0.000 HD
ATOM     35  H   THR A   2       1.925  11.303 139.772  0.00  0.00    +0.000 HD
ENDROOT
BRANCH  19  36
ATOM     36  C   UNK A   4      -2.448   7.013 135.130  0.00  0.00    +0.000 C 
ATOM     37  O   UNK A   4      -3.017   7.951 134.537  0.00  0.00    +0.000 OA
ATOM     38  N   PRO A   5      -3.146   6.302 136.093  0.00  0.00    +0.000 N 
ATOM     39  CD  PRO A   5      -2.742   5.662 137.337  0.00  0.00    +0.000 C 
ATOM     40  CG  PRO A   5      -3.225   4.277 137.186  0.00  0.00    +0.000 C 
ATOM     41  CB  PRO A   5      -4.597   4.552 136.585  0.00  0.00    +0.000 C 
ATOM     42  CA  PRO A   5      -4.469   5.850 135.728  0.00  0.00    +0.000 C 
BRANCH  42  43
ATOM     43  C   PRO A   5      -4.474   5.513 134.238  0.00  0.00    +0.000 C 
ATOM     44  O   PRO A   5      -3.989   4.410 133.945  0.00  0.00    +0.000 OA
ATOM     45  N   UNK A   6      -5.090   6.360 133.320  0.00  0.00    +0.000 N 
ATOM     46  H   UNK A   6      -5.226   7.359 133.498  0.00  0.00    +0.000 HD
BRANCH  45  47
ATOM     47  C   UNK A   6      -5.528   5.895 131.963  0.00  0.00    +0.000 C 
BRANCH  47  48
ATOM     48  C   UNK A   6      -4.641   6.494 130.842  0.00  0.00    +0.000 C 
ATOM     49  O   UNK A   6      -5.089   7.315 130.047  0.00  0.00    +0.000 OA
BRANCH  48  50
ATOM     50  O   UNK A   6      -3.351   6.084 130.756  0.00  0.00    +0.000 OA
ATOM     51  H   UNK A   6      -2.622   6.710 130.573  0.00  0.00    +0.000 HD
ENDBRANCH  48  50
ENDBRANCH  47  48
BRANCH  47  52
ATOM     52  C   UNK A   6      -6.979   6.332 131.738  0.00  0.00    +0.000 C 
BRANCH  52  53
ATOM     53  C   UNK A   6      -7.928   5.150 131.666  0.00  0.00    +0.000 C 
BRANCH  53  54
ATOM     54  C   UNK A   6      -8.676   4.828 132.919  0.00  0.00    +0.000 C 
BRANCH  54  55
ATOM     55  N   UNK A   6      -8.653   5.953 133.915  0.00  0.00    +0.000 N 
ATOM     56  C   UNK A   6      -8.128   5.752 135.212  0.00  0.00    +0.000 C 
ATOM     57  O   UNK A   6      -7.745   4.600 135.471  0.00  0.00    +0.000 OA
ATOM     58  H   UNK A   6      -9.010   6.839 133.591  0.00  0.00    +0.000 HD
BRANCH  56  59
ATOM     59  C   UNK A   6      -7.825   6.779 136.383  0.00  0.00    +0.000 A 
ATOM     60  C   UNK A   6      -8.733   7.659 136.654  0.00  0.00    +0.000 A 
ATOM     61  C   UNK A   6      -8.376   8.961 137.207  0.00  0.00    +0.000 A 
ATOM     62  C   UNK A   6      -9.014   9.260 138.244  0.00  0.00    +0.000 A 
ATOM     63  C   UNK A   6      -7.924   8.792 138.691  0.00  0.00    +0.000 A 
ATOM     64  C   UNK A   6      -7.191   7.388 137.490  0.00  0.00    +0.000 A 
ATOM     65  C   UNK A   6      -8.353  10.685 139.356  0.00  0.00    +0.000 C 
ATOM     66  O   UNK A   6      -9.827  10.194 139.810  0.00  0.00    +0.000 OA
ATOM     67  C   UNK A   6     -10.253   9.685 138.627  0.00  0.00    +0.000 C 
ATOM     68  O   UNK A   6     -11.006   9.006 137.950  0.00  0.00    +0.000 OA
ATOM     69  C   UNK A   6      -8.208  12.011 140.769  0.00  0.00    +0.000 A 
ATOM     70  C   UNK A   6      -8.549  13.496 141.001  0.00  0.00    +0.000 A 
ATOM     71  C   UNK A   6      -7.835  14.402 141.967  0.00  0.00    +0.000 A 
ATOM     72  C   UNK A   6      -6.822  13.873 142.751  0.00  0.00    +0.000 A 
ATOM     73  C   UNK A   6      -6.565  12.512 142.643  0.00  0.00    +0.000 A 
ATOM     74  C   UNK A   6      -7.278  11.652 141.746  0.00  0.00    +0.000 A 
ATOM     75  O   UNK A   6      -6.989  10.322 141.807  0.00  0.00    +0.000 OA
ATOM     76  C   UNK A   6      -6.535   9.833 140.623  0.00  0.00    +0.000 A 
ATOM     77  C   UNK A   6      -6.241   8.457 140.558  0.00  0.00    +0.000 A 
ATOM     78  C   UNK A   6      -5.648   7.888 139.435  0.00  0.00    +0.000 A 
ATOM     79  C   UNK A   6      -5.219   8.803 138.388  0.00  0.00    +0.000 A 
ATOM     80  C   UNK A   6      -5.775  10.222 138.354  0.00  0.00    +0.000 A 
ATOM     81  C   UNK A   6      -6.658  10.584 139.456  0.00  0.00    +0.000 A 
BRANCH  78  82
ATOM     82  O   UNK A   6      -5.701   6.508 139.235  0.00  0.00    +0.000 OA
ATOM     83  H   UNK A   6      -5.175   6.205 138.471  0.00  0.00    +0.000 HD
ENDBRANCH  78  82
BRANCH  72  84
ATOM     84  O   UNK A   6      -6.046  14.560 143.643  0.00  0.00    +0.000 OA
ATOM     85  H   UNK A   6      -5.869  15.480 143.384  0.00  0.00    +0.000 HD
ENDBRANCH  72  84
ENDBRANCH  56  59
ENDBRANCH  54  55
ENDBRANCH  53  54
ENDBRANCH  52  53
ENDBRANCH  47  52
ENDBRANCH  45  47
ENDBRANCH  42  43
ENDBRANCH  19  36
BRANCH   5  86
ATOM     86  C   UNK A   1       0.921  12.723 137.423  0.00  0.00    +0.000 A 
ATOM     87  C   UNK A   1       2.550  12.102 138.075  0.00  0.00    +0.000 A 
ATOM     88  C   UNK A   1       2.452  10.881 138.129  0.00  0.00    +0.000 A 
ATOM     89  C   UNK A   1       0.799  10.695 138.110  0.00  0.00    +0.000 A 
ATOM     90  C   UNK A   1      -0.401  11.465 137.914  0.00  0.00    +0.000 A 
ATOM     91  C   UNK A   1      -0.425  12.683 137.628  0.00  0.00    +0.000 A 
BRANCH  89  92
ATOM     92  O   UNK A   1       0.138   9.227 138.268  0.00  0.00    +0.000 OA
ATOM     93  H   UNK A   1      -0.869   8.880 138.263  0.00  0.00    +0.000 HD
ENDBRANCH  89  92
ENDBRANCH   5  86
BRANCH   1  94
ATOM     94  C   UNK A   1      -0.885  11.819 141.661  0.00  0.00    +0.000 C 
ATOM     95  C   UNK A   1      -2.318  12.375 142.104  0.00  0.00    +0.000 C 
BRANCH  94  97
ATOM     96  C   UNK A   1      -1.179   9.024 143.276  0.00  0.00    +0.000 C 
ATOM     97  C   UNK A   1      -1.856  10.406 142.928  0.00  0.00    +0.000 C 
ENDBRANCH  94  97
ENDBRANCH   1  94
BRANCH  27  98
ATOM     98  CB  THR A   2       1.912   8.899 138.321  0.00  0.00    +0.000 C 
ATOM     99  CG2 THR A   2       2.872   8.138 138.980  0.00  0.00    +0.000 C 
BRANCH  98 100
ATOM    100  OG1 THR A   2       1.633   8.343 137.016  0.00  0.00    +0.000 OA
ATOM    101  HG1 THR A   2       0.859   7.799 137.170  0.00  0.00    +0.000 HD
ENDBRANCH  98 100
ENDBRANCH  27  98
BRANCH  23 102
ATOM    102  CB  ASN A   3      -1.526   9.300 135.434  0.00  0.00    +0.000 C 
BRANCH 102 103
ATOM    103  CG  ASN A   3      -2.708  10.694 135.030  0.00  0.00    +0.000 C 
ATOM    104  ND2 ASN A   3      -2.657  10.730 132.955  0.00  0.00    +0.000 N 
ATOM    105  OD1 ASN A   3      -3.310  11.493 135.723  0.00  0.00    +0.000 OA
ATOM    106 HD21 ASN A   3      -1.761  10.255 132.553  0.00  0.00    +0.000 HD
ATOM    107 HD22 ASN A   3      -2.885  11.574 132.498  0.00  0.00    +0.000 HD
ENDBRANCH 102 103
ENDBRANCH  23 102
TORSDOF 20
ENDMDL
MODEL 3
REMARK VINA RESULT:      -9.7      0.947      1.966
REMARK  Name = CHEMBL1790722
REMARK  23 active torsions:
REMARK  status: ('A' for Active; 'I' for Inactive)
REMARK    1  A    between atoms: C_1  and  C_2
REMARK    2  A    between atoms: C_2  and  C_3
REMARK    3  A    between atoms: C_3  and  C_4
REMARK    4  A    between atoms: C_3  and  C_5
REMARK    5  A    between atoms: C_9  and  C_10
REMARK    6  A    between atoms: C_13  and  O_14
REMARK    7  A    between atoms: C_30  and  C_31
REMARK    8  A    between atoms: CA_37  and  C_38
REMARK    9  A    between atoms: N_40  and  C_41
REMARK   10  A    between atoms: C_41  and  C_42
REMARK   11  A    between atoms: C_41  and  C_73
REMARK   12  A    between atoms: C_42  and  C_43
REMARK   13  A    between atoms: C_43  and  C_44
REMARK   14  A    between atoms: C_44  and  N_45
REMARK   15  A    between atoms: C_46  and  C_48
REMARK   16  A    between atoms: C_61  and  O_62
REMARK   17  A    between atoms: C_68  and  O_69
REMARK   18  A    between atoms: C_73  and  O_75
REMARK   19  A    between atoms: CA_79  and  CB_80
REMARK   20  A    between atoms: CB_80  and  CG_81
REMARK   21  A    between atoms: CA_87  and  CB_88
REMARK   22  A    between atoms: CB_88  and  CG2_89
REMARK   23  A    between atoms: CB_88  and  OG1_90
REMARK                            x       y       z     vdW  Elec       q    Type
REMARK                         _______ _______ _______ _____ _____    ______ ____
ROOT
ATOM      1  C   UNK A   1      -7.023   4.543 128.979  0.00  0.00    +0.000 C 
ATOM      2  N   UNK A   1      -6.969   6.019 130.684  0.00  0.00    +0.000 N 
ATOM      3  C   UNK A   1      -6.352   6.036 132.550  0.00  0.00    +0.000 C 
ATOM      4  O   UNK A   1      -5.278   6.028 133.534  0.00  0.00    +0.000 OA
ATOM      5  C   UNK A   1      -5.622   6.453 131.621  0.00  0.00    +0.000 C 
ATOM      6  N   UNK A   1      -4.284   6.660 132.150  0.00  0.00    +0.000 N 
ATOM      7  C   UNK A   0      -3.331   5.802 132.775  0.00  0.00    +0.000 C 
ATOM      8  O   UNK A   0      -2.180   6.078 132.465  0.00  0.00    +0.000 OA
ATOM      9  C   UNK A   0      -3.581   4.429 133.804  0.00  0.00    +0.000 C 
ATOM     10  C   UNK A   4      -4.944   4.233 134.574  0.00  0.00    +0.000 C 
ATOM     11  C   UNK A   4      -5.597   3.934 133.360  0.00  0.00    +0.000 C 
ATOM     12  C   UNK A   4      -7.206   4.100 133.831  0.00  0.00    +0.000 C 
ATOM     13  C   UNK A   4      -7.996   5.350 134.269  0.00  0.00    +0.000 C 
ATOM     14  C   UNK A   4      -7.370   5.433 135.541  0.00  0.00    +0.000 C 
ATOM     15  C   UNK A   4      -5.931   5.606 135.277  0.00  0.00    +0.000 C 
ATOM     16  S   UNK A   4      -5.252   2.921 135.661  0.00  0.00    +0.000 S 
ATOM     17  S   UNK A   4      -6.229   1.910 134.199  0.00  0.00    +0.000 S 
ATOM     18  C   UNK A   4      -6.421  -0.731 134.753  0.00  0.00    +0.000 C 
ATOM     19  C   UNK A   4      -6.445  -1.678 133.668  0.00  0.00    +0.000 C 
ATOM     20  N   UNK A   4      -7.550  -1.388 132.854  0.00  0.00    +0.000 N 
ATOM     21  C   ASN A   3      -7.410  -0.616 131.757  0.00  0.00    +0.000 C 
ATOM     22  O   ASN A   3      -8.406  -0.693 130.935  0.00  0.00    +0.000 OA
ATOM     23  CA  ASN A   3      -6.156   0.526 131.844  0.00  0.00    +0.000 C 
ATOM     24  N   ASN A   3      -5.773   0.590 130.378  0.00  0.00    +0.000 N 
ATOM     25  C   THR A   2      -6.756   1.266 129.208  0.00  0.00    +0.000 C 
ATOM     26  O   THR A   2      -6.127   1.383 128.161  0.00  0.00    +0.000 OA
ATOM     27  CA  THR A   2      -8.614   1.980 129.624  0.00  0.00    +0.000 C 
ATOM     28  N   THR A   2      -9.045   3.411 129.228  0.00  0.00    +0.000 N 
ATOM     29  C   UNK A   1      -8.360   4.338 128.501  0.00  0.00    +0.000 C 
ATOM     30  O   UNK A   1      -8.643   5.069 127.571  0.00  0.00    +0.000 OA
ATOM     31  H   UNK A   1      -7.494   6.202 131.927  0.00  0.00    +0.000 HD
ATOM     32  H   UNK A   1      -4.232   7.618 131.961  0.00  0.00    +0.000 HD
ATOM     33  H   UNK A   4      -8.414  -1.862 133.017  0.00  0.00    +0.000 HD
ATOM     34  H   ASN A   3      -4.760   0.632 130.319  0.00  0.00    +0.000 HD
ATOM     35  H   THR A   2      -8.854   3.974 130.041  0.00  0.00    +0.000 HD
ENDROOT
BRANCH  19  36
ATOM     36  C   UNK A   4      -5.077  -2.046 132.970  0.00  0.00    +0.000 C 
ATOM     37  O   UNK A   4      -4.316  -1.231 132.412  0.00  0.00    +0.000 OA
ATOM     38  N   PRO A   5      -4.870  -3.403 132.777  0.00  0.00    +0.000 N 
ATOM     39  CD  PRO A   5      -5.776  -4.539 132.690  0.00  0.00    +0.000 C 
ATOM     40  CG  PRO A   5      -5.259  -5.473 133.708  0.00  0.00    +0.000 C 
ATOM     41  CB  PRO A   5      -3.766  -5.341 133.437  0.00  0.00    +0.000 C 
ATOM     42  CA  PRO A   5      -3.517  -3.879 132.950  0.00  0.00    +0.000 C 
BRANCH  42  43
ATOM     43  C   PRO A   5      -2.847  -3.054 134.048  0.00  0.00    +0.000 C 
ATOM     44  O   PRO A   5      -1.813  -2.463 133.705  0.00  0.00    +0.000 OA
ATOM     45  N   UNK A   6      -3.447  -2.911 135.296  0.00  0.00    +0.000 N 
ATOM     46  H   UNK A   6      -4.112  -3.594 135.669  0.00  0.00    +0.000 HD
BRANCH  45  47
ATOM     47  C   UNK A   6      -3.104  -1.789 136.231  0.00  0.00    +0.000 C 
BRANCH  47  48
ATOM     48  C   UNK A   6      -1.683  -1.958 136.826  0.00  0.00    +0.000 C 
ATOM     49  O   UNK A   6      -1.494  -2.621 137.841  0.00  0.00    +0.000 OA
BRANCH  48  50
ATOM     50  O   UNK A   6      -0.647  -1.347 136.198  0.00  0.00    +0.000 OA
ATOM     51  H   UNK A   6       0.137  -1.846 135.893  0.00  0.00    +0.000 HD
ENDBRANCH  48  50
ENDBRANCH  47  48
BRANCH  47  52
ATOM     52  C   UNK A   6      -4.124  -1.772 137.374  0.00  0.00    +0.000 C 
BRANCH  52  53
ATOM     53  C   UNK A   6      -4.588  -0.366 137.705  0.00  0.00    +0.000 C 
BRANCH  53  54
ATOM     54  C   UNK A   6      -3.754   0.389 138.689  0.00  0.00    +0.000 C 
BRANCH  54  55
ATOM     55  N   UNK A   6      -4.368   1.703 139.084  0.00  0.00    +0.000 N 
ATOM     56  C   UNK A   6      -3.691   2.917 138.827  0.00  0.00    +0.000 C 
ATOM     57  O   UNK A   6      -2.567   2.813 138.310  0.00  0.00    +0.000 OA
ATOM     58  H   UNK A   6      -5.279   1.655 139.514  0.00  0.00    +0.000 HD
BRANCH  56  59
ATOM     59  C   UNK A   6      -4.164   4.424 138.974  0.00  0.00    +0.000 A 
ATOM     60  C   UNK A   6      -5.142   4.665 139.785  0.00  0.00    +0.000 A 
ATOM     61  C   UNK A   6      -6.041   5.793 139.564  0.00  0.00    +0.000 A 
ATOM     62  C   UNK A   6      -6.175   6.534 140.566  0.00  0.00    +0.000 A 
ATOM     63  C   UNK A   6      -5.293   7.127 139.876  0.00  0.00    +0.000 A 
ATOM     64  C   UNK A   6      -4.183   5.832 138.854  0.00  0.00    +0.000 A 
ATOM     65  C   UNK A   6      -6.921   8.292 140.321  0.00  0.00    +0.000 C 
ATOM     66  O   UNK A   6      -6.770   7.908 141.887  0.00  0.00    +0.000 OA
ATOM     67  C   UNK A   6      -6.805   6.557 141.776  0.00  0.00    +0.000 C 
ATOM     68  O   UNK A   6      -6.625   5.431 142.209  0.00  0.00    +0.000 OA
ATOM     69  C   UNK A   6      -7.637  10.062 140.682  0.00  0.00    +0.000 A 
ATOM     70  C   UNK A   6      -9.006  10.735 140.901  0.00  0.00    +0.000 A 
ATOM     71  C   UNK A   6      -9.313  12.178 140.608  0.00  0.00    +0.000 A 
ATOM     72  C   UNK A   6      -8.292  12.995 140.149  0.00  0.00    +0.000 A 
ATOM     73  C   UNK A   6      -7.020  12.445 140.045  0.00  0.00    +0.000 A 
ATOM     74  C   UNK A   6      -6.733  11.078 140.363  0.00  0.00    +0.000 A 
ATOM     75  O   UNK A   6      -5.428  10.692 140.306  0.00  0.00    +0.000 OA
ATOM     76  C   UNK A   6      -5.222   9.682 139.421  0.00  0.00    +0.000 A 
ATOM     77  C   UNK A   6      -3.912   9.176 139.306  0.00  0.00    +0.000 A 
ATOM     78  C   UNK A   6      -3.573   8.236 138.338  0.00  0.00    +0.000 A 
ATOM     79  C   UNK A   6      -4.600   7.906 137.361  0.00  0.00    +0.000 A 
ATOM     80  C   UNK A   6      -6.057   8.248 137.654  0.00  0.00    +0.000 A 
ATOM     81  C   UNK A   6      -6.300   8.976 138.894  0.00  0.00    +0.000 A 
BRANCH  78  82
ATOM     82  O   UNK A   6      -2.405   7.485 138.466  0.00  0.00    +0.000 OA
ATOM     83  H   UNK A   6      -2.084   7.418 139.386  0.00  0.00    +0.000 HD
ENDBRANCH  78  82
BRANCH  72  84
ATOM     84  O   UNK A   6      -8.407  14.311 139.795  0.00  0.00    +0.000 OA
ATOM     85  H   UNK A   6      -8.998  14.465 139.039  0.00  0.00    +0.000 HD
ENDBRANCH  72  84
ENDBRANCH  56  59
ENDBRANCH  54  55
ENDBRANCH  53  54
ENDBRANCH  52  53
ENDBRANCH  47  52
ENDBRANCH  45  47
ENDBRANCH  42  43
ENDBRANCH  19  36
BRANCH   5  86
ATOM     86  C   UNK A   1      -6.494   4.689 131.610  0.00  0.00    +0.000 A 
ATOM     87  C   UNK A   1      -8.342   4.835 131.770  0.00  0.00    +0.000 A 
ATOM     88  C   UNK A   1      -8.773   3.689 131.816  0.00  0.00    +0.000 A 
ATOM     89  C   UNK A   1      -7.496   2.846 131.165  0.00  0.00    +0.000 A 
ATOM     90  C   UNK A   1      -6.131   3.043 130.756  0.00  0.00    +0.000 A 
ATOM     91  C   UNK A   1      -5.503   4.120 130.868  0.00  0.00    +0.000 A 
BRANCH  89  92
ATOM     92  O   UNK A   1      -7.612   1.252 130.909  0.00  0.00    +0.000 OA
ATOM     93  H   UNK A   1      -8.433   0.610 130.688  0.00  0.00    +0.000 HD
ENDBRANCH  89  92
ENDBRANCH   5  86
BRANCH   1  94
ATOM     94  C   UNK A   1      -7.129   3.425 127.134  0.00  0.00    +0.000 C 
ATOM     95  C   UNK A   1      -5.977   3.488 126.025  0.00  0.00    +0.000 C 
BRANCH  94  97
ATOM     96  C   UNK A   1      -8.681   0.962 125.708  0.00  0.00    +0.000 C 
ATOM     97  C   UNK A   1      -7.354   1.814 125.754  0.00  0.00    +0.000 C 
ENDBRANCH  94  97
ENDBRANCH   1  94
BRANCH  27  98
ATOM     98  CB  THR A   2      -9.207   1.680 131.622  0.00  0.00    +0.000 C 
ATOM     99  CG2 THR A   2     -10.585   1.858 131.556  0.00  0.00    +0.000 C 
BRANCH  98 100
ATOM    100  OG1 THR A   2      -8.867   0.732 132.660  0.00  0.00    +0.000 OA
ATOM    101  HG1 THR A   2      -8.577   1.292 133.381  0.00  0.00    +0.000 HD
ENDBRANCH  98 100
ENDBRANCH  27  98
BRANCH  23 102
ATOM    102  CB  ASN A   3      -5.041   0.433 132.811  0.00  0.00    +0.000 C 
BRANCH 102 103
ATOM    103  CG  ASN A   3      -3.378   1.261 132.584  0.00  0.00    +0.000 C 
ATOM    104  ND2 ASN A   3      -2.212   0.310 134.014  0.00  0.00    +0.000 N 
ATOM    105  OD1 ASN A   3      -3.004   2.187 131.889  0.00  0.00    +0.000 OA
ATOM    106 HD21 ASN A   3      -2.812  -0.152 134.800  0.00  0.00    +0.000 HD
ATOM    107 HD22 ASN A   3      -1.422   0.786 134.362  0.00  0.00    +0.000 HD
ENDBRANCH 102 103
ENDBRANCH  23 102
TORSDOF 20
ENDMDL
MODEL 4
REMARK VINA RESULT:      -9.4      3.930      9.991
REMARK  Name = CHEMBL1790722
REMARK  23 active torsions:
REMARK  status: ('A' for Active; 'I' for Inactive)
REMARK    1  A    between atoms: C_1  and  C_2
REMARK    2  A    between atoms: C_2  and  C_3
REMARK    3  A    between atoms: C_3  and  C_4
REMARK    4  A    between atoms: C_3  and  C_5
REMARK    5  A    between atoms: C_9  and  C_10
REMARK    6  A    between atoms: C_13  and  O_14
REMARK    7  A    between atoms: C_30  and  C_31
REMARK    8  A    between atoms: CA_37  and  C_38
REMARK    9  A    between atoms: N_40  and  C_41
REMARK   10  A    between atoms: C_41  and  C_42
REMARK   11  A    between atoms: C_41  and  C_73
REMARK   12  A    between atoms: C_42  and  C_43
REMARK   13  A    between atoms: C_43  and  C_44
REMARK   14  A    between atoms: C_44  and  N_45
REMARK   15  A    between atoms: C_46  and  C_48
REMARK   16  A    between atoms: C_61  and  O_62
REMARK   17  A    between atoms: C_68  and  O_69
REMARK   18  A    between atoms: C_73  and  O_75
REMARK   19  A    between atoms: CA_79  and  CB_80
REMARK   20  A    between atoms: CB_80  and  CG_81
REMARK   21  A    between atoms: CA_87  and  CB_88
REMARK   22  A    between atoms: CB_88  and  CG2_89
REMARK   23  A    between atoms: CB_88  and  OG1_90
REMARK                            x       y       z     vdW  Elec       q    Type
REMARK                         _______ _______ _______ _____ _____    ______ ____
ROOT
ATOM      1  C   UNK A   1      -4.136   5.775 142.846  0.00  0.00    +0.000 C 
ATOM      2  N   UNK A   1      -3.909   8.018 142.778  0.00  0.00    +0.000 N 
ATOM      3  C   UNK A   1      -4.324   9.466 141.516  0.00  0.00    +0.000 C 
ATOM      4  O   UNK A   1      -5.286  10.312 140.822  0.00  0.00    +0.000 OA
ATOM      5  C   UNK A   1      -5.117   9.160 142.437  0.00  0.00    +0.000 C 
ATOM      6  N   UNK A   1      -6.374   9.851 142.204  0.00  0.00    +0.000 N 
ATOM      7  C   UNK A   0      -7.313   9.848 141.130  0.00  0.00    +0.000 C 
ATOM      8  O   UNK A   0      -8.468   9.950 141.518  0.00  0.00    +0.000 OA
ATOM      9  C   UNK A   0      -7.051   9.642 139.428  0.00  0.00    +0.000 C 
ATOM     10  C   UNK A   4      -5.631   9.904 138.791  0.00  0.00    +0.000 C 
ATOM     11  C   UNK A   4      -5.132   8.735 139.405  0.00  0.00    +0.000 C 
ATOM     12  C   UNK A   4      -3.475   8.991 139.243  0.00  0.00    +0.000 C 
ATOM     13  C   UNK A   4      -2.558  10.055 139.882  0.00  0.00    +0.000 C 
ATOM     14  C   UNK A   4      -3.040  11.115 139.070  0.00  0.00    +0.000 C 
ATOM     15  C   UNK A   4      -4.484  11.218 139.346  0.00  0.00    +0.000 C 
ATOM     16  S   UNK A   4      -5.302   9.774 137.096  0.00  0.00    +0.000 S 
ATOM     17  S   UNK A   4      -4.556   7.907 137.360  0.00  0.00    +0.000 S 
ATOM     18  C   UNK A   4      -4.489   6.509 135.044  0.00  0.00    +0.000 C 
ATOM     19  C   UNK A   4      -4.644   5.077 135.082  0.00  0.00    +0.000 C 
ATOM     20  N   UNK A   4      -3.613   4.542 135.869  0.00  0.00    +0.000 N 
ATOM     21  C   ASN A   3      -3.815   4.280 137.176  0.00  0.00    +0.000 C 
ATOM     22  O   ASN A   3      -2.918   3.505 137.697  0.00  0.00    +0.000 OA
ATOM     23  CA  ASN A   3      -4.971   5.268 137.932  0.00  0.00    +0.000 C 
ATOM     24  N   ASN A   3      -5.501   4.289 138.963  0.00  0.00    +0.000 N 
ATOM     25  C   THR A   2      -4.603   3.769 140.272  0.00  0.00    +0.000 C 
ATOM     26  O   THR A   2      -5.328   3.163 141.054  0.00  0.00    +0.000 OA
ATOM     27  CA  THR A   2      -2.666   4.322 140.556  0.00  0.00    +0.000 C 
ATOM     28  N   THR A   2      -2.181   4.944 141.886  0.00  0.00    +0.000 N 
ATOM     29  C   UNK A   1      -2.874   5.122 143.045  0.00  0.00    +0.000 C 
ATOM     30  O   UNK A   1      -2.641   4.901 144.219  0.00  0.00    +0.000 OA
ATOM     31  H   UNK A   1      -3.245   8.983 142.083  0.00  0.00    +0.000 HD
ATOM     32  H   UNK A   1      -6.380  10.365 143.036  0.00  0.00    +0.000 HD
ATOM     33  H   UNK A   4      -2.772   4.235 135.428  0.00  0.00    +0.000 HD
ATOM     34  H   ASN A   3      -6.509   4.400 139.013  0.00  0.00    +0.000 HD
ATOM     35  H   THR A   2      -2.247   5.939 141.746  0.00  0.00    +0.000 HD
ENDROOT
BRANCH  19  36
ATOM     36  C   UNK A   4      -6.100   4.490 135.255  0.00  0.00    +0.000 C 
ATOM     37  O   UNK A   4      -6.975   4.958 136.010  0.00  0.00    +0.000 OA
ATOM     38  N   PRO A   5      -6.291   3.236 134.697  0.00  0.00    +0.000 N 
ATOM     39  CD  PRO A   5      -5.375   2.158 134.349  0.00  0.00    +0.000 C 
ATOM     40  CG  PRO A   5      -5.672   1.898 132.928  0.00  0.00    +0.000 C 
ATOM     41  CB  PRO A   5      -7.193   1.964 132.972  0.00  0.00    +0.000 C 
ATOM     42  CA  PRO A   5      -7.574   2.994 134.080  0.00  0.00    +0.000 C 
BRANCH  42  43
ATOM     43  C   PRO A   5      -8.069   4.297 133.456  0.00  0.00    +0.000 C 
ATOM     44  O   PRO A   5      -9.041   4.818 134.023  0.00  0.00    +0.000 OA
ATOM     45  N   UNK A   6      -7.381   4.884 132.396  0.00  0.00    +0.000 N 
ATOM     46  H   UNK A   6      -6.786   4.345 131.761  0.00  0.00    +0.000 HD
BRANCH  45  47
ATOM     47  C   UNK A   6      -7.525   6.336 132.047  0.00  0.00    +0.000 C 
BRANCH  47  48
ATOM     48  C   UNK A   6      -8.753   6.583 131.135  0.00  0.00    +0.000 C 
ATOM     49  O   UNK A   6      -8.627   6.714 129.921  0.00  0.00    +0.000 OA
BRANCH  48  50
ATOM     50  O   UNK A   6      -9.978   6.659 131.713  0.00  0.00    +0.000 OA
ATOM     51  H   UNK A   6     -10.783   6.846 131.191  0.00  0.00    +0.000 HD
ENDBRANCH  48  50
ENDBRANCH  47  48
BRANCH  47  52
ATOM     52  C   UNK A   6      -6.259   6.793 131.316  0.00  0.00    +0.000 C 
BRANCH  52  53
ATOM     53  C   UNK A   6      -5.143   5.769 131.411  0.00  0.00    +0.000 C 
BRANCH  53  54
ATOM     54  C   UNK A   6      -3.833   6.165 130.809  0.00  0.00    +0.000 C 
BRANCH  54  55
ATOM     55  N   UNK A   6      -2.981   6.970 131.749  0.00  0.00    +0.000 N 
ATOM     56  C   UNK A   6      -2.914   8.377 131.631  0.00  0.00    +0.000 C 
ATOM     57  O   UNK A   6      -3.555   8.874 130.691  0.00  0.00    +0.000 OA
ATOM     58  H   UNK A   6      -2.493   6.448 132.461  0.00  0.00    +0.000 HD
BRANCH  56  59
ATOM     59  C   UNK A   6      -2.250   9.470 132.568  0.00  0.00    +0.000 A 
ATOM     60  C   UNK A   6      -2.132   9.185 133.825  0.00  0.00    +0.000 A 
ATOM     61  C   UNK A   6      -2.141  10.237 134.837  0.00  0.00    +0.000 A 
ATOM     62  C   UNK A   6      -1.169  10.183 135.627  0.00  0.00    +0.000 A 
ATOM     63  C   UNK A   6      -0.804  11.040 134.768  0.00  0.00    +0.000 A 
ATOM     64  C   UNK A   6      -1.564  10.637 132.976  0.00  0.00    +0.000 A 
ATOM     65  C   UNK A   6      -0.764  11.729 136.700  0.00  0.00    +0.000 C 
ATOM     66  O   UNK A   6       0.103  10.436 137.145  0.00  0.00    +0.000 OA
ATOM     67  C   UNK A   6      -0.728   9.462 136.699  0.00  0.00    +0.000 C 
ATOM     68  O   UNK A   6      -0.973   8.310 136.384  0.00  0.00    +0.000 OA
ATOM     69  C   UNK A   6       0.048  12.902 138.018  0.00  0.00    +0.000 A 
ATOM     70  C   UNK A   6      -0.185  13.342 139.477  0.00  0.00    +0.000 A 
ATOM     71  C   UNK A   6       0.255  14.657 140.060  0.00  0.00    +0.000 A 
ATOM     72  C   UNK A   6       0.965  15.537 139.258  0.00  0.00    +0.000 A 
ATOM     73  C   UNK A   6       1.286  15.122 137.971  0.00  0.00    +0.000 A 
ATOM     74  C   UNK A   6       0.894  13.851 137.440  0.00  0.00    +0.000 A 
ATOM     75  O   UNK A   6       1.353  13.534 136.197  0.00  0.00    +0.000 OA
ATOM     76  C   UNK A   6       0.347  13.302 135.313  0.00  0.00    +0.000 A 
ATOM     77  C   UNK A   6       0.707  12.928 134.004  0.00  0.00    +0.000 A 
ATOM     78  C   UNK A   6      -0.242  12.797 132.994  0.00  0.00    +0.000 A 
ATOM     79  C   UNK A   6      -1.601  13.202 133.319  0.00  0.00    +0.000 A 
ATOM     80  C   UNK A   6      -2.017  13.344 134.779  0.00  0.00    +0.000 A 
ATOM     81  C   UNK A   6      -0.960  13.134 135.762  0.00  0.00    +0.000 A 
BRANCH  78  82
ATOM     82  O   UNK A   6       0.061  12.085 131.833  0.00  0.00    +0.000 OA
ATOM     83  H   UNK A   6       1.019  11.968 131.687  0.00  0.00    +0.000 HD
ENDBRANCH  78  82
BRANCH  72  84
ATOM     84  O   UNK A   6       1.400  16.784 139.613  0.00  0.00    +0.000 OA
ATOM     85  H   UNK A   6       2.149  16.778 140.231  0.00  0.00    +0.000 HD
ENDBRANCH  72  84
ENDBRANCH  56  59
ENDBRANCH  54  55
ENDBRANCH  53  54
ENDBRANCH  52  53
ENDBRANCH  47  52
ENDBRANCH  45  47
ENDBRANCH  42  43
ENDBRANCH  19  36
BRANCH   5  86
ATOM     86  C   UNK A   1      -4.375   7.857 141.163  0.00  0.00    +0.000 A 
ATOM     87  C   UNK A   1      -2.513   7.857 141.187  0.00  0.00    +0.000 A 
ATOM     88  C   UNK A   1      -2.161   7.064 140.321  0.00  0.00    +0.000 A 
ATOM     89  C   UNK A   1      -3.549   6.169 140.128  0.00  0.00    +0.000 A 
ATOM     90  C   UNK A   1      -4.930   6.164 140.532  0.00  0.00    +0.000 A 
ATOM     91  C   UNK A   1      -5.468   7.048 141.237  0.00  0.00    +0.000 A 
BRANCH  89  92
ATOM     92  O   UNK A   1      -3.569   4.891 139.136  0.00  0.00    +0.000 OA
ATOM     93  H   UNK A   1      -4.228   4.589 138.355  0.00  0.00    +0.000 HD
ENDBRANCH  89  92
ENDBRANCH   5  86
BRANCH   1  94
ATOM     94  C   UNK A   1      -4.302   3.663 143.272  0.00  0.00    +0.000 C 
ATOM     95  C   UNK A   1      -5.599   3.026 143.960  0.00  0.00    +0.000 C 
BRANCH  94  97
ATOM     96  C   UNK A   1      -3.057   0.807 142.380  0.00  0.00    +0.000 C 
ATOM     97  C   UNK A   1      -4.288   1.544 143.035  0.00  0.00    +0.000 C 
ENDBRANCH  94  97
ENDBRANCH   1  94
BRANCH  27  98
ATOM     98  CB  THR A   2      -1.889   5.504 138.995  0.00  0.00    +0.000 C 
ATOM     99  CG2 THR A   2      -0.517   5.316 139.132  0.00  0.00    +0.000 C 
BRANCH  98 100
ATOM    100  OG1 THR A   2      -2.234   5.727 137.609  0.00  0.00    +0.000 OA
ATOM    101  HG1 THR A   2      -3.181   5.869 137.639  0.00  0.00    +0.000 HD
ENDBRANCH  98 100
ENDBRANCH  27  98
BRANCH  23 102
ATOM    102  CB  ASN A   3      -5.982   6.048 137.187  0.00  0.00    +0.000 C 
BRANCH 102 103
ATOM    103  CG  ASN A   3      -7.680   6.475 137.847  0.00  0.00    +0.000 C 
ATOM    104  ND2 ASN A   3      -8.638   7.213 136.160  0.00  0.00    +0.000 N 
ATOM    105  OD1 ASN A   3      -8.159   6.461 138.966  0.00  0.00    +0.000 OA
ATOM    106 HD21 ASN A   3      -7.935   7.544 135.394  0.00  0.00    +0.000 HD
ATOM    107 HD22 ASN A   3      -9.391   7.837 136.288  0.00  0.00    +0.000 HD
ENDBRANCH 102 103
ENDBRANCH  23 102
TORSDOF 20
ENDMDL
MODEL 5
REMARK VINA RESULT:      -9.4      1.748      2.883
REMARK  Name = CHEMBL1790722
REMARK  23 active torsions:
REMARK  status: ('A' for Active; 'I' for Inactive)
REMARK    1  A    between atoms: C_1  and  C_2
REMARK    2  A    between atoms: C_2  and  C_3
REMARK    3  A    between atoms: C_3  and  C_4
REMARK    4  A    between atoms: C_3  and  C_5
REMARK    5  A    between atoms: C_9  and  C_10
REMARK    6  A    between atoms: C_13  and  O_14
REMARK    7  A    between atoms: C_30  and  C_31
REMARK    8  A    between atoms: CA_37  and  C_38
REMARK    9  A    between atoms: N_40  and  C_41
REMARK   10  A    between atoms: C_41  and  C_42
REMARK   11  A    between atoms: C_41  and  C_73
REMARK   12  A    between atoms: C_42  and  C_43
REMARK   13  A    between atoms: C_43  and  C_44
REMARK   14  A    between atoms: C_44  and  N_45
REMARK   15  A    between atoms: C_46  and  C_48
REMARK   16  A    between atoms: C_61  and  O_62
REMARK   17  A    between atoms: C_68  and  O_69
REMARK   18  A    between atoms: C_73  and  O_75
REMARK   19  A    between atoms: CA_79  and  CB_80
REMARK   20  A    between atoms: CB_80  and  CG_81
REMARK   21  A    between atoms: CA_87  and  CB_88
REMARK   22  A    between atoms: CB_88  and  CG2_89
REMARK   23  A    between atoms: CB_88  and  OG1_90
REMARK                            x       y       z     vdW  Elec       q    Type
REMARK                         _______ _______ _______ _____ _____    ______ ____
ROOT
ATOM      1  C   UNK A   1      -5.894   4.433 128.868  0.00  0.00    +0.000 C 
ATOM      2  N   UNK A   1      -6.221   5.954 130.502  0.00  0.00    +0.000 N 
ATOM      3  C   UNK A   1      -6.046   6.020 132.458  0.00  0.00    +0.000 C 
ATOM      4  O   UNK A   1      -5.225   6.038 133.662  0.00  0.00    +0.000 OA
ATOM      5  C   UNK A   1      -5.120   6.412 131.710  0.00  0.00    +0.000 C 
ATOM      6  N   UNK A   1      -3.938   6.633 132.525  0.00  0.00    +0.000 N 
ATOM      7  C   UNK A   0      -3.158   5.792 133.373  0.00  0.00    +0.000 C 
ATOM      8  O   UNK A   0      -1.965   6.059 133.328  0.00  0.00    +0.000 OA
ATOM      9  C   UNK A   0      -3.645   4.446 134.353  0.00  0.00    +0.000 C 
ATOM     10  C   UNK A   4      -5.149   4.272 134.797  0.00  0.00    +0.000 C 
ATOM     11  C   UNK A   4      -5.510   3.940 133.473  0.00  0.00    +0.000 C 
ATOM     12  C   UNK A   4      -7.182   4.120 133.560  0.00  0.00    +0.000 C 
ATOM     13  C   UNK A   4      -8.044   5.381 133.774  0.00  0.00    +0.000 C 
ATOM     14  C   UNK A   4      -7.724   5.497 135.152  0.00  0.00    +0.000 C 
ATOM     15  C   UNK A   4      -6.262   5.663 135.220  0.00  0.00    +0.000 C 
ATOM     16  S   UNK A   4      -5.705   2.989 135.818  0.00  0.00    +0.000 S 
ATOM     17  S   UNK A   4      -6.329   1.940 134.198  0.00  0.00    +0.000 S 
ATOM     18  C   UNK A   4      -6.660  -0.686 134.762  0.00  0.00    +0.000 C 
ATOM     19  C   UNK A   4      -6.442  -1.661 133.725  0.00  0.00    +0.000 C 
ATOM     20  N   UNK A   4      -7.330  -1.393 132.673  0.00  0.00    +0.000 N 
ATOM     21  C   ASN A   3      -6.937  -0.650 131.617  0.00  0.00    +0.000 C 
ATOM     22  O   ASN A   3      -7.720  -0.748 130.591  0.00  0.00    +0.000 OA
ATOM     23  CA  ASN A   3      -5.730   0.494 131.959  0.00  0.00    +0.000 C 
ATOM     24  N   ASN A   3      -5.021   0.518 130.617  0.00  0.00    +0.000 N 
ATOM     25  C   THR A   2      -5.707   1.163 129.237  0.00  0.00    +0.000 C 
ATOM     26  O   THR A   2      -4.855   1.252 128.358  0.00  0.00    +0.000 OA
ATOM     27  CA  THR A   2      -7.607   1.889 129.199  0.00  0.00    +0.000 C 
ATOM     28  N   THR A   2      -7.927   3.309 128.679  0.00  0.00    +0.000 N 
ATOM     29  C   UNK A   1      -7.088   4.215 128.103  0.00  0.00    +0.000 C 
ATOM     30  O   UNK A   1      -7.147   4.922 127.115  0.00  0.00    +0.000 OA
ATOM     31  H   UNK A   1      -7.015   6.170 131.588  0.00  0.00    +0.000 HD
ATOM     32  H   UNK A   1      -3.838   7.586 132.328  0.00  0.00    +0.000 HD
ATOM     33  H   UNK A   4      -8.210  -1.862 132.646  0.00  0.00    +0.000 HD
ATOM     34  H   ASN A   3      -4.022   0.559 130.790  0.00  0.00    +0.000 HD
ATOM     35  H   THR A   2      -7.923   3.893 129.499  0.00  0.00    +0.000 HD
ENDROOT
BRANCH  19  36
ATOM     36  C   UNK A   4      -4.953  -2.049 133.367  0.00  0.00    +0.000 C 
ATOM     37  O   UNK A   4      -3.988  -1.258 133.367  0.00  0.00    +0.000 OA
ATOM     38  N   PRO A   5      -4.800  -3.298 132.789  0.00  0.00    +0.000 N 
ATOM     39  CD  PRO A   5      -5.712  -4.169 132.060  0.00  0.00    +0.000 C 
ATOM     40  CG  PRO A   5      -5.638  -5.443 132.799  0.00  0.00    +0.000 C 
ATOM     41  CB  PRO A   5      -4.134  -5.513 133.030  0.00  0.00    +0.000 C 
ATOM     42  CA  PRO A   5      -3.624  -4.045 133.169  0.00  0.00    +0.000 C 
BRANCH  42  43
ATOM     43  C   PRO A   5      -3.294  -3.726 134.626  0.00  0.00    +0.000 C 
ATOM     44  O   PRO A   5      -4.061  -4.225 135.462  0.00  0.00    +0.000 OA
ATOM     45  N   UNK A   6      -2.142  -3.016 134.955  0.00  0.00    +0.000 N 
ATOM     46  H   UNK A   6      -1.682  -2.378 134.299  0.00  0.00    +0.000 HD
BRANCH  45  47
ATOM     47  C   UNK A   6      -1.530  -3.062 136.324  0.00  0.00    +0.000 C 
BRANCH  47  48
ATOM     48  C   UNK A   6      -2.514  -2.546 137.404  0.00  0.00    +0.000 C 
ATOM     49  O   UNK A   6      -2.809  -1.358 137.479  0.00  0.00    +0.000 OA
BRANCH  48  50
ATOM     50  O   UNK A   6      -3.039  -3.444 138.275  0.00  0.00    +0.000 OA
ATOM     51  H   UNK A   6      -3.646  -3.172 138.992  0.00  0.00    +0.000 HD
ENDBRANCH  48  50
ENDBRANCH  47  48
BRANCH  47  52
ATOM     52  C   UNK A   6      -0.275  -2.183 136.331  0.00  0.00    +0.000 C 
BRANCH  52  53
ATOM     53  C   UNK A   6       0.508  -2.317 137.624  0.00  0.00    +0.000 C 
BRANCH  53  54
ATOM     54  C   UNK A   6       0.827  -1.042 138.336  0.00  0.00    +0.000 C 
BRANCH  54  55
ATOM     55  N   UNK A   6      -0.271  -0.023 138.223  0.00  0.00    +0.000 N 
ATOM     56  C   UNK A   6      -0.399   1.004 139.186  0.00  0.00    +0.000 C 
ATOM     57  O   UNK A   6       0.411   0.971 140.126  0.00  0.00    +0.000 OA
ATOM     58  H   UNK A   6      -0.878  -0.113 137.422  0.00  0.00    +0.000 HD
BRANCH  56  59
ATOM     59  C   UNK A   6      -1.333   2.285 139.223  0.00  0.00    +0.000 A 
ATOM     60  C   UNK A   6      -2.612   2.091 139.213  0.00  0.00    +0.000 A 
ATOM     61  C   UNK A   6      -3.518   3.081 138.638  0.00  0.00    +0.000 A 
ATOM     62  C   UNK A   6      -4.452   3.413 139.405  0.00  0.00    +0.000 A 
ATOM     63  C   UNK A   6      -3.591   4.328 139.574  0.00  0.00    +0.000 A 
ATOM     64  C   UNK A   6      -1.743   3.632 139.348  0.00  0.00    +0.000 A 
ATOM     65  C   UNK A   6      -5.440   5.019 139.014  0.00  0.00    +0.000 C 
ATOM     66  O   UNK A   6      -6.124   4.158 140.203  0.00  0.00    +0.000 OA
ATOM     67  C   UNK A   6      -5.637   2.934 139.882  0.00  0.00    +0.000 C 
ATOM     68  O   UNK A   6      -5.386   1.768 140.140  0.00  0.00    +0.000 OA
ATOM     69  C   UNK A   6      -6.766   6.437 139.090  0.00  0.00    +0.000 A 
ATOM     70  C   UNK A   6      -8.127   6.785 138.456  0.00  0.00    +0.000 A 
ATOM     71  C   UNK A   6      -8.658   8.180 138.270  0.00  0.00    +0.000 A 
ATOM     72  C   UNK A   6      -7.905   9.247 138.736  0.00  0.00    +0.000 A 
ATOM     73  C   UNK A   6      -6.725   8.959 139.410  0.00  0.00    +0.000 A 
ATOM     74  C   UNK A   6      -6.248   7.624 139.615  0.00  0.00    +0.000 A 
ATOM     75  O   UNK A   6      -5.125   7.479 140.372  0.00  0.00    +0.000 OA
ATOM     76  C   UNK A   6      -4.117   6.868 139.695  0.00  0.00    +0.000 A 
ATOM     77  C   UNK A   6      -2.916   6.631 140.394  0.00  0.00    +0.000 A 
ATOM     78  C   UNK A   6      -1.785   6.132 139.755  0.00  0.00    +0.000 A 
ATOM     79  C   UNK A   6      -1.857   6.000 138.307  0.00  0.00    +0.000 A 
ATOM     80  C   UNK A   6      -3.216   6.003 137.617  0.00  0.00    +0.000 A 
ATOM     81  C   UNK A   6      -4.367   6.227 138.484  0.00  0.00    +0.000 A 
BRANCH  78  82
ATOM     82  O   UNK A   6      -0.750   5.565 140.499  0.00  0.00    +0.000 OA
ATOM     83  H   UNK A   6      -0.613   4.616 140.314  0.00  0.00    +0.000 HD
ENDBRANCH  78  82
BRANCH  72  84
ATOM     84  O   UNK A   6      -8.217  10.573 138.611  0.00  0.00    +0.000 OA
ATOM     85  H   UNK A   6      -8.789  10.772 137.851  0.00  0.00    +0.000 HD
ENDBRANCH  72  84
ENDBRANCH  56  59
ENDBRANCH  54  55
ENDBRANCH  53  54
ENDBRANCH  52  53
ENDBRANCH  47  52
ENDBRANCH  45  47
ENDBRANCH  42  43
ENDBRANCH  19  36
BRANCH   5  86
ATOM     86  C   UNK A   1      -5.978   4.649 131.547  0.00  0.00    +0.000 A 
ATOM     87  C   UNK A   1      -7.812   4.800 131.268  0.00  0.00    +0.000 A 
ATOM     88  C   UNK A   1      -8.250   3.655 131.244  0.00  0.00    +0.000 A 
ATOM     89  C   UNK A   1      -6.862   2.794 130.932  0.00  0.00    +0.000 A 
ATOM     90  C   UNK A   1      -5.438   2.978 130.846  0.00  0.00    +0.000 A 
ATOM     91  C   UNK A   1      -4.846   4.058 131.072  0.00  0.00    +0.000 A 
BRANCH  89  92
ATOM     92  O   UNK A   1      -6.926   1.194 130.701  0.00  0.00    +0.000 OA
ATOM     93  H   UNK A   1      -6.277   0.503 130.213  0.00  0.00    +0.000 HD
ENDBRANCH  89  92
ENDBRANCH   5  86
BRANCH   1  94
ATOM     94  C   UNK A   1      -5.583   3.266 127.077  0.00  0.00    +0.000 C 
ATOM     95  C   UNK A   1      -4.233   3.349 126.223  0.00  0.00    +0.000 C 
BRANCH  94  97
ATOM     96  C   UNK A   1      -6.751   0.781 125.355  0.00  0.00    +0.000 C 
ATOM     97  C   UNK A   1      -5.466   1.613 125.734  0.00  0.00    +0.000 C 
ENDBRANCH  94  97
ENDBRANCH   1  94
BRANCH  27  98
ATOM     98  CB  THR A   2      -8.642   1.642 131.016  0.00  0.00    +0.000 C 
ATOM     99  CG2 THR A   2      -9.907   2.134 130.710  0.00  0.00    +0.000 C 
BRANCH  98 100
ATOM    100  OG1 THR A   2      -8.731   0.596 132.011  0.00  0.00    +0.000 OA
ATOM    101  HG1 THR A   2      -9.502   0.098 131.736  0.00  0.00    +0.000 HD
ENDBRANCH  98 100
ENDBRANCH  27  98
BRANCH  23 102
ATOM    102  CB  ASN A   3      -4.865   0.426 133.156  0.00  0.00    +0.000 C 
BRANCH 102 103
ATOM    103  CG  ASN A   3      -3.159   1.186 133.269  0.00  0.00    +0.000 C 
ATOM    104  ND2 ASN A   3      -2.428   0.373 135.033  0.00  0.00    +0.000 N 
ATOM    105  OD1 ASN A   3      -2.582   2.022 132.600  0.00  0.00    +0.000 OA
ATOM    106 HD21 ASN A   3      -3.224   0.013 135.687  0.00  0.00    +0.000 HD
ATOM    107 HD22 ASN A   3      -1.724   0.867 135.517  0.00  0.00    +0.000 HD
ENDBRANCH 102 103
ENDBRANCH  23 102
TORSDOF 20
ENDMDL
MODEL 6
REMARK VINA RESULT:      -9.2      4.583     12.411
REMARK  Name = CHEMBL1790722
REMARK  23 active torsions:
REMARK  status: ('A' for Active; 'I' for Inactive)
REMARK    1  A    between atoms: C_1  and  C_2
REMARK    2  A    between atoms: C_2  and  C_3
REMARK    3  A    between atoms: C_3  and  C_4
REMARK    4  A    between atoms: C_3  and  C_5
REMARK    5  A    between atoms: C_9  and  C_10
REMARK    6  A    between atoms: C_13  and  O_14
REMARK    7  A    between atoms: C_30  and  C_31
REMARK    8  A    between atoms: CA_37  and  C_38
REMARK    9  A    between atoms: N_40  and  C_41
REMARK   10  A    between atoms: C_41  and  C_42
REMARK   11  A    between atoms: C_41  and  C_73
REMARK   12  A    between atoms: C_42  and  C_43
REMARK   13  A    between atoms: C_43  and  C_44
REMARK   14  A    between atoms: C_44  and  N_45
REMARK   15  A    between atoms: C_46  and  C_48
REMARK   16  A    between atoms: C_61  and  O_62
REMARK   17  A    between atoms: C_68  and  O_69
REMARK   18  A    between atoms: C_73  and  O_75
REMARK   19  A    between atoms: CA_79  and  CB_80
REMARK   20  A    between atoms: CB_80  and  CG_81
REMARK   21  A    between atoms: CA_87  and  CB_88
REMARK   22  A    between atoms: CB_88  and  CG2_89
REMARK   23  A    between atoms: CB_88  and  OG1_90
REMARK                            x       y       z     vdW  Elec       q    Type
REMARK                         _______ _______ _______ _____ _____    ______ ____
ROOT
ATOM      1  C   UNK A   1       1.541  11.907 135.288  0.00  0.00    +0.000 C 
ATOM      2  N   UNK A   1       3.115  11.226 136.754  0.00  0.00    +0.000 N 
ATOM      3  C   UNK A   1       3.256   9.898 138.195  0.00  0.00    +0.000 C 
ATOM      4  O   UNK A   1       3.334   8.515 138.648  0.00  0.00    +0.000 OA
ATOM      5  C   UNK A   1       3.637   9.635 137.031  0.00  0.00    +0.000 C 
ATOM      6  N   UNK A   1       3.909   8.210 136.950  0.00  0.00    +0.000 N 
ATOM      7  C   UNK A   0       3.114   7.045 137.162  0.00  0.00    +0.000 C 
ATOM      8  O   UNK A   0       3.400   6.137 136.393  0.00  0.00    +0.000 OA
ATOM      9  C   UNK A   0       1.797   6.784 138.260  0.00  0.00    +0.000 C 
ATOM     10  C   UNK A   4       1.612   7.699 139.533  0.00  0.00    +0.000 C 
ATOM     11  C   UNK A   4       1.225   8.778 138.711  0.00  0.00    +0.000 C 
ATOM     12  C   UNK A   4       1.378  10.057 139.796  0.00  0.00    +0.000 C 
ATOM     13  C   UNK A   4       2.631  10.655 140.469  0.00  0.00    +0.000 C 
ATOM     14  C   UNK A   4       2.804   9.566 141.363  0.00  0.00    +0.000 C 
ATOM     15  C   UNK A   4       2.998   8.373 140.521  0.00  0.00    +0.000 C 
ATOM     16  S   UNK A   4       0.359   7.469 140.704  0.00  0.00    +0.000 S 
ATOM     17  S   UNK A   4      -0.761   8.912 139.822  0.00  0.00    +0.000 S 
ATOM     18  C   UNK A   4      -3.370   8.734 140.518  0.00  0.00    +0.000 C 
ATOM     19  C   UNK A   4      -4.378   9.158 139.581  0.00  0.00    +0.000 C 
ATOM     20  N   UNK A   4      -4.165  10.512 139.285  0.00  0.00    +0.000 N 
ATOM     21  C   ASN A   3      -3.455  10.871 138.196  0.00  0.00    +0.000 C 
ATOM     22  O   ASN A   3      -3.605  12.113 137.863  0.00  0.00    +0.000 OA
ATOM     23  CA  ASN A   3      -2.278   9.749 137.709  0.00  0.00    +0.000 C 
ATOM     24  N   ASN A   3      -2.290  10.006 136.213  0.00  0.00    +0.000 N 
ATOM     25  C   THR A   2      -1.710  11.414 135.526  0.00  0.00    +0.000 C 
ATOM     26  O   THR A   2      -1.637  11.278 134.309  0.00  0.00    +0.000 OA
ATOM     27  CA  THR A   2      -1.020  12.968 136.642  0.00  0.00    +0.000 C 
ATOM     28  N   THR A   2       0.374  13.591 136.399  0.00  0.00    +0.000 N 
ATOM     29  C   UNK A   1       1.274  13.310 135.415  0.00  0.00    +0.000 C 
ATOM     30  O   UNK A   1       1.942  13.985 134.655  0.00  0.00    +0.000 OA
ATOM     31  H   UNK A   1       3.357  11.201 138.094  0.00  0.00    +0.000 HD
ATOM     32  H   UNK A   1       4.856   8.285 136.716  0.00  0.00    +0.000 HD
ATOM     33  H   UNK A   4      -4.650  11.208 139.810  0.00  0.00    +0.000 HD
ATOM     34  H   ASN A   3      -2.226   9.110 135.740  0.00  0.00    +0.000 HD
ATOM     35  H   THR A   2       0.988  13.110 137.036  0.00  0.00    +0.000 HD
ENDROOT
BRANCH  19  36
ATOM     36  C   UNK A   4      -4.752   8.182 138.397  0.00  0.00    +0.000 C 
ATOM     37  O   UNK A   4      -3.946   7.440 137.800  0.00  0.00    +0.000 OA
ATOM     38  N   PRO A   5      -6.015   8.375 137.862  0.00  0.00    +0.000 N 
ATOM     39  CD  PRO A   5      -6.921   9.515 137.849  0.00  0.00    +0.000 C 
ATOM     40  CG  PRO A   5      -8.172   8.968 138.407  0.00  0.00    +0.000 C 
ATOM     41  CB  PRO A   5      -8.211   7.632 137.677  0.00  0.00    +0.000 C 
ATOM     42  CA  PRO A   5      -6.732   7.188 137.457  0.00  0.00    +0.000 C 
BRANCH  42  43
ATOM     43  C   PRO A   5      -6.366   6.050 138.408  0.00  0.00    +0.000 C 
ATOM     44  O   PRO A   5      -7.027   6.005 139.456  0.00  0.00    +0.000 OA
ATOM     45  N   UNK A   6      -5.429   5.088 138.039  0.00  0.00    +0.000 N 
ATOM     46  H   UNK A   6      -4.701   5.268 137.342  0.00  0.00    +0.000 HD
BRANCH  45  47
ATOM     47  C   UNK A   6      -5.358   3.739 138.692  0.00  0.00    +0.000 C 
BRANCH  47  48
ATOM     48  C   UNK A   6      -4.611   3.802 140.048  0.00  0.00    +0.000 C 
ATOM     49  O   UNK A   6      -3.419   3.522 140.130  0.00  0.00    +0.000 OA
BRANCH  48  50
ATOM     50  O   UNK A   6      -5.312   4.169 141.150  0.00  0.00    +0.000 OA
ATOM     51  H   UNK A   6      -6.164   4.643 141.085  0.00  0.00    +0.000 HD
ENDBRANCH  48  50
ENDBRANCH  47  48
BRANCH  47  52
ATOM     52  C   UNK A   6      -4.616   2.779 137.757  0.00  0.00    +0.000 C 
BRANCH  52  53
ATOM     53  C   UNK A   6      -4.216   3.446 136.453  0.00  0.00    +0.000 C 
BRANCH  53  54
ATOM     54  C   UNK A   6      -3.854   2.530 135.329  0.00  0.00    +0.000 C 
BRANCH  54  55
ATOM     55  N   UNK A   6      -4.072   3.153 133.979  0.00  0.00    +0.000 N 
ATOM     56  C   UNK A   6      -3.670   2.479 132.804  0.00  0.00    +0.000 C 
ATOM     57  O   UNK A   6      -3.099   1.389 132.971  0.00  0.00    +0.000 OA
ATOM     58  H   UNK A   6      -4.531   4.052 133.975  0.00  0.00    +0.000 HD
BRANCH  56  59
ATOM     59  C   UNK A   6      -3.925   2.811 131.274  0.00  0.00    +0.000 A 
ATOM     60  C   UNK A   6      -4.927   2.231 130.697  0.00  0.00    +0.000 A 
ATOM     61  C   UNK A   6      -4.909   1.951 129.264  0.00  0.00    +0.000 A 
ATOM     62  C   UNK A   6      -5.922   2.370 128.657  0.00  0.00    +0.000 A 
ATOM     63  C   UNK A   6      -5.065   3.284 128.468  0.00  0.00    +0.000 A 
ATOM     64  C   UNK A   6      -3.822   3.440 130.012  0.00  0.00    +0.000 A 
ATOM     65  C   UNK A   6      -5.853   2.514 126.738  0.00  0.00    +0.000 C 
ATOM     66  O   UNK A   6      -7.349   2.750 127.312  0.00  0.00    +0.000 OA
ATOM     67  C   UNK A   6      -7.238   2.060 128.474  0.00  0.00    +0.000 C 
ATOM     68  O   UNK A   6      -7.615   1.762 129.596  0.00  0.00    +0.000 OA
ATOM     69  C   UNK A   6      -6.369   2.802 124.887  0.00  0.00    +0.000 A 
ATOM     70  C   UNK A   6      -6.878   1.981 123.686  0.00  0.00    +0.000 A 
ATOM     71  C   UNK A   6      -6.667   2.346 122.243  0.00  0.00    +0.000 A 
ATOM     72  C   UNK A   6      -6.008   3.529 121.945  0.00  0.00    +0.000 A 
ATOM     73  C   UNK A   6      -5.633   4.344 123.005  0.00  0.00    +0.000 A 
ATOM     74  C   UNK A   6      -5.874   4.003 124.375  0.00  0.00    +0.000 A 
ATOM     75  O   UNK A   6      -5.539   4.935 125.311  0.00  0.00    +0.000 OA
ATOM     76  C   UNK A   6      -4.623   4.472 126.202  0.00  0.00    +0.000 A 
ATOM     77  C   UNK A   6      -4.230   5.340 127.239  0.00  0.00    +0.000 A 
ATOM     78  C   UNK A   6      -3.205   5.009 128.121  0.00  0.00    +0.000 A 
ATOM     79  C   UNK A   6      -2.466   3.788 127.834  0.00  0.00    +0.000 A 
ATOM     80  C   UNK A   6      -3.063   2.749 126.892  0.00  0.00    +0.000 A 
ATOM     81  C   UNK A   6      -4.331   3.112 126.270  0.00  0.00    +0.000 A 
BRANCH  78  82
ATOM     82  O   UNK A   6      -3.077   5.683 129.336  0.00  0.00    +0.000 OA
ATOM     83  H   UNK A   6      -3.914   6.073 129.653  0.00  0.00    +0.000 HD
ENDBRANCH  78  82
BRANCH  72  84
ATOM     84  O   UNK A   6      -5.696   3.988 120.695  0.00  0.00    +0.000 OA
ATOM     85  H   UNK A   6      -6.314   4.656 120.356  0.00  0.00    +0.000 HD
ENDBRANCH  72  84
ENDBRANCH  56  59
ENDBRANCH  54  55
ENDBRANCH  53  54
ENDBRANCH  52  53
ENDBRANCH  47  52
ENDBRANCH  45  47
ENDBRANCH  42  43
ENDBRANCH  19  36
BRANCH   5  86
ATOM     86  C   UNK A   1       1.854  10.349 137.457  0.00  0.00    +0.000 A 
ATOM     87  C   UNK A   1       1.962  11.985 138.339  0.00  0.00    +0.000 A 
ATOM     88  C   UNK A   1       0.810  12.304 138.610  0.00  0.00    +0.000 A 
ATOM     89  C   UNK A   1      -0.040  11.353 137.542  0.00  0.00    +0.000 A 
ATOM     90  C   UNK A   1       0.166  10.277 136.609  0.00  0.00    +0.000 A 
ATOM     91  C   UNK A   1       1.265   9.711 136.408  0.00  0.00    +0.000 A 
BRANCH  89  92
ATOM     92  O   UNK A   1      -1.649  11.482 137.432  0.00  0.00    +0.000 OA
ATOM     93  H   UNK A   1      -2.309  11.656 136.614  0.00  0.00    +0.000 HD
ENDBRANCH  89  92
ENDBRANCH   5  86
BRANCH   1  94
ATOM     94  C   UNK A   1       0.314  12.709 133.701  0.00  0.00    +0.000 C 
ATOM     95  C   UNK A   1       0.465  12.239 132.179  0.00  0.00    +0.000 C 
BRANCH  94  97
ATOM     96  C   UNK A   1      -2.430  14.350 133.169  0.00  0.00    +0.000 C 
ATOM     97  C   UNK A   1      -1.389  13.324 132.575  0.00  0.00    +0.000 C 
ENDBRANCH  94  97
ENDBRANCH   1  94
BRANCH  27  98
ATOM     98  CB  THR A   2      -1.218  12.672 138.718  0.00  0.00    +0.000 C 
ATOM     99  CG2 THR A   2      -1.174  13.972 139.211  0.00  0.00    +0.000 C 
BRANCH  98 100
ATOM    100  OG1 THR A   2      -2.046  11.837 139.559  0.00  0.00    +0.000 OA
ATOM    101  HG1 THR A   2      -1.617  10.982 139.509  0.00  0.00    +0.000 HD
ENDBRANCH  98 100
ENDBRANCH  27  98
BRANCH  23 102
ATOM    102  CB  ASN A   3      -2.286   8.332 138.131  0.00  0.00    +0.000 C 
BRANCH 102 103
ATOM    103  CG  ASN A   3      -1.547   6.931 137.135  0.00  0.00    +0.000 C 
ATOM    104  ND2 ASN A   3      -1.696   5.329 138.445  0.00  0.00    +0.000 N 
ATOM    105  OD1 ASN A   3      -1.002   6.888 136.047  0.00  0.00    +0.000 OA
ATOM    106 HD21 ASN A   3      -1.798   5.649 139.484  0.00  0.00    +0.000 HD
ATOM    107 HD22 ASN A   3      -1.069   4.575 138.334  0.00  0.00    +0.000 HD
ENDBRANCH 102 103
ENDBRANCH  23 102
TORSDOF 20
ENDMDL
MODEL 7
REMARK VINA RESULT:      -9.1      4.828     12.114
REMARK  Name = CHEMBL1790722
REMARK  23 active torsions:
REMARK  status: ('A' for Active; 'I' for Inactive)
REMARK    1  A    between atoms: C_1  and  C_2
REMARK    2  A    between atoms: C_2  and  C_3
REMARK    3  A    between atoms: C_3  and  C_4
REMARK    4  A    between atoms: C_3  and  C_5
REMARK    5  A    between atoms: C_9  and  C_10
REMARK    6  A    between atoms: C_13  and  O_14
REMARK    7  A    between atoms: C_30  and  C_31
REMARK    8  A    between atoms: CA_37  and  C_38
REMARK    9  A    between atoms: N_40  and  C_41
REMARK   10  A    between atoms: C_41  and  C_42
REMARK   11  A    between atoms: C_41  and  C_73
REMARK   12  A    between atoms: C_42  and  C_43
REMARK   13  A    between atoms: C_43  and  C_44
REMARK   14  A    between atoms: C_44  and  N_45
REMARK   15  A    between atoms: C_46  and  C_48
REMARK   16  A    between atoms: C_61  and  O_62
REMARK   17  A    between atoms: C_68  and  O_69
REMARK   18  A    between atoms: C_73  and  O_75
REMARK   19  A    between atoms: CA_79  and  CB_80
REMARK   20  A    between atoms: CB_80  and  CG_81
REMARK   21  A    between atoms: CA_87  and  CB_88
REMARK   22  A    between atoms: CB_88  and  CG2_89
REMARK   23  A    between atoms: CB_88  and  OG1_90
REMARK                            x       y       z     vdW  Elec       q    Type
REMARK                         _______ _______ _______ _____ _____    ______ ____
ROOT
ATOM      1  C   UNK A   1      -0.254  14.596 138.194  0.00  0.00    +0.000 C 
ATOM      2  N   UNK A   1       0.263  14.750 136.003  0.00  0.00    +0.000 N 
ATOM      3  C   UNK A   1       0.313  13.546 134.451  0.00  0.00    +0.000 C 
ATOM      4  O   UNK A   1      -0.365  12.738 133.446  0.00  0.00    +0.000 OA
ATOM      5  C   UNK A   1      -0.691  14.258 134.688  0.00  0.00    +0.000 C 
ATOM      6  N   UNK A   1      -1.771  13.828 133.818  0.00  0.00    +0.000 N 
ATOM      7  C   UNK A   0      -2.452  12.588 133.637  0.00  0.00    +0.000 C 
ATOM      8  O   UNK A   0      -3.642  12.739 133.393  0.00  0.00    +0.000 OA
ATOM      9  C   UNK A   0      -1.862  10.965 133.793  0.00  0.00    +0.000 C 
ATOM     10  C   UNK A   4      -0.318  10.653 133.701  0.00  0.00    +0.000 C 
ATOM     11  C   UNK A   4      -0.112  11.264 134.956  0.00  0.00    +0.000 C 
ATOM     12  C   UNK A   4       1.560  11.464 134.926  0.00  0.00    +0.000 C 
ATOM     13  C   UNK A   4       2.446  12.359 134.034  0.00  0.00    +0.000 C 
ATOM     14  C   UNK A   4       2.286  11.550 132.878  0.00  0.00    +0.000 C 
ATOM     15  C   UNK A   4       0.841  11.532 132.589  0.00  0.00    +0.000 C 
ATOM     16  S   UNK A   4       0.346   9.057 133.790  0.00  0.00    +0.000 S 
ATOM     17  S   UNK A   4       0.777   9.322 135.755  0.00  0.00    +0.000 S 
ATOM     18  C   UNK A   4       1.159   6.967 137.032  0.00  0.00    +0.000 C 
ATOM     19  C   UNK A   4       0.820   6.861 138.428  0.00  0.00    +0.000 C 
ATOM     20  N   UNK A   4       1.584   7.798 139.140  0.00  0.00    +0.000 N 
ATOM     21  C   ASN A   3       1.076   9.012 139.436  0.00  0.00    +0.000 C 
ATOM     22  O   ASN A   3       1.737   9.643 140.353  0.00  0.00    +0.000 OA
ATOM     23  CA  ASN A   3      -0.080   9.591 138.335  0.00  0.00    +0.000 C 
ATOM     24  N   ASN A   3      -0.937  10.412 139.280  0.00  0.00    +0.000 N 
ATOM     25  C   THR A   2      -0.411  11.833 139.985  0.00  0.00    +0.000 C 
ATOM     26  O   THR A   2      -1.357  12.400 140.522  0.00  0.00    +0.000 OA
ATOM     27  CA  THR A   2       1.475  12.548 139.722  0.00  0.00    +0.000 C 
ATOM     28  N   THR A   2       1.740  13.993 139.240  0.00  0.00    +0.000 N 
ATOM     29  C   UNK A   1       0.844  14.997 139.025  0.00  0.00    +0.000 C 
ATOM     30  O   UNK A   1       0.793  16.173 139.334  0.00  0.00    +0.000 OA
ATOM     31  H   UNK A   1       1.176  14.283 135.107  0.00  0.00    +0.000 HD
ATOM     32  H   UNK A   1      -1.890  14.679 133.350  0.00  0.00    +0.000 HD
ATOM     33  H   UNK A   4       2.454   7.516 139.539  0.00  0.00    +0.000 HD
ATOM     34  H   ASN A   3      -1.910  10.264 139.032  0.00  0.00    +0.000 HD
ATOM     35  H   THR A   2       1.832  13.921 138.240  0.00  0.00    +0.000 HD
ENDROOT
BRANCH  19  36
ATOM     36  C   UNK A   4      -0.701   6.686 138.814  0.00  0.00    +0.000 C 
ATOM     37  O   UNK A   4      -1.663   7.115 138.145  0.00  0.00    +0.000 OA
ATOM     38  N   PRO A   5      -0.925   6.236 140.105  0.00  0.00    +0.000 N 
ATOM     39  CD  PRO A   5      -0.122   6.274 141.319  0.00  0.00    +0.000 C 
ATOM     40  CG  PRO A   5      -0.075   4.863 141.746  0.00  0.00    +0.000 C 
ATOM     41  CB  PRO A   5      -1.527   4.477 141.501  0.00  0.00    +0.000 C 
ATOM     42  CA  PRO A   5      -2.026   5.318 140.286  0.00  0.00    +0.000 C 
BRANCH  42  43
ATOM     43  C   PRO A   5      -2.141   4.445 139.038  0.00  0.00    +0.000 C 
ATOM     44  O   PRO A   5      -1.379   3.467 139.007  0.00  0.00    +0.000 OA
ATOM     45  N   UNK A   6      -3.121   4.698 138.081  0.00  0.00    +0.000 N 
ATOM     46  H   UNK A   6      -3.539   5.624 137.953  0.00  0.00    +0.000 HD
BRANCH  45  47
ATOM     47  C   UNK A   6      -3.581   3.656 137.105  0.00  0.00    +0.000 C 
BRANCH  47  48
ATOM     48  C   UNK A   6      -4.517   4.261 136.027  0.00  0.00    +0.000 C 
ATOM     49  O   UNK A   6      -4.092   4.572 134.919  0.00  0.00    +0.000 OA
BRANCH  48  50
ATOM     50  O   UNK A   6      -5.824   4.446 136.342  0.00  0.00    +0.000 OA
ATOM     51  H   UNK A   6      -6.507   3.785 136.114  0.00  0.00    +0.000 HD
ENDBRANCH  48  50
ENDBRANCH  47  48
BRANCH  47  52
ATOM     52  C   UNK A   6      -4.340   2.567 137.869  0.00  0.00    +0.000 C 
BRANCH  52  53
ATOM     53  C   UNK A   6      -3.751   1.188 137.634  0.00  0.00    +0.000 C 
BRANCH  53  54
ATOM     54  C   UNK A   6      -4.231   0.465 136.418  0.00  0.00    +0.000 C 
BRANCH  54  55
ATOM     55  N   UNK A   6      -4.715   1.395 135.342  0.00  0.00    +0.000 N 
ATOM     56  C   UNK A   6      -5.884   1.095 134.605  0.00  0.00    +0.000 C 
ATOM     57  O   UNK A   6      -6.433   0.014 134.875  0.00  0.00    +0.000 OA
ATOM     58  H   UNK A   6      -4.172   2.234 135.204  0.00  0.00    +0.000 HD
BRANCH  56  59
ATOM     59  C   UNK A   6      -6.704   1.957 133.557  0.00  0.00    +0.000 A 
ATOM     60  C   UNK A   6      -7.364   2.974 134.008  0.00  0.00    +0.000 A 
ATOM     61  C   UNK A   6      -8.578   3.437 133.342  0.00  0.00    +0.000 A 
ATOM     62  C   UNK A   6      -8.570   4.663 133.078  0.00  0.00    +0.000 A 
ATOM     63  C   UNK A   6      -8.203   4.124 131.991  0.00  0.00    +0.000 A 
ATOM     64  C   UNK A   6      -7.184   2.449 132.322  0.00  0.00    +0.000 A 
ATOM     65  C   UNK A   6      -9.845   5.340 131.804  0.00  0.00    +0.000 C 
ATOM     66  O   UNK A   6      -9.052   6.531 132.562  0.00  0.00    +0.000 OA
ATOM     67  C   UNK A   6      -8.717   5.870 133.698  0.00  0.00    +0.000 C 
ATOM     68  O   UNK A   6      -8.069   5.740 134.723  0.00  0.00    +0.000 OA
ATOM     69  C   UNK A   6     -10.885   6.550 130.697  0.00  0.00    +0.000 A 
ATOM     70  C   UNK A   6     -12.228   7.306 130.753  0.00  0.00    +0.000 A 
ATOM     71  C   UNK A   6     -13.034   7.719 129.552  0.00  0.00    +0.000 A 
ATOM     72  C   UNK A   6     -12.531   7.451 128.288  0.00  0.00    +0.000 A 
ATOM     73  C   UNK A   6     -11.272   6.869 128.204  0.00  0.00    +0.000 A 
ATOM     74  C   UNK A   6     -10.497   6.515 129.355  0.00  0.00    +0.000 A 
ATOM     75  O   UNK A   6      -9.241   6.036 129.131  0.00  0.00    +0.000 OA
ATOM     76  C   UNK A   6      -9.063   4.786 129.632  0.00  0.00    +0.000 A 
ATOM     77  C   UNK A   6      -7.787   4.205 129.491  0.00  0.00    +0.000 A 
ATOM     78  C   UNK A   6      -7.541   2.884 129.852  0.00  0.00    +0.000 A 
ATOM     79  C   UNK A   6      -8.694   2.090 130.250  0.00  0.00    +0.000 A 
ATOM     80  C   UNK A   6      -9.989   2.789 130.648  0.00  0.00    +0.000 A 
ATOM     81  C   UNK A   6      -9.993   4.241 130.514  0.00  0.00    +0.000 A 
BRANCH  78  82
ATOM     82  O   UNK A   6      -6.233   2.443 130.055  0.00  0.00    +0.000 OA
ATOM     83  H   UNK A   6      -5.940   2.509 130.983  0.00  0.00    +0.000 HD
ENDBRANCH  78  82
BRANCH  72  84
ATOM     84  O   UNK A   6     -13.150   7.717 127.098  0.00  0.00    +0.000 OA
ATOM     85  H   UNK A   6     -12.945   8.595 126.736  0.00  0.00    +0.000 HD
ENDBRANCH  72  84
ENDBRANCH  56  59
ENDBRANCH  54  55
ENDBRANCH  53  54
ENDBRANCH  52  53
ENDBRANCH  47  52
ENDBRANCH  45  47
ENDBRANCH  42  43
ENDBRANCH  19  36
BRANCH   5  86
ATOM     86  C   UNK A   1       0.136  13.066 136.018  0.00  0.00    +0.000 A 
ATOM     87  C   UNK A   1       1.923  13.499 136.312  0.00  0.00    +0.000 A 
ATOM     88  C   UNK A   1       2.351  12.663 137.100  0.00  0.00    +0.000 A 
ATOM     89  C   UNK A   1       0.933  12.089 137.753  0.00  0.00    +0.000 A 
ATOM     90  C   UNK A   1      -0.491  12.177 137.564  0.00  0.00    +0.000 A 
ATOM     91  C   UNK A   1      -1.048  12.824 136.647  0.00  0.00    +0.000 A 
BRANCH  89  92
ATOM     92  O   UNK A   1       0.964  11.005 138.953  0.00  0.00    +0.000 OA
ATOM     93  H   UNK A   1       1.757  10.559 139.509  0.00  0.00    +0.000 HD
ENDBRANCH  89  92
ENDBRANCH   5  86
BRANCH   1  94
ATOM     94  C   UNK A   1      -0.772  14.813 140.280  0.00  0.00    +0.000 C 
ATOM     95  C   UNK A   1      -2.206  15.336 140.757  0.00  0.00    +0.000 C 
BRANCH  94  97
ATOM     96  C   UNK A   1       0.177  14.111 143.298  0.00  0.00    +0.000 C 
ATOM     97  C   UNK A   1      -1.053  14.385 142.350  0.00  0.00    +0.000 C 
ENDBRANCH  94  97
ENDBRANCH   1  94
BRANCH  27  98
ATOM     98  CB  THR A   2       2.710  11.276 138.584  0.00  0.00    +0.000 C 
ATOM     99  CG2 THR A   2       3.967  11.512 139.131  0.00  0.00    +0.000 C 
BRANCH  98 100
ATOM    100  OG1 THR A   2       2.613   9.916 138.103  0.00  0.00    +0.000 OA
ATOM    101  HG1 THR A   2       1.690   9.834 137.863  0.00  0.00    +0.000 HD
ENDBRANCH  98 100
ENDBRANCH  27  98
BRANCH  23 102
ATOM    102  CB  ASN A   3      -0.802   8.717 137.386  0.00  0.00    +0.000 C 
BRANCH 102 103
ATOM    103  CG  ASN A   3      -2.527   9.058 136.743  0.00  0.00    +0.000 C 
ATOM    104  ND2 ASN A   3      -2.822   7.489 135.417  0.00  0.00    +0.000 N 
ATOM    105  OD1 ASN A   3      -3.305   9.978 136.913  0.00  0.00    +0.000 OA
ATOM    106 HD21 ASN A   3      -1.884   7.042 135.086  0.00  0.00    +0.000 HD
ATOM    107 HD22 ASN A   3      -3.469   7.616 134.683  0.00  0.00    +0.000 HD
ENDBRANCH 102 103
ENDBRANCH  23 102
TORSDOF 20
ENDMDL
MODEL 8
REMARK VINA RESULT:      -9.0      4.594     12.711
REMARK  Name = CHEMBL1790722
REMARK  23 active torsions:
REMARK  status: ('A' for Active; 'I' for Inactive)
REMARK    1  A    between atoms: C_1  and  C_2
REMARK    2  A    between atoms: C_2  and  C_3
REMARK    3  A    between atoms: C_3  and  C_4
REMARK    4  A    between atoms: C_3  and  C_5
REMARK    5  A    between atoms: C_9  and  C_10
REMARK    6  A    between atoms: C_13  and  O_14
REMARK    7  A    between atoms: C_30  and  C_31
REMARK    8  A    between atoms: CA_37  and  C_38
REMARK    9  A    between atoms: N_40  and  C_41
REMARK   10  A    between atoms: C_41  and  C_42
REMARK   11  A    between atoms: C_41  and  C_73
REMARK   12  A    between atoms: C_42  and  C_43
REMARK   13  A    between atoms: C_43  and  C_44
REMARK   14  A    between atoms: C_44  and  N_45
REMARK   15  A    between atoms: C_46  and  C_48
REMARK   16  A    between atoms: C_61  and  O_62
REMARK   17  A    between atoms: C_68  and  O_69
REMARK   18  A    between atoms: C_73  and  O_75
REMARK   19  A    between atoms: CA_79  and  CB_80
REMARK   20  A    between atoms: CB_80  and  CG_81
REMARK   21  A    between atoms: CA_87  and  CB_88
REMARK   22  A    between atoms: CB_88  and  CG2_89
REMARK   23  A    between atoms: CB_88  and  OG1_90
REMARK                            x       y       z     vdW  Elec       q    Type
REMARK                         _______ _______ _______ _____ _____    ______ ____
ROOT
ATOM      1  C   UNK A   1       1.387  12.079 135.385  0.00  0.00    +0.000 C 
ATOM      2  N   UNK A   1       2.951  11.398 136.861  0.00  0.00    +0.000 N 
ATOM      3  C   UNK A   1       3.105  10.030 138.263  0.00  0.00    +0.000 C 
ATOM      4  O   UNK A   1       3.215   8.636 138.673  0.00  0.00    +0.000 OA
ATOM      5  C   UNK A   1       3.516   9.815 137.098  0.00  0.00    +0.000 C 
ATOM      6  N   UNK A   1       3.832   8.403 136.979  0.00  0.00    +0.000 N 
ATOM      7  C   UNK A   0       3.069   7.208 137.138  0.00  0.00    +0.000 C 
ATOM      8  O   UNK A   0       3.398   6.334 136.347  0.00  0.00    +0.000 OA
ATOM      9  C   UNK A   0       1.739   6.874 138.200  0.00  0.00    +0.000 C 
ATOM     10  C   UNK A   4       1.502   7.741 139.497  0.00  0.00    +0.000 C 
ATOM     11  C   UNK A   4       1.099   8.835 138.701  0.00  0.00    +0.000 C 
ATOM     12  C   UNK A   4       1.191  10.082 139.829  0.00  0.00    +0.000 C 
ATOM     13  C   UNK A   4       2.412  10.696 140.545  0.00  0.00    +0.000 C 
ATOM     14  C   UNK A   4       2.600   9.585 141.408  0.00  0.00    +0.000 C 
ATOM     15  C   UNK A   4       2.847   8.425 140.534  0.00  0.00    +0.000 C 
ATOM     16  S   UNK A   4       0.233   7.438 140.634  0.00  0.00    +0.000 S 
ATOM     17  S   UNK A   4      -0.912   8.874 139.774  0.00  0.00    +0.000 S 
ATOM     18  C   UNK A   4      -3.528   8.596 140.410  0.00  0.00    +0.000 C 
ATOM     19  C   UNK A   4      -4.530   9.020 139.466  0.00  0.00    +0.000 C 
ATOM     20  N   UNK A   4      -4.352  10.388 139.217  0.00  0.00    +0.000 N 
ATOM     21  C   ASN A   3      -3.631  10.803 138.155  0.00  0.00    +0.000 C 
ATOM     22  O   ASN A   3      -3.813  12.050 137.857  0.00  0.00    +0.000 OA
ATOM     23  CA  ASN A   3      -2.412   9.732 137.657  0.00  0.00    +0.000 C 
ATOM     24  N   ASN A   3      -2.403  10.036 136.171  0.00  0.00    +0.000 N 
ATOM     25  C   THR A   2      -1.851  11.482 135.540  0.00  0.00    +0.000 C 
ATOM     26  O   THR A   2      -1.751  11.387 134.321  0.00  0.00    +0.000 OA
ATOM     27  CA  THR A   2      -1.231  13.020 136.718  0.00  0.00    +0.000 C 
ATOM     28  N   THR A   2       0.148  13.691 136.523  0.00  0.00    +0.000 N 
ATOM     29  C   UNK A   1       1.075  13.469 135.550  0.00  0.00    +0.000 C 
ATOM     30  O   UNK A   1       1.737  14.187 134.825  0.00  0.00    +0.000 OA
ATOM     31  H   UNK A   1       3.168  11.338 138.204  0.00  0.00    +0.000 HD
ATOM     32  H   UNK A   1       4.781   8.513 136.767  0.00  0.00    +0.000 HD
ATOM     33  H   UNK A   4      -4.869  11.053 139.753  0.00  0.00    +0.000 HD
ATOM     34  H   ASN A   3      -2.301   9.159 135.671  0.00  0.00    +0.000 HD
ATOM     35  H   THR A   2       0.763  13.208 137.157  0.00  0.00    +0.000 HD
ENDROOT
BRANCH  19  36
ATOM     36  C   UNK A   4      -4.850   8.072 138.245  0.00  0.00    +0.000 C 
ATOM     37  O   UNK A   4      -4.006   7.399 137.620  0.00  0.00    +0.000 OA
ATOM     38  N   PRO A   5      -6.123   8.215 137.716  0.00  0.00    +0.000 N 
ATOM     39  CD  PRO A   5      -7.090   9.303 137.747  0.00  0.00    +0.000 C 
ATOM     40  CG  PRO A   5      -8.309   8.667 138.281  0.00  0.00    +0.000 C 
ATOM     41  CB  PRO A   5      -8.275   7.360 137.500  0.00  0.00    +0.000 C 
ATOM     42  CA  PRO A   5      -6.774   7.007 137.265  0.00  0.00    +0.000 C 
BRANCH  42  43
ATOM     43  C   PRO A   5      -6.344   5.855 138.172  0.00  0.00    +0.000 C 
ATOM     44  O   PRO A   5      -6.996   5.738 139.220  0.00  0.00    +0.000 OA
ATOM     45  N   UNK A   6      -5.362   4.956 137.763  0.00  0.00    +0.000 N 
ATOM     46  H   UNK A   6      -4.648   5.199 137.070  0.00  0.00    +0.000 HD
BRANCH  45  47
ATOM     47  C   UNK A   6      -5.219   3.590 138.365  0.00  0.00    +0.000 C 
BRANCH  47  48
ATOM     48  C   UNK A   6      -4.666   3.660 139.810  0.00  0.00    +0.000 C 
ATOM     49  O   UNK A   6      -3.459   3.725 140.027  0.00  0.00    +0.000 OA
BRANCH  48  50
ATOM     50  O   UNK A   6      -5.551   3.642 140.838  0.00  0.00    +0.000 OA
ATOM     51  H   UNK A   6      -5.748   4.443 141.363  0.00  0.00    +0.000 HD
ENDBRANCH  48  50
ENDBRANCH  47  48
BRANCH  47  52
ATOM     52  C   UNK A   6      -4.255   2.771 137.501  0.00  0.00    +0.000 C 
BRANCH  52  53
ATOM     53  C   UNK A   6      -4.484   1.278 137.648  0.00  0.00    +0.000 C 
BRANCH  53  54
ATOM     54  C   UNK A   6      -3.762   0.401 136.676  0.00  0.00    +0.000 C 
BRANCH  54  55
ATOM     55  N   UNK A   6      -4.635  -0.047 135.538  0.00  0.00    +0.000 N 
ATOM     56  C   UNK A   6      -4.370   0.381 134.217  0.00  0.00    +0.000 C 
ATOM     57  O   UNK A   6      -3.420   1.169 134.082  0.00  0.00    +0.000 OA
ATOM     58  H   UNK A   6      -5.388  -0.674 135.779  0.00  0.00    +0.000 HD
BRANCH  56  59
ATOM     59  C   UNK A   6      -5.004  -0.060 132.833  0.00  0.00    +0.000 A 
ATOM     60  C   UNK A   6      -4.213  -0.585 131.955  0.00  0.00    +0.000 A 
ATOM     61  C   UNK A   6      -4.484  -0.455 130.526  0.00  0.00    +0.000 A 
ATOM     62  C   UNK A   6      -4.472  -1.548 129.911  0.00  0.00    +0.000 A 
ATOM     63  C   UNK A   6      -5.703  -1.352 130.142  0.00  0.00    +0.000 A 
ATOM     64  C   UNK A   6      -5.970  -0.362 131.845  0.00  0.00    +0.000 A 
ATOM     65  C   UNK A   6      -5.263  -1.627 128.158  0.00  0.00    +0.000 C 
ATOM     66  O   UNK A   6      -4.456  -2.983 128.522  0.00  0.00    +0.000 OA
ATOM     67  C   UNK A   6      -3.590  -2.472 129.432  0.00  0.00    +0.000 C 
ATOM     68  O   UNK A   6      -2.782  -2.586 130.339  0.00  0.00    +0.000 OA
ATOM     69  C   UNK A   6      -5.831  -2.270 126.414  0.00  0.00    +0.000 A 
ATOM     70  C   UNK A   6      -5.324  -2.270 124.959  0.00  0.00    +0.000 A 
ATOM     71  C   UNK A   6      -6.204  -2.341 123.741  0.00  0.00    +0.000 A 
ATOM     72  C   UNK A   6      -7.574  -2.462 123.915  0.00  0.00    +0.000 A 
ATOM     73  C   UNK A   6      -8.052  -2.574 125.215  0.00  0.00    +0.000 A 
ATOM     74  C   UNK A   6      -7.200  -2.544 126.365  0.00  0.00    +0.000 A 
ATOM     75  O   UNK A   6      -7.789  -2.758 127.575  0.00  0.00    +0.000 OA
ATOM     76  C   UNK A   6      -7.620  -1.713 128.428  0.00  0.00    +0.000 A 
ATOM     77  C   UNK A   6      -8.156  -1.841 129.725  0.00  0.00    +0.000 A 
ATOM     78  C   UNK A   6      -8.151  -0.780 130.626  0.00  0.00    +0.000 A 
ATOM     79  C   UNK A   6      -7.694   0.505 130.119  0.00  0.00    +0.000 A 
ATOM     80  C   UNK A   6      -6.884   0.561 128.829  0.00  0.00    +0.000 A 
ATOM     81  C   UNK A   6      -6.696  -0.711 128.142  0.00  0.00    +0.000 A 
BRANCH  78  82
ATOM     82  O   UNK A   6      -8.336  -1.015 131.989  0.00  0.00    +0.000 OA
ATOM     83  H   UNK A   6      -9.272  -0.989 132.264  0.00  0.00    +0.000 HD
ENDBRANCH  78  82
BRANCH  72  84
ATOM     84  O   UNK A   6      -8.515  -2.495 122.924  0.00  0.00    +0.000 OA
ATOM     85  H   UNK A   6      -8.187  -2.849 122.081  0.00  0.00    +0.000 HD
ENDBRANCH  72  84
ENDBRANCH  56  59
ENDBRANCH  54  55
ENDBRANCH  53  54
ENDBRANCH  52  53
ENDBRANCH  47  52
ENDBRANCH  45  47
ENDBRANCH  42  43
ENDBRANCH  19  36
BRANCH   5  86
ATOM     86  C   UNK A   1       1.704  10.463 137.510  0.00  0.00    +0.000 A 
ATOM     87  C   UNK A   1       1.745  12.075 138.440  0.00  0.00    +0.000 A 
ATOM     88  C   UNK A   1       0.578  12.350 138.697  0.00  0.00    +0.000 A 
ATOM     89  C   UNK A   1      -0.221  11.405 137.586  0.00  0.00    +0.000 A 
ATOM     90  C   UNK A   1       0.035  10.364 136.628  0.00  0.00    +0.000 A 
ATOM     91  C   UNK A   1       1.155   9.837 136.432  0.00  0.00    +0.000 A 
BRANCH  89  92
ATOM     92  O   UNK A   1      -1.831  11.488 137.448  0.00  0.00    +0.000 OA
ATOM     93  H   UNK A   1      -2.492  11.444 136.613  0.00  0.00    +0.000 HD
ENDBRANCH  89  92
ENDBRANCH   5  86
BRANCH   1  94
ATOM     94  C   UNK A   1       0.168  12.894 133.799  0.00  0.00    +0.000 C 
ATOM     95  C   UNK A   1       0.300  12.410 132.280  0.00  0.00    +0.000 C 
BRANCH  94  97
ATOM     96  C   UNK A   1      -2.617  14.481 133.318  0.00  0.00    +0.000 C 
ATOM     97  C   UNK A   1      -1.529  13.536 132.677  0.00  0.00    +0.000 C 
ENDBRANCH  94  97
ENDBRANCH   1  94
BRANCH  27  98
ATOM     98  CB  THR A   2      -1.461  12.652 138.778  0.00  0.00    +0.000 C 
ATOM     99  CG2 THR A   2      -1.592  13.935 139.299  0.00  0.00    +0.000 C 
BRANCH  98 100
ATOM    100  OG1 THR A   2      -2.209  11.703 139.573  0.00  0.00    +0.000 OA
ATOM    101  HG1 THR A   2      -1.725  11.680 140.399  0.00  0.00    +0.000 HD
ENDBRANCH  98 100
ENDBRANCH  27  98
BRANCH  23 102
ATOM    102  CB  ASN A   3      -2.385   8.303 138.035  0.00  0.00    +0.000 C 
BRANCH 102 103
ATOM    103  CG  ASN A   3      -1.577   6.958 137.015  0.00  0.00    +0.000 C 
ATOM    104  ND2 ASN A   3      -1.742   5.303 138.256  0.00  0.00    +0.000 N 
ATOM    105  OD1 ASN A   3      -0.989   6.970 135.949  0.00  0.00    +0.000 OA
ATOM    106 HD21 ASN A   3      -1.891   5.579 139.301  0.00  0.00    +0.000 HD
ATOM    107 HD22 ASN A   3      -1.094   4.568 138.140  0.00  0.00    +0.000 HD
ENDBRANCH 102 103
ENDBRANCH  23 102
TORSDOF 20
ENDMDL
MODEL 9
REMARK VINA RESULT:      -9.0      5.227     13.880
REMARK  Name = CHEMBL1790722
REMARK  23 active torsions:
REMARK  status: ('A' for Active; 'I' for Inactive)
REMARK    1  A    between atoms: C_1  and  C_2
REMARK    2  A    between atoms: C_2  and  C_3
REMARK    3  A    between atoms: C_3  and  C_4
REMARK    4  A    between atoms: C_3  and  C_5
REMARK    5  A    between atoms: C_9  and  C_10
REMARK    6  A    between atoms: C_13  and  O_14
REMARK    7  A    between atoms: C_30  and  C_31
REMARK    8  A    between atoms: CA_37  and  C_38
REMARK    9  A    between atoms: N_40  and  C_41
REMARK   10  A    between atoms: C_41  and  C_42
REMARK   11  A    between atoms: C_41  and  C_73
REMARK   12  A    between atoms: C_42  and  C_43
REMARK   13  A    between atoms: C_43  and  C_44
REMARK   14  A    between atoms: C_44  and  N_45
REMARK   15  A    between atoms: C_46  and  C_48
REMARK   16  A    between atoms: C_61  and  O_62
REMARK   17  A    between atoms: C_68  and  O_69
REMARK   18  A    between atoms: C_73  and  O_75
REMARK   19  A    between atoms: CA_79  and  CB_80
REMARK   20  A    between atoms: CB_80  and  CG_81
REMARK   21  A    between atoms: CA_87  and  CB_88
REMARK   22  A    between atoms: CB_88  and  CG2_89
REMARK   23  A    between atoms: CB_88  and  OG1_90
REMARK                            x       y       z     vdW  Elec       q    Type
REMARK                         _______ _______ _______ _____ _____    ______ ____
ROOT
ATOM      1  C   UNK A   1       2.057  13.186 140.001  0.00  0.00    +0.000 C 
ATOM      2  N   UNK A   1       2.655  14.235 138.095  0.00  0.00    +0.000 N 
ATOM      3  C   UNK A   1       2.206  14.111 136.186  0.00  0.00    +0.000 C 
ATOM      4  O   UNK A   1       1.269  14.292 135.085  0.00  0.00    +0.000 OA
ATOM      5  C   UNK A   1       1.623  14.926 136.938  0.00  0.00    +0.000 C 
ATOM      6  N   UNK A   1       0.491  15.483 136.217  0.00  0.00    +0.000 N 
ATOM      7  C   UNK A   0      -0.668  14.910 135.615  0.00  0.00    +0.000 C 
ATOM      8  O   UNK A   0      -1.655  15.625 135.729  0.00  0.00    +0.000 OA
ATOM      9  C   UNK A   0      -0.875  13.367 134.852  0.00  0.00    +0.000 C 
ATOM     10  C   UNK A   4       0.367  12.565 134.301  0.00  0.00    +0.000 C 
ATOM     11  C   UNK A   4       0.786  12.292 135.620  0.00  0.00    +0.000 C 
ATOM     12  C   UNK A   4       2.370  11.793 135.339  0.00  0.00    +0.000 C 
ATOM     13  C   UNK A   4       3.590  12.580 134.817  0.00  0.00    +0.000 C 
ATOM     14  C   UNK A   4       3.120  12.633 133.478  0.00  0.00    +0.000 C 
ATOM     15  C   UNK A   4       1.831  13.345 133.526  0.00  0.00    +0.000 C 
ATOM     16  S   UNK A   4       0.239  11.047 133.478  0.00  0.00    +0.000 S 
ATOM     17  S   UNK A   4       0.683  10.055 135.191  0.00  0.00    +0.000 S 
ATOM     18  C   UNK A   4      -0.073   7.460 135.081  0.00  0.00    +0.000 C 
ATOM     19  C   UNK A   4      -0.466   6.789 136.294  0.00  0.00    +0.000 C 
ATOM     20  N   UNK A   4       0.615   6.824 137.187  0.00  0.00    +0.000 N 
ATOM     21  C   ASN A   3       0.698   7.790 138.125  0.00  0.00    +0.000 C 
ATOM     22  O   ASN A   3       1.543   7.528 139.070  0.00  0.00    +0.000 OA
ATOM     23  CA  ASN A   3      -0.041   9.259 137.703  0.00  0.00    +0.000 C 
ATOM     24  N   ASN A   3      -0.466   9.731 139.081  0.00  0.00    +0.000 N 
ATOM     25  C   THR A   2       0.620  10.229 140.248  0.00  0.00    +0.000 C 
ATOM     26  O   THR A   2       0.014  10.756 141.175  0.00  0.00    +0.000 OA
ATOM     27  CA  THR A   2       2.634  10.156 139.968  0.00  0.00    +0.000 C 
ATOM     28  N   THR A   2       3.534  11.393 140.189  0.00  0.00    +0.000 N 
ATOM     29  C   UNK A   1       3.192  12.621 140.671  0.00  0.00    +0.000 C 
ATOM     30  O   UNK A   1       3.664  13.370 141.505  0.00  0.00    +0.000 OA
ATOM     31  H   UNK A   1       3.288  13.983 136.916  0.00  0.00    +0.000 HD
ATOM     32  H   UNK A   1       0.782  16.416 136.247  0.00  0.00    +0.000 HD
ATOM     33  H   UNK A   4       1.252   6.056 137.211  0.00  0.00    +0.000 HD
ATOM     34  H   ASN A   3      -1.394  10.135 139.003  0.00  0.00    +0.000 HD
ATOM     35  H   THR A   2       3.614  11.822 139.281  0.00  0.00    +0.000 HD
ENDROOT
BRANCH  19  36
ATOM     36  C   UNK A   4      -1.915   7.062 136.860  0.00  0.00    +0.000 C 
ATOM     37  O   UNK A   4      -2.641   8.022 136.533  0.00  0.00    +0.000 OA
ATOM     38  N   PRO A   5      -2.261   6.300 137.963  0.00  0.00    +0.000 N 
ATOM     39  CD  PRO A   5      -1.473   5.606 138.973  0.00  0.00    +0.000 C 
ATOM     40  CG  PRO A   5      -1.988   4.224 138.923  0.00  0.00    +0.000 C 
ATOM     41  CB  PRO A   5      -3.479   4.514 138.821  0.00  0.00    +0.000 C 
ATOM     42  CA  PRO A   5      -3.632   5.852 138.034  0.00  0.00    +0.000 C 
BRANCH  42  43
ATOM     43  C   PRO A   5      -4.131   5.587 136.614  0.00  0.00    +0.000 C 
ATOM     44  O   PRO A   5      -5.165   6.194 136.297  0.00  0.00    +0.000 OA
ATOM     45  N   UNK A   6      -3.389   4.802 135.735  0.00  0.00    +0.000 N 
ATOM     46  H   UNK A   6      -2.724   4.093 136.057  0.00  0.00    +0.000 HD
BRANCH  45  47
ATOM     47  C   UNK A   6      -3.566   4.872 134.247  0.00  0.00    +0.000 C 
BRANCH  47  48
ATOM     48  C   UNK A   6      -3.303   3.500 133.578  0.00  0.00    +0.000 C 
ATOM     49  O   UNK A   6      -3.396   3.357 132.362  0.00  0.00    +0.000 OA
BRANCH  48  50
ATOM     50  O   UNK A   6      -2.974   2.450 134.372  0.00  0.00    +0.000 OA
ATOM     51  H   UNK A   6      -2.213   1.871 134.170  0.00  0.00    +0.000 HD
ENDBRANCH  48  50
ENDBRANCH  47  48
BRANCH  47  52
ATOM     52  C   UNK A   6      -2.579   5.900 133.683  0.00  0.00    +0.000 C 
BRANCH  52  53
ATOM     53  C   UNK A   6      -3.280   7.148 133.179  0.00  0.00    +0.000 C 
BRANCH  53  54
ATOM     54  C   UNK A   6      -3.157   7.427 131.716  0.00  0.00    +0.000 C 
BRANCH  54  55
ATOM     55  N   UNK A   6      -3.498   6.237 130.866  0.00  0.00    +0.000 N 
ATOM     56  C   UNK A   6      -4.759   6.143 130.233  0.00  0.00    +0.000 C 
ATOM     57  O   UNK A   6      -5.553   7.069 130.466  0.00  0.00    +0.000 OA
ATOM     58  H   UNK A   6      -2.774   5.541 130.768  0.00  0.00    +0.000 HD
BRANCH  56  59
ATOM     59  C   UNK A   6      -5.314   5.110 129.165  0.00  0.00    +0.000 A 
ATOM     60  C   UNK A   6      -6.154   4.219 129.579  0.00  0.00    +0.000 A 
ATOM     61  C   UNK A   6      -6.248   2.915 128.929  0.00  0.00    +0.000 A 
ATOM     62  C   UNK A   6      -7.415   2.601 128.596  0.00  0.00    +0.000 A 
ATOM     63  C   UNK A   6      -6.920   3.076 127.530  0.00  0.00    +0.000 A 
ATOM     64  C   UNK A   6      -5.587   4.498 127.921  0.00  0.00    +0.000 A 
ATOM     65  C   UNK A   6      -7.661   1.174 127.329  0.00  0.00    +0.000 C 
ATOM     66  O   UNK A   6      -9.061   1.646 127.992  0.00  0.00    +0.000 OA
ATOM     67  C   UNK A   6      -8.581   2.160 129.151  0.00  0.00    +0.000 C 
ATOM     68  O   UNK A   6      -8.687   2.838 130.160  0.00  0.00    +0.000 OA
ATOM     69  C   UNK A   6      -8.492  -0.163 126.190  0.00  0.00    +0.000 A 
ATOM     70  C   UNK A   6      -8.881  -1.654 126.248  0.00  0.00    +0.000 A 
ATOM     71  C   UNK A   6      -8.996  -2.560 125.053  0.00  0.00    +0.000 A 
ATOM     72  C   UNK A   6      -8.786  -2.027 123.790  0.00  0.00    +0.000 A 
ATOM     73  C   UNK A   6      -8.542  -0.663 123.698  0.00  0.00    +0.000 A 
ATOM     74  C   UNK A   6      -8.472   0.197 124.841  0.00  0.00    +0.000 A 
ATOM     75  O   UNK A   6      -8.318   1.530 124.602  0.00  0.00    +0.000 OA
ATOM     76  C   UNK A   6      -7.189   2.033 125.167  0.00  0.00    +0.000 A 
ATOM     77  C   UNK A   6      -6.947   3.412 125.016  0.00  0.00    +0.000 A 
ATOM     78  C   UNK A   6      -5.758   3.997 125.444  0.00  0.00    +0.000 A 
ATOM     79  C   UNK A   6      -4.722   3.095 125.924  0.00  0.00    +0.000 A 
ATOM     80  C   UNK A   6      -5.090   1.671 126.325  0.00  0.00    +0.000 A 
ATOM     81  C   UNK A   6      -6.481   1.291 126.110  0.00  0.00    +0.000 A 
BRANCH  78  82
ATOM     82  O   UNK A   6      -5.681   5.378 125.627  0.00  0.00    +0.000 OA
ATOM     83  H   UNK A   6      -6.485   5.853 125.346  0.00  0.00    +0.000 HD
ENDBRANCH  78  82
BRANCH  72  84
ATOM     84  O   UNK A   6      -8.809  -2.715 122.608  0.00  0.00    +0.000 OA
ATOM     85  H   UNK A   6      -8.421  -2.228 121.863  0.00  0.00    +0.000 HD
ENDBRANCH  72  84
ENDBRANCH  56  59
ENDBRANCH  54  55
ENDBRANCH  53  54
ENDBRANCH  52  53
ENDBRANCH  47  52
ENDBRANCH  45  47
ENDBRANCH  42  43
ENDBRANCH  19  36
BRANCH   5  86
ATOM     86  C   UNK A   1       1.785  13.005 137.332  0.00  0.00    +0.000 A 
ATOM     87  C   UNK A   1       3.565  12.467 137.411  0.00  0.00    +0.000 A 
ATOM     88  C   UNK A   1       3.548  11.255 137.597  0.00  0.00    +0.000 A 
ATOM     89  C   UNK A   1       2.005  11.048 138.182  0.00  0.00    +0.000 A 
ATOM     90  C   UNK A   1       0.780  11.780 138.363  0.00  0.00    +0.000 A 
ATOM     91  C   UNK A   1       0.601  12.967 138.006  0.00  0.00    +0.000 A 
BRANCH  89  92
ATOM     92  O   UNK A   1       1.509   9.592 138.685  0.00  0.00    +0.000 OA
ATOM     93  H   UNK A   1       0.583   9.071 138.601  0.00  0.00    +0.000 HD
ENDBRANCH  89  92
ENDBRANCH   5  86
BRANCH   1  94
ATOM     94  C   UNK A   1       1.628  12.474 141.995  0.00  0.00    +0.000 C 
ATOM     95  C   UNK A   1       0.458  13.093 142.894  0.00  0.00    +0.000 C 
BRANCH  94  97
ATOM     96  C   UNK A   1       2.051   9.871 143.879  0.00  0.00    +0.000 C 
ATOM     97  C   UNK A   1       1.198  11.174 143.630  0.00  0.00    +0.000 C 
ENDBRANCH  94  97
ENDBRANCH   1  94
BRANCH  27  98
ATOM     98  CB  THR A   2       3.200   9.293 138.132  0.00  0.00    +0.000 C 
ATOM     99  CG2 THR A   2       4.438   8.735 138.432  0.00  0.00    +0.000 C 
BRANCH  98 100
ATOM    100  OG1 THR A   2       2.527   8.518 137.114  0.00  0.00    +0.000 OA
ATOM    101  HG1 THR A   2       2.218   7.748 137.593  0.00  0.00    +0.000 HD
ENDBRANCH  98 100
ENDBRANCH  27  98
BRANCH  23 102
ATOM    102  CB  ASN A   3      -1.049   9.380 136.628  0.00  0.00    +0.000 C 
BRANCH 102 103
ATOM    103  CG  ASN A   3      -2.378  10.696 136.573  0.00  0.00    +0.000 C 
ATOM    104  ND2 ASN A   3      -3.037  10.576 134.608  0.00  0.00    +0.000 N 
ATOM    105  OD1 ASN A   3      -2.756  11.523 137.381  0.00  0.00    +0.000 OA
ATOM    106 HD21 ASN A   3      -2.305  10.105 133.951  0.00  0.00    +0.000 HD
ATOM    107 HD22 ASN A   3      -3.456  11.375 134.208  0.00  0.00    +0.000 HD
ENDBRANCH 102 103
ENDBRANCH  23 102
TORSDOF 20
ENDMDL
