MODEL 1
REMARK VINA RESULT:      -9.5      0.000      0.000
REMARK  Name = CHEMBL105039
REMARK  8 active torsions:
REMARK  status: ('A' for Active; 'I' for Inactive)
REMARK    1  A    between atoms: C_1  and  O_2
REMARK    2  A    between atoms: O_2  and  C_3
REMARK    3  A    between atoms: C_5  and  O_6
REMARK    4  A    between atoms: O_6  and  C_7
REMARK    5  A    between atoms: C_7  and  C_8
REMARK    6  A    between atoms: C_7  and  C_9
REMARK    7  A    between atoms: C_12  and  C_13
REMARK    8  A    between atoms: C_18  and  N_19
REMARK                            x       y       z     vdW  Elec       q    Type
REMARK                         _______ _______ _______ _____ _____    ______ ____
ROOT
ATOM      1  C   UNL     1      -6.999   1.040 129.717  0.00  0.00    +0.000 C 
ATOM      2  O   UNL     1      -5.821   0.782 129.994  0.00  0.00    +0.000 OA
ATOM      3  N   UNL     1      -7.692   2.059 130.424  0.00  0.00    +0.000 N 
ATOM      4  C   UNL     1      -7.195   3.487 130.240  0.00  0.00    +0.000 C 
ATOM      5  C   UNL     1      -7.468   4.359 131.434  0.00  0.00    +0.000 C 
ATOM      6  C   UNL     1      -9.195   4.649 131.550  0.00  0.00    +0.000 C 
ATOM      7  C   UNL     1      -9.436   2.912 132.021  0.00  0.00    +0.000 C 
ATOM      8  C   UNL     1      -9.086   1.846 130.988  0.00  0.00    +0.000 C 
ENDROOT
BRANCH   6   9
ATOM      9  N   UNL     1      -9.837   6.113 130.540  0.00  0.00    +0.000 N 
ATOM     10  C   UNL     1     -10.704   6.202 131.736  0.00  0.00    +0.000 C 
ATOM     11  O   UNL     1     -10.431   6.280 132.867  0.00  0.00    +0.000 OA
ATOM     12  O   UNL     1     -12.012   5.991 131.444  0.00  0.00    +0.000 OA
ATOM     13  C   UNL     1     -12.351   7.319 131.345  0.00  0.00    +0.000 C 
ATOM     14  C   UNL     1     -12.286   7.216 129.898  0.00  0.00    +0.000 A 
ATOM     15  C   UNL     1     -13.491   7.112 129.108  0.00  0.00    +0.000 A 
ATOM     16  C   UNL     1     -13.647   7.540 127.806  0.00  0.00    +0.000 A 
ATOM     17  C   UNL     1     -12.618   8.354 127.458  0.00  0.00    +0.000 A 
ATOM     18  C   UNL     1     -11.249   8.141 128.252  0.00  0.00    +0.000 A 
ATOM     19  C   UNL     1     -11.002   7.041 129.411  0.00  0.00    +0.000 A 
ENDBRANCH   6   9
BRANCH   1  25
ATOM     20  C   UNL     1      -8.235   0.891 127.396  0.00  0.00    +0.000 A 
ATOM     21  C   UNL     1      -8.733   0.075 126.356  0.00  0.00    +0.000 A 
ATOM     22  C   UNL     1      -8.637  -1.309 126.395  0.00  0.00    +0.000 A 
ATOM     23  C   UNL     1      -7.867  -1.867 127.401  0.00  0.00    +0.000 A 
ATOM     24  C   UNL     1      -7.423  -1.087 128.479  0.00  0.00    +0.000 A 
ATOM     25  C   UNL     1      -7.606   0.322 128.519  0.00  0.00    +0.000 A 
BRANCH  20  27
ATOM     26  C   UNL     1      -7.662   2.982 126.475  0.00  0.00    +0.000 C 
ATOM     27  O   UNL     1      -8.594   2.192 127.168  0.00  0.00    +0.000 OA
ENDBRANCH  20  27
BRANCH  22  28
ATOM     28  O   UNL     1      -9.375  -2.018 125.483  0.00  0.00    +0.000 OA
BRANCH  28  29
ATOM     29  C   UNL     1      -8.661  -2.698 124.430  0.00  0.00    +0.000 C 
ATOM     30  C   UNL     1      -8.074  -4.061 124.837  0.00  0.00    +0.000 C 
ATOM     31  C   UNL     1      -9.637  -2.957 123.281  0.00  0.00    +0.000 C 
ENDBRANCH  28  29
ENDBRANCH  22  28
ENDBRANCH   1  25
TORSDOF 5
ENDMDL
MODEL 2
REMARK VINA RESULT:      -9.4      0.994      1.821
REMARK  Name = CHEMBL105039
REMARK  8 active torsions:
REMARK  status: ('A' for Active; 'I' for Inactive)
REMARK    1  A    between atoms: C_1  and  O_2
REMARK    2  A    between atoms: O_2  and  C_3
REMARK    3  A    between atoms: C_5  and  O_6
REMARK    4  A    between atoms: O_6  and  C_7
REMARK    5  A    between atoms: C_7  and  C_8
REMARK    6  A    between atoms: C_7  and  C_9
REMARK    7  A    between atoms: C_12  and  C_13
REMARK    8  A    between atoms: C_18  and  N_19
REMARK                            x       y       z     vdW  Elec       q    Type
REMARK                         _______ _______ _______ _____ _____    ______ ____
ROOT
ATOM      1  C   UNL     1      -6.865   1.083 129.277  0.00  0.00    +0.000 C 
ATOM      2  O   UNL     1      -5.671   0.814 129.454  0.00  0.00    +0.000 OA
ATOM      3  N   UNL     1      -7.498   2.079 130.069  0.00  0.00    +0.000 N 
ATOM      4  C   UNL     1      -7.011   3.511 129.895  0.00  0.00    +0.000 C 
ATOM      5  C   UNL     1      -7.187   4.343 131.135  0.00  0.00    +0.000 C 
ATOM      6  C   UNL     1      -8.899   4.632 131.393  0.00  0.00    +0.000 C 
ATOM      7  C   UNL     1      -9.110   2.881 131.824  0.00  0.00    +0.000 C 
ATOM      8  C   UNL     1      -8.845   1.849 130.732  0.00  0.00    +0.000 C 
ENDROOT
BRANCH   6   9
ATOM      9  N   UNL     1      -9.611   6.130 130.484  0.00  0.00    +0.000 N 
ATOM     10  C   UNL     1     -10.447   6.125 131.705  0.00  0.00    +0.000 C 
ATOM     11  O   UNL     1     -10.146   6.148 132.832  0.00  0.00    +0.000 OA
ATOM     12  O   UNL     1     -11.755   5.891 131.436  0.00  0.00    +0.000 OA
ATOM     13  C   UNL     1     -12.136   7.212 131.421  0.00  0.00    +0.000 C 
ATOM     14  C   UNL     1     -12.107   7.191 129.969  0.00  0.00    +0.000 A 
ATOM     15  C   UNL     1     -13.329   7.095 129.205  0.00  0.00    +0.000 A 
ATOM     16  C   UNL     1     -13.534   7.591 127.935  0.00  0.00    +0.000 A 
ATOM     17  C   UNL     1     -12.538   8.454 127.607  0.00  0.00    +0.000 A 
ATOM     18  C   UNL     1     -11.143   8.239 128.352  0.00  0.00    +0.000 A 
ATOM     19  C   UNL     1     -10.833   7.084 129.440  0.00  0.00    +0.000 A 
ENDBRANCH   6   9
BRANCH   1  25
ATOM     20  C   UNL     1      -7.676  -0.972 127.842  0.00  0.00    +0.000 A 
ATOM     21  C   UNL     1      -8.381  -1.436 126.710  0.00  0.00    +0.000 A 
ATOM     22  C   UNL     1      -8.981  -0.568 125.808  0.00  0.00    +0.000 A 
ATOM     23  C   UNL     1      -9.032   0.772 126.151  0.00  0.00    +0.000 A 
ATOM     24  C   UNL     1      -8.283   1.265 127.230  0.00  0.00    +0.000 A 
ATOM     25  C   UNL     1      -7.565   0.406 128.107  0.00  0.00    +0.000 A 
BRANCH  20  27
ATOM     26  C   UNL     1      -7.899  -2.853 129.243  0.00  0.00    +0.000 C 
ATOM     27  O   UNL     1      -7.068  -2.027 128.467  0.00  0.00    +0.000 OA
ENDBRANCH  20  27
BRANCH  22  28
ATOM     28  O   UNL     1      -9.407  -1.093 124.617  0.00  0.00    +0.000 OA
BRANCH  28  29
ATOM     29  C   UNL     1      -8.664  -2.202 124.071  0.00  0.00    +0.000 C 
ATOM     30  C   UNL     1      -9.537  -3.310 123.454  0.00  0.00    +0.000 C 
ATOM     31  C   UNL     1      -7.762  -1.672 122.956  0.00  0.00    +0.000 C 
ENDBRANCH  28  29
ENDBRANCH  22  28
ENDBRANCH   1  25
TORSDOF 5
ENDMDL
MODEL 3
REMARK VINA RESULT:      -8.6      1.970      2.160
REMARK  Name = CHEMBL105039
REMARK  8 active torsions:
REMARK  status: ('A' for Active; 'I' for Inactive)
REMARK    1  A    between atoms: C_1  and  O_2
REMARK    2  A    between atoms: O_2  and  C_3
REMARK    3  A    between atoms: C_5  and  O_6
REMARK    4  A    between atoms: O_6  and  C_7
REMARK    5  A    between atoms: C_7  and  C_8
REMARK    6  A    between atoms: C_7  and  C_9
REMARK    7  A    between atoms: C_12  and  C_13
REMARK    8  A    between atoms: C_18  and  N_19
REMARK                            x       y       z     vdW  Elec       q    Type
REMARK                         _______ _______ _______ _____ _____    ______ ____
ROOT
ATOM      1  C   UNL     1      -4.926   2.673 128.948  0.00  0.00    +0.000 C 
ATOM      2  O   UNL     1      -3.695   2.756 129.037  0.00  0.00    +0.000 OA
ATOM      3  N   UNL     1      -5.757   3.442 129.807  0.00  0.00    +0.000 N 
ATOM      4  C   UNL     1      -5.711   4.955 129.639  0.00  0.00    +0.000 C 
ATOM      5  C   UNL     1      -6.027   5.693 130.910  0.00  0.00    +0.000 C 
ATOM      6  C   UNL     1      -7.727   5.480 131.290  0.00  0.00    +0.000 C 
ATOM      7  C   UNL     1      -7.400   3.738 131.686  0.00  0.00    +0.000 C 
ATOM      8  C   UNL     1      -6.932   2.832 130.552  0.00  0.00    +0.000 C 
ENDROOT
BRANCH   6   9
ATOM      9  N   UNL     1      -8.899   6.717 130.472  0.00  0.00    +0.000 N 
ATOM     10  C   UNL     1      -9.705   6.308 131.644  0.00  0.00    +0.000 C 
ATOM     11  O   UNL     1      -9.453   6.327 132.782  0.00  0.00    +0.000 OA
ATOM     12  O   UNL     1     -10.843   5.662 131.288  0.00  0.00    +0.000 OA
ATOM     13  C   UNL     1     -11.661   6.765 131.362  0.00  0.00    +0.000 C 
ATOM     14  C   UNL     1     -11.598   6.894 129.917  0.00  0.00    +0.000 A 
ATOM     15  C   UNL     1     -12.695   6.454 129.086  0.00  0.00    +0.000 A 
ATOM     16  C   UNL     1     -13.034   6.967 127.852  0.00  0.00    +0.000 A 
ATOM     17  C   UNL     1     -12.396   8.148 127.648  0.00  0.00    +0.000 A 
ATOM     18  C   UNL     1     -11.029   8.359 128.444  0.00  0.00    +0.000 A 
ATOM     19  C   UNL     1     -10.356   7.285 129.448  0.00  0.00    +0.000 A 
ENDBRANCH   6   9
BRANCH   1  25
ATOM     20  C   UNL     1      -5.899   2.266 126.534  0.00  0.00    +0.000 A 
ATOM     21  C   UNL     1      -6.385   1.344 125.580  0.00  0.00    +0.000 A 
ATOM     22  C   UNL     1      -6.488  -0.013 125.853  0.00  0.00    +0.000 A 
ATOM     23  C   UNL     1      -5.923  -0.472 127.029  0.00  0.00    +0.000 A 
ATOM     24  C   UNL     1      -5.499   0.427 128.019  0.00  0.00    +0.000 A 
ATOM     25  C   UNL     1      -5.487   1.833 127.809  0.00  0.00    +0.000 A 
BRANCH  20  27
ATOM     26  C   UNL     1      -5.070   3.975 125.142  0.00  0.00    +0.000 C 
ATOM     27  O   UNL     1      -6.044   3.540 126.056  0.00  0.00    +0.000 OA
ENDBRANCH  20  27
BRANCH  22  28
ATOM     28  O   UNL     1      -7.209  -0.778 124.974  0.00  0.00    +0.000 OA
BRANCH  28  29
ATOM     29  C   UNL     1      -6.555  -1.193 123.757  0.00  0.00    +0.000 C 
ATOM     30  C   UNL     1      -5.514  -2.311 123.944  0.00  0.00    +0.000 C 
ATOM     31  C   UNL     1      -7.621  -1.731 122.800  0.00  0.00    +0.000 C 
ENDBRANCH  28  29
ENDBRANCH  22  28
ENDBRANCH   1  25
TORSDOF 5
ENDMDL
MODEL 4
REMARK VINA RESULT:      -8.5      2.602      8.885
REMARK  Name = CHEMBL105039
REMARK  8 active torsions:
REMARK  status: ('A' for Active; 'I' for Inactive)
REMARK    1  A    between atoms: C_1  and  O_2
REMARK    2  A    between atoms: O_2  and  C_3
REMARK    3  A    between atoms: C_5  and  O_6
REMARK    4  A    between atoms: O_6  and  C_7
REMARK    5  A    between atoms: C_7  and  C_8
REMARK    6  A    between atoms: C_7  and  C_9
REMARK    7  A    between atoms: C_12  and  C_13
REMARK    8  A    between atoms: C_18  and  N_19
REMARK                            x       y       z     vdW  Elec       q    Type
REMARK                         _______ _______ _______ _____ _____    ______ ____
ROOT
ATOM      1  C   UNL     1      -7.764   3.828 132.833  0.00  0.00    +0.000 C 
ATOM      2  O   UNL     1      -7.822   4.167 134.022  0.00  0.00    +0.000 OA
ATOM      3  N   UNL     1      -6.909   2.765 132.434  0.00  0.00    +0.000 N 
ATOM      4  C   UNL     1      -7.251   1.375 132.953  0.00  0.00    +0.000 C 
ATOM      5  C   UNL     1      -6.044   0.487 133.085  0.00  0.00    +0.000 C 
ATOM      6  C   UNL     1      -5.455   0.080 131.483  0.00  0.00    +0.000 C 
ATOM      7  C   UNL     1      -4.903   1.796 131.269  0.00  0.00    +0.000 C 
ATOM      8  C   UNL     1      -5.973   2.883 131.244  0.00  0.00    +0.000 C 
ENDROOT
BRANCH   6   9
ATOM      9  N   UNL     1      -6.271  -1.426 130.680  0.00  0.00    +0.000 N 
ATOM     10  C   UNL     1      -5.006  -1.358 129.915  0.00  0.00    +0.000 C 
ATOM     11  O   UNL     1      -3.898  -1.352 130.278  0.00  0.00    +0.000 OA
ATOM     12  O   UNL     1      -5.211  -1.094 128.600  0.00  0.00    +0.000 OA
ATOM     13  C   UNL     1      -5.160  -2.404 128.184  0.00  0.00    +0.000 C 
ATOM     14  C   UNL     1      -6.611  -2.431 128.131  0.00  0.00    +0.000 A 
ATOM     15  C   UNL     1      -7.309  -2.325 126.871  0.00  0.00    +0.000 A 
ATOM     16  C   UNL     1      -8.548  -2.856 126.583  0.00  0.00    +0.000 A 
ATOM     17  C   UNL     1      -8.901  -3.757 127.535  0.00  0.00    +0.000 A 
ATOM     18  C   UNL     1      -8.242  -3.558 128.975  0.00  0.00    +0.000 A 
ATOM     19  C   UNL     1      -7.213  -2.377 129.377  0.00  0.00    +0.000 A 
ENDBRANCH   6   9
BRANCH   1  25
ATOM     20  C   UNL     1      -8.656   5.802 131.335  0.00  0.00    +0.000 A 
ATOM     21  C   UNL     1      -9.637   6.269 130.431  0.00  0.00    +0.000 A 
ATOM     22  C   UNL     1     -10.713   5.484 130.041  0.00  0.00    +0.000 A 
ATOM     23  C   UNL     1     -10.700   4.152 130.417  0.00  0.00    +0.000 A 
ATOM     24  C   UNL     1      -9.779   3.684 131.366  0.00  0.00    +0.000 A 
ATOM     25  C   UNL     1      -8.730   4.502 131.869  0.00  0.00    +0.000 A 
BRANCH  20  27
ATOM     26  C   UNL     1      -6.523   6.767 131.082  0.00  0.00    +0.000 C 
ATOM     27  O   UNL     1      -7.805   6.824 131.654  0.00  0.00    +0.000 OA
ENDBRANCH  20  27
BRANCH  22  28
ATOM     28  O   UNL     1     -11.739   6.106 129.380  0.00  0.00    +0.000 OA
BRANCH  28  29
ATOM     29  C   UNL     1     -12.070   7.452 129.776  0.00  0.00    +0.000 C 
ATOM     30  C   UNL     1     -12.860   8.250 128.723  0.00  0.00    +0.000 C 
ATOM     31  C   UNL     1     -12.944   7.382 131.030  0.00  0.00    +0.000 C 
ENDBRANCH  28  29
ENDBRANCH  22  28
ENDBRANCH   1  25
TORSDOF 5
ENDMDL
MODEL 5
REMARK VINA RESULT:      -8.2      5.042      9.875
REMARK  Name = CHEMBL105039
REMARK  8 active torsions:
REMARK  status: ('A' for Active; 'I' for Inactive)
REMARK    1  A    between atoms: C_1  and  O_2
REMARK    2  A    between atoms: O_2  and  C_3
REMARK    3  A    between atoms: C_5  and  O_6
REMARK    4  A    between atoms: O_6  and  C_7
REMARK    5  A    between atoms: C_7  and  C_8
REMARK    6  A    between atoms: C_7  and  C_9
REMARK    7  A    between atoms: C_12  and  C_13
REMARK    8  A    between atoms: C_18  and  N_19
REMARK                            x       y       z     vdW  Elec       q    Type
REMARK                         _______ _______ _______ _____ _____    ______ ____
ROOT
ATOM      1  C   UNL     1      -6.053   4.591 126.165  0.00  0.00    +0.000 C 
ATOM      2  O   UNL     1      -5.878   5.747 125.761  0.00  0.00    +0.000 OA
ATOM      3  N   UNL     1      -6.828   3.677 125.400  0.00  0.00    +0.000 N 
ATOM      4  C   UNL     1      -6.267   3.263 124.046  0.00  0.00    +0.000 C 
ATOM      5  C   UNL     1      -7.339   2.895 123.057  0.00  0.00    +0.000 C 
ATOM      6  C   UNL     1      -8.082   1.385 123.555  0.00  0.00    +0.000 C 
ATOM      7  C   UNL     1      -8.847   2.246 124.959  0.00  0.00    +0.000 C 
ATOM      8  C   UNL     1      -7.918   2.823 126.023  0.00  0.00    +0.000 C 
ENDROOT
BRANCH   6   9
ATOM      9  N   UNL     1      -7.214  -0.182 122.949  0.00  0.00    +0.000 N 
ATOM     10  C   UNL     1      -8.484  -0.749 123.454  0.00  0.00    +0.000 C 
ATOM     11  O   UNL     1      -9.590  -0.491 123.189  0.00  0.00    +0.000 OA
ATOM     12  O   UNL     1      -8.295  -1.580 124.510  0.00  0.00    +0.000 OA
ATOM     13  C   UNL     1      -8.299  -2.743 123.777  0.00  0.00    +0.000 C 
ATOM     14  C   UNL     1      -6.848  -2.771 123.836  0.00  0.00    +0.000 A 
ATOM     15  C   UNL     1      -6.161  -3.651 124.752  0.00  0.00    +0.000 A 
ATOM     16  C   UNL     1      -4.903  -4.187 124.572  0.00  0.00    +0.000 A 
ATOM     17  C   UNL     1      -4.513  -4.034 123.280  0.00  0.00    +0.000 A 
ATOM     18  C   UNL     1      -5.172  -2.819 122.483  0.00  0.00    +0.000 A 
ATOM     19  C   UNL     1      -6.243  -1.772 123.092  0.00  0.00    +0.000 A 
ENDBRANCH   6   9
BRANCH   1  25
ATOM     20  C   UNL     1      -4.063   3.510 127.509  0.00  0.00    +0.000 A 
ATOM     21  C   UNL     1      -3.494   3.206 128.766  0.00  0.00    +0.000 A 
ATOM     22  C   UNL     1      -4.127   3.528 129.959  0.00  0.00    +0.000 A 
ATOM     23  C   UNL     1      -5.252   4.330 129.887  0.00  0.00    +0.000 A 
ATOM     24  C   UNL     1      -5.872   4.586 128.655  0.00  0.00    +0.000 A 
ATOM     25  C   UNL     1      -5.303   4.170 127.421  0.00  0.00    +0.000 A 
BRANCH  20  27
ATOM     26  C   UNL     1      -1.921   3.186 126.585  0.00  0.00    +0.000 C 
ATOM     27  O   UNL     1      -3.305   2.952 126.516  0.00  0.00    +0.000 OA
ENDBRANCH  20  27
BRANCH  22  28
ATOM     28  O   UNL     1      -3.633   2.964 131.106  0.00  0.00    +0.000 OA
BRANCH  28  29
ATOM     29  C   UNL     1      -3.428   3.828 132.242  0.00  0.00    +0.000 C 
ATOM     30  C   UNL     1      -3.087   3.091 133.549  0.00  0.00    +0.000 C 
ATOM     31  C   UNL     1      -2.252   4.756 131.932  0.00  0.00    +0.000 C 
ENDBRANCH  28  29
ENDBRANCH  22  28
ENDBRANCH   1  25
TORSDOF 5
ENDMDL
MODEL 6
REMARK VINA RESULT:      -8.1      4.196      5.822
REMARK  Name = CHEMBL105039
REMARK  8 active torsions:
REMARK  status: ('A' for Active; 'I' for Inactive)
REMARK    1  A    between atoms: C_1  and  O_2
REMARK    2  A    between atoms: O_2  and  C_3
REMARK    3  A    between atoms: C_5  and  O_6
REMARK    4  A    between atoms: O_6  and  C_7
REMARK    5  A    between atoms: C_7  and  C_8
REMARK    6  A    between atoms: C_7  and  C_9
REMARK    7  A    between atoms: C_12  and  C_13
REMARK    8  A    between atoms: C_18  and  N_19
REMARK                            x       y       z     vdW  Elec       q    Type
REMARK                         _______ _______ _______ _____ _____    ______ ____
ROOT
ATOM      1  C   UNL     1      -5.770   3.091 124.888  0.00  0.00    +0.000 C 
ATOM      2  O   UNL     1      -5.587   3.703 123.828  0.00  0.00    +0.000 OA
ATOM      3  N   UNL     1      -5.052   3.458 126.058  0.00  0.00    +0.000 N 
ATOM      4  C   UNL     1      -5.346   4.832 126.644  0.00  0.00    +0.000 C 
ATOM      5  C   UNL     1      -4.173   5.414 127.385  0.00  0.00    +0.000 C 
ATOM      6  C   UNL     1      -3.918   4.500 128.862  0.00  0.00    +0.000 C 
ATOM      7  C   UNL     1      -3.346   3.092 127.868  0.00  0.00    +0.000 C 
ATOM      8  C   UNL     1      -4.355   2.431 126.934  0.00  0.00    +0.000 C 
ENDROOT
BRANCH   6   9
ATOM      9  N   UNL     1      -4.933   5.070 130.351  0.00  0.00    +0.000 N 
ATOM     10  C   UNL     1      -3.740   4.515 131.028  0.00  0.00    +0.000 C 
ATOM     11  O   UNL     1      -2.608   4.762 130.897  0.00  0.00    +0.000 OA
ATOM     12  O   UNL     1      -4.037   3.435 131.793  0.00  0.00    +0.000 OA
ATOM     13  C   UNL     1      -4.140   4.125 132.978  0.00  0.00    +0.000 C 
ATOM     14  C   UNL     1      -5.587   4.100 132.852  0.00  0.00    +0.000 A 
ATOM     15  C   UNL     1      -6.381   3.170 133.620  0.00  0.00    +0.000 A 
ATOM     16  C   UNL     1      -7.684   3.361 134.030  0.00  0.00    +0.000 A 
ATOM     17  C   UNL     1      -8.030   4.666 133.886  0.00  0.00    +0.000 A 
ATOM     18  C   UNL     1      -7.231   5.490 132.777  0.00  0.00    +0.000 A 
ATOM     19  C   UNL     1      -6.069   4.893 131.825  0.00  0.00    +0.000 A 
ENDBRANCH   6   9
BRANCH   1  25
ATOM     20  C   UNL     1      -7.970   1.953 125.783  0.00  0.00    +0.000 A 
ATOM     21  C   UNL     1      -8.921   0.917 125.649  0.00  0.00    +0.000 A 
ATOM     22  C   UNL     1      -8.815  -0.058 124.666  0.00  0.00    +0.000 A 
ATOM     23  C   UNL     1      -7.847   0.120 123.694  0.00  0.00    +0.000 A 
ATOM     24  C   UNL     1      -6.853   1.098 123.842  0.00  0.00    +0.000 A 
ATOM     25  C   UNL     1      -6.874   2.042 124.905  0.00  0.00    +0.000 A 
BRANCH  20  27
ATOM     26  C   UNL     1      -8.409   1.938 128.097  0.00  0.00    +0.000 C 
ATOM     27  O   UNL     1      -8.237   2.676 126.914  0.00  0.00    +0.000 OA
ENDBRANCH  20  27
BRANCH  22  28
ATOM     28  O   UNL     1      -9.625  -1.157 124.780  0.00  0.00    +0.000 OA
BRANCH  28  29
ATOM     29  C   UNL     1      -8.990  -2.449 124.868  0.00  0.00    +0.000 C 
ATOM     30  C   UNL     1      -9.290  -3.218 126.167  0.00  0.00    +0.000 C 
ATOM     31  C   UNL     1      -9.498  -3.311 123.711  0.00  0.00    +0.000 C 
ENDBRANCH  28  29
ENDBRANCH  22  28
ENDBRANCH   1  25
TORSDOF 5
ENDMDL
MODEL 7
REMARK VINA RESULT:      -8.1      2.522      8.814
REMARK  Name = CHEMBL105039
REMARK  8 active torsions:
REMARK  status: ('A' for Active; 'I' for Inactive)
REMARK    1  A    between atoms: C_1  and  O_2
REMARK    2  A    between atoms: O_2  and  C_3
REMARK    3  A    between atoms: C_5  and  O_6
REMARK    4  A    between atoms: O_6  and  C_7
REMARK    5  A    between atoms: C_7  and  C_8
REMARK    6  A    between atoms: C_7  and  C_9
REMARK    7  A    between atoms: C_12  and  C_13
REMARK    8  A    between atoms: C_18  and  N_19
REMARK                            x       y       z     vdW  Elec       q    Type
REMARK                         _______ _______ _______ _____ _____    ______ ____
ROOT
ATOM      1  C   UNL     1      -8.057   2.495 132.327  0.00  0.00    +0.000 C 
ATOM      2  O   UNL     1      -8.493   2.308 133.469  0.00  0.00    +0.000 OA
ATOM      3  N   UNL     1      -7.466   1.424 131.603  0.00  0.00    +0.000 N 
ATOM      4  C   UNL     1      -8.379   0.270 131.212  0.00  0.00    +0.000 C 
ATOM      5  C   UNL     1      -7.647  -1.038 131.089  0.00  0.00    +0.000 C 
ATOM      6  C   UNL     1      -6.604  -0.981 129.678  0.00  0.00    +0.000 C 
ATOM      7  C   UNL     1      -5.538   0.212 130.538  0.00  0.00    +0.000 C 
ATOM      8  C   UNL     1      -6.137   1.572 130.883  0.00  0.00    +0.000 C 
ENDROOT
BRANCH   6   9
ATOM      9  N   UNL     1      -7.424  -1.473 128.047  0.00  0.00    +0.000 N 
ATOM     10  C   UNL     1      -6.044  -1.957 127.819  0.00  0.00    +0.000 C 
ATOM     11  O   UNL     1      -5.382  -2.686 128.444  0.00  0.00    +0.000 OA
ATOM     12  O   UNL     1      -5.427  -1.301 126.805  0.00  0.00    +0.000 OA
ATOM     13  C   UNL     1      -5.703  -2.240 125.839  0.00  0.00    +0.000 C 
ATOM     14  C   UNL     1      -6.793  -1.409 125.359  0.00  0.00    +0.000 A 
ATOM     15  C   UNL     1      -6.642  -0.604 124.170  0.00  0.00    +0.000 A 
ATOM     16  C   UNL     1      -7.654  -0.226 123.312  0.00  0.00    +0.000 A 
ATOM     17  C   UNL     1      -8.768  -0.963 123.554  0.00  0.00    +0.000 A 
ATOM     18  C   UNL     1      -8.917  -1.555 125.029  0.00  0.00    +0.000 A 
ATOM     19  C   UNL     1      -7.862  -1.336 126.235  0.00  0.00    +0.000 A 
ENDBRANCH   6   9
BRANCH   1  25
ATOM     20  C   UNL     1      -7.812   5.110 132.127  0.00  0.00    +0.000 A 
ATOM     21  C   UNL     1      -8.127   6.290 131.417  0.00  0.00    +0.000 A 
ATOM     22  C   UNL     1      -8.935   6.278 130.288  0.00  0.00    +0.000 A 
ATOM     23  C   UNL     1      -9.276   5.045 129.762  0.00  0.00    +0.000 A 
ATOM     24  C   UNL     1      -9.035   3.866 130.483  0.00  0.00    +0.000 A 
ATOM     25  C   UNL     1      -8.304   3.862 131.702  0.00  0.00    +0.000 A 
BRANCH  20  27
ATOM     26  C   UNL     1      -7.911   5.690 134.408  0.00  0.00    +0.000 C 
ATOM     27  O   UNL     1      -7.130   5.431 133.269  0.00  0.00    +0.000 OA
ENDBRANCH  20  27
BRANCH  22  28
ATOM     28  O   UNL     1      -9.395   7.485 129.830  0.00  0.00    +0.000 OA
BRANCH  28  29
ATOM     29  C   UNL     1     -10.656   7.498 129.131  0.00  0.00    +0.000 C 
ATOM     30  C   UNL     1     -11.867   7.858 130.010  0.00  0.00    +0.000 C 
ATOM     31  C   UNL     1     -10.579   8.551 128.024  0.00  0.00    +0.000 C 
ENDBRANCH  28  29
ENDBRANCH  22  28
ENDBRANCH   1  25
TORSDOF 5
ENDMDL
MODEL 8
REMARK VINA RESULT:      -8.0      2.114      9.032
REMARK  Name = CHEMBL105039
REMARK  8 active torsions:
REMARK  status: ('A' for Active; 'I' for Inactive)
REMARK    1  A    between atoms: C_1  and  O_2
REMARK    2  A    between atoms: O_2  and  C_3
REMARK    3  A    between atoms: C_5  and  O_6
REMARK    4  A    between atoms: O_6  and  C_7
REMARK    5  A    between atoms: C_7  and  C_8
REMARK    6  A    between atoms: C_7  and  C_9
REMARK    7  A    between atoms: C_12  and  C_13
REMARK    8  A    between atoms: C_18  and  N_19
REMARK                            x       y       z     vdW  Elec       q    Type
REMARK                         _______ _______ _______ _____ _____    ______ ____
ROOT
ATOM      1  C   UNL     1      -7.378   4.416 130.525  0.00  0.00    +0.000 C 
ATOM      2  O   UNL     1      -6.725   4.617 131.556  0.00  0.00    +0.000 OA
ATOM      3  N   UNL     1      -6.875   3.549 129.518  0.00  0.00    +0.000 N 
ATOM      4  C   UNL     1      -6.741   2.076 129.881  0.00  0.00    +0.000 C 
ATOM      5  C   UNL     1      -5.648   1.382 129.116  0.00  0.00    +0.000 C 
ATOM      6  C   UNL     1      -6.129   1.240 127.433  0.00  0.00    +0.000 C 
ATOM      7  C   UNL     1      -5.931   3.035 127.245  0.00  0.00    +0.000 C 
ATOM      8  C   UNL     1      -6.864   3.935 128.049  0.00  0.00    +0.000 C 
ENDROOT
BRANCH   6   9
ATOM      9  N   UNL     1      -7.166  -0.285 127.015  0.00  0.00    +0.000 N 
ATOM     10  C   UNL     1      -5.804  -0.792 126.733  0.00  0.00    +0.000 C 
ATOM     11  O   UNL     1      -4.854  -0.834 127.408  0.00  0.00    +0.000 OA
ATOM     12  O   UNL     1      -5.627  -1.095 125.422  0.00  0.00    +0.000 OA
ATOM     13  C   UNL     1      -5.884  -2.439 125.551  0.00  0.00    +0.000 C 
ATOM     14  C   UNL     1      -7.228  -2.218 125.045  0.00  0.00    +0.000 A 
ATOM     15  C   UNL     1      -7.567  -2.545 123.679  0.00  0.00    +0.000 A 
ATOM     16  C   UNL     1      -8.814  -2.909 123.218  0.00  0.00    +0.000 A 
ATOM     17  C   UNL     1      -9.622  -3.224 124.262  0.00  0.00    +0.000 A 
ATOM     18  C   UNL     1      -9.266  -2.543 125.661  0.00  0.00    +0.000 A 
ATOM     19  C   UNL     1      -8.042  -1.518 125.917  0.00  0.00    +0.000 A 
ENDBRANCH   6   9
BRANCH   1  25
ATOM     20  C   UNL     1     -10.011   4.356 130.494  0.00  0.00    +0.000 A 
ATOM     21  C   UNL     1     -11.223   5.079 130.434  0.00  0.00    +0.000 A 
ATOM     22  C   UNL     1     -11.252   6.462 130.323  0.00  0.00    +0.000 A 
ATOM     23  C   UNL     1     -10.053   7.138 130.462  0.00  0.00    +0.000 A 
ATOM     24  C   UNL     1      -8.834   6.444 130.453  0.00  0.00    +0.000 A 
ATOM     25  C   UNL     1      -8.772   5.024 130.455  0.00  0.00    +0.000 A 
BRANCH  20  27
ATOM     26  C   UNL     1     -10.085   2.304 131.649  0.00  0.00    +0.000 C 
ATOM     27  O   UNL     1     -10.275   3.014 130.451  0.00  0.00    +0.000 OA
ENDBRANCH  20  27
BRANCH  22  28
ATOM     28  O   UNL     1     -12.453   7.043 130.007  0.00  0.00    +0.000 OA
BRANCH  28  29
ATOM     29  C   UNL     1     -12.565   7.691 128.724  0.00  0.00    +0.000 C 
ATOM     30  C   UNL     1     -13.608   7.063 127.783  0.00  0.00    +0.000 C 
ATOM     31  C   UNL     1     -12.989   9.143 128.957  0.00  0.00    +0.000 C 
ENDBRANCH  28  29
ENDBRANCH  22  28
ENDBRANCH   1  25
TORSDOF 5
ENDMDL
MODEL 9
REMARK VINA RESULT:      -8.0      4.405      9.181
REMARK  Name = CHEMBL105039
REMARK  8 active torsions:
REMARK  status: ('A' for Active; 'I' for Inactive)
REMARK    1  A    between atoms: C_1  and  O_2
REMARK    2  A    between atoms: O_2  and  C_3
REMARK    3  A    between atoms: C_5  and  O_6
REMARK    4  A    between atoms: O_6  and  C_7
REMARK    5  A    between atoms: C_7  and  C_8
REMARK    6  A    between atoms: C_7  and  C_9
REMARK    7  A    between atoms: C_12  and  C_13
REMARK    8  A    between atoms: C_18  and  N_19
REMARK                            x       y       z     vdW  Elec       q    Type
REMARK                         _______ _______ _______ _____ _____    ______ ____
ROOT
ATOM      1  C   UNL     1      -5.098   5.024 127.435  0.00  0.00    +0.000 C 
ATOM      2  O   UNL     1      -4.337   5.974 127.214  0.00  0.00    +0.000 OA
ATOM      3  N   UNL     1      -5.899   4.493 126.388  0.00  0.00    +0.000 N 
ATOM      4  C   UNL     1      -5.168   3.815 125.237  0.00  0.00    +0.000 C 
ATOM      5  C   UNL     1      -5.924   3.892 123.939  0.00  0.00    +0.000 C 
ATOM      6  C   UNL     1      -7.347   2.870 124.042  0.00  0.00    +0.000 C 
ATOM      7  C   UNL     1      -8.079   4.041 125.221  0.00  0.00    +0.000 C 
ATOM      8  C   UNL     1      -7.382   4.217 126.566  0.00  0.00    +0.000 C 
ENDROOT
BRANCH   6   9
ATOM      9  N   UNL     1      -7.073   1.056 123.586  0.00  0.00    +0.000 N 
ATOM     10  C   UNL     1      -8.487   1.230 123.185  0.00  0.00    +0.000 C 
ATOM     11  O   UNL     1      -8.982   2.001 122.463  0.00  0.00    +0.000 OA
ATOM     12  O   UNL     1      -9.331   0.463 123.919  0.00  0.00    +0.000 OA
ATOM     13  C   UNL     1      -9.410  -0.568 123.013  0.00  0.00    +0.000 C 
ATOM     14  C   UNL     1      -8.457  -1.323 123.808  0.00  0.00    +0.000 A 
ATOM     15  C   UNL     1      -8.898  -2.391 124.675  0.00  0.00    +0.000 A 
ATOM     16  C   UNL     1      -8.160  -3.497 125.040  0.00  0.00    +0.000 A 
ATOM     17  C   UNL     1      -7.072  -3.616 124.236  0.00  0.00    +0.000 A 
ATOM     18  C   UNL     1      -6.537  -2.269 123.569  0.00  0.00    +0.000 A 
ATOM     19  C   UNL     1      -7.176  -0.800 123.785  0.00  0.00    +0.000 A 
ENDBRANCH   6   9
BRANCH   1  25
ATOM     20  C   UNL     1      -5.739   4.751 129.975  0.00  0.00    +0.000 A 
ATOM     21  C   UNL     1      -5.570   4.034 131.181  0.00  0.00    +0.000 A 
ATOM     22  C   UNL     1      -4.703   2.955 131.282  0.00  0.00    +0.000 A 
ATOM     23  C   UNL     1      -4.140   2.478 130.112  0.00  0.00    +0.000 A 
ATOM     24  C   UNL     1      -4.236   3.210 128.919  0.00  0.00    +0.000 A 
ATOM     25  C   UNL     1      -5.031   4.384 128.815  0.00  0.00    +0.000 A 
BRANCH  20  27
ATOM     26  C   UNL     1      -6.020   6.814 131.076  0.00  0.00    +0.000 C 
ATOM     27  O   UNL     1      -6.532   5.843 130.199  0.00  0.00    +0.000 OA
ENDBRANCH  20  27
BRANCH  22  28
ATOM     28  O   UNL     1      -4.411   2.498 132.540  0.00  0.00    +0.000 OA
BRANCH  28  29
ATOM     29  C   UNL     1      -3.811   3.426 133.467  0.00  0.00    +0.000 C 
ATOM     30  C   UNL     1      -3.762   2.929 134.923  0.00  0.00    +0.000 C 
ATOM     31  C   UNL     1      -2.365   3.671 133.029  0.00  0.00    +0.000 C 
ENDBRANCH  28  29
ENDBRANCH  22  28
ENDBRANCH   1  25
TORSDOF 5
ENDMDL
