MODEL 1
REMARK VINA RESULT:     -11.2      0.000      0.000
REMARK  Name = CHEMBL32745
REMARK  7 active torsions:
REMARK  status: ('A' for Active; 'I' for Inactive)
REMARK    1  A    between atoms: C_1  and  C_2
REMARK    2  A    between atoms: C_4  and  C_5
REMARK    3  A    between atoms: C_10  and  N_11
REMARK    4  A    between atoms: N_28  and  C_29
REMARK    5  A    between atoms: C_29  and  C_30
REMARK    6  A    between atoms: N_34  and  S_35
REMARK    7  A    between atoms: S_35  and  C_36
REMARK                            x       y       z     vdW  Elec       q    Type
REMARK                         _______ _______ _______ _____ _____    ______ ____
ROOT
ATOM      1  C   UNL     1      -8.584   0.571 126.848  0.00  0.00    +0.000 C 
ATOM      2  C   UNL     1      -8.097  -0.043 128.123  0.00  0.00    +0.000 A 
ATOM      3  C   UNL     1      -7.604   0.811 129.135  0.00  0.00    +0.000 A 
ATOM      4  C   UNL     1      -7.150   0.363 130.369  0.00  0.00    +0.000 A 
ATOM      5  C   UNL     1      -7.138  -1.021 130.603  0.00  0.00    +0.000 A 
ATOM      6  C   UNL     1      -7.607  -1.917 129.612  0.00  0.00    +0.000 A 
ATOM      7  C   UNL     1      -7.702  -3.325 129.576  0.00  0.00    +0.000 A 
ATOM      8  C   UNL     1      -8.170  -3.671 128.341  0.00  0.00    +0.000 A 
ATOM      9  N   UNL     1      -8.468  -2.533 127.629  0.00  0.00    +0.000 N 
ATOM     10  C   UNL     1      -8.086  -1.427 128.385  0.00  0.00    +0.000 A 
ENDROOT
BRANCH   4  11
ATOM     11  C   UNL     1      -6.587   1.306 131.398  0.00  0.00    +0.000 C 
ATOM     12  O   UNL     1      -5.429   1.122 131.777  0.00  0.00    +0.000 OA
ATOM     13  N   UNL     1      -7.294   2.478 131.751  0.00  0.00    +0.000 N 
ATOM     14  C   UNL     1      -6.848   3.696 131.102  0.00  0.00    +0.000 C 
ATOM     15  C   UNL     1      -6.961   4.898 132.013  0.00  0.00    +0.000 C 
ATOM     16  C   UNL     1      -8.661   5.297 132.222  0.00  0.00    +0.000 C 
ATOM     17  C   UNL     1      -8.862   3.838 133.143  0.00  0.00    +0.000 C 
ATOM     18  C   UNL     1      -8.646   2.549 132.336  0.00  0.00    +0.000 C 
BRANCH  16  19
ATOM     19  N   UNL     1      -9.378   6.285 130.830  0.00  0.00    +0.000 N 
ATOM     20  C   UNL     1     -10.494   6.383 131.741  0.00  0.00    +0.000 C 
ATOM     21  O   UNL     1     -10.534   6.770 132.947  0.00  0.00    +0.000 OA
ATOM     22  O   UNL     1     -11.584   5.764 131.353  0.00  0.00    +0.000 OA
ATOM     23  C   UNL     1     -12.182   6.875 130.827  0.00  0.00    +0.000 C 
ATOM     24  C   UNL     1     -11.819   6.484 129.465  0.00  0.00    +0.000 A 
ATOM     25  C   UNL     1     -13.071   6.582 128.620  0.00  0.00    +0.000 A 
ATOM     26  C   UNL     1     -13.179   7.127 127.383  0.00  0.00    +0.000 A 
ATOM     27  C   UNL     1     -11.914   7.459 126.964  0.00  0.00    +0.000 A 
ATOM     28  C   UNL     1     -10.540   7.190 127.878  0.00  0.00    +0.000 A 
ATOM     29  C   UNL     1     -10.404   6.498 129.288  0.00  0.00    +0.000 A 
ENDBRANCH  16  19
ENDBRANCH   4  11
BRANCH   9  30
ATOM     30  C   UNL     1      -9.084  -2.532 126.290  0.00  0.00    +0.000 C 
BRANCH  30  31
ATOM     31  C   UNL     1      -8.052  -2.600 125.135  0.00  0.00    +0.000 C 
ATOM     32  C   UNL     1      -8.279  -3.809 124.220  0.00  0.00    +0.000 C 
ATOM     33  C   UNL     1      -9.377  -3.365 123.284  0.00  0.00    +0.000 C 
ATOM     34  C   UNL     1      -9.228  -1.853 123.167  0.00  0.00    +0.000 C 
ATOM     35  N   UNL     1      -8.176  -1.470 124.157  0.00  0.00    +0.000 NA
BRANCH  35  36
ATOM     36  S   UNL     1      -6.694  -0.907 123.481  0.00  0.00    +0.000 S 
ATOM     37  C   UNL     1      -5.470  -1.206 124.763  0.00  0.00    +0.000 C 
ATOM     38  O   UNL     1      -6.369  -1.766 122.363  0.00  0.00    +0.000 OA
ATOM     39  O   UNL     1      -6.807   0.526 123.318  0.00  0.00    +0.000 OA
ENDBRANCH  35  36
ENDBRANCH  30  31
ENDBRANCH   9  30
TORSDOF 5
ENDMDL
MODEL 2
REMARK VINA RESULT:     -11.0      2.745      3.890
REMARK  Name = CHEMBL32745
REMARK  7 active torsions:
REMARK  status: ('A' for Active; 'I' for Inactive)
REMARK    1  A    between atoms: C_1  and  C_2
REMARK    2  A    between atoms: C_4  and  C_5
REMARK    3  A    between atoms: C_10  and  N_11
REMARK    4  A    between atoms: N_28  and  C_29
REMARK    5  A    between atoms: C_29  and  C_30
REMARK    6  A    between atoms: N_34  and  S_35
REMARK    7  A    between atoms: S_35  and  C_36
REMARK                            x       y       z     vdW  Elec       q    Type
REMARK                         _______ _______ _______ _____ _____    ______ ____
ROOT
ATOM      1  C   UNL     1      -5.613  -0.347 126.530  0.00  0.00    +0.000 C 
ATOM      2  C   UNL     1      -5.525   1.147 126.477  0.00  0.00    +0.000 A 
ATOM      3  C   UNL     1      -5.013   1.830 127.603  0.00  0.00    +0.000 A 
ATOM      4  C   UNL     1      -4.859   3.210 127.663  0.00  0.00    +0.000 A 
ATOM      5  C   UNL     1      -5.281   3.968 126.559  0.00  0.00    +0.000 A 
ATOM      6  C   UNL     1      -5.816   3.328 125.416  0.00  0.00    +0.000 A 
ATOM      7  C   UNL     1      -6.313   3.831 124.194  0.00  0.00    +0.000 A 
ATOM      8  C   UNL     1      -6.767   2.767 123.469  0.00  0.00    +0.000 A 
ATOM      9  N   UNL     1      -6.486   1.601 124.143  0.00  0.00    +0.000 N 
ATOM     10  C   UNL     1      -5.930   1.928 125.378  0.00  0.00    +0.000 A 
ENDROOT
BRANCH   4  11
ATOM     11  C   UNL     1      -4.355   3.899 128.903  0.00  0.00    +0.000 C 
ATOM     12  O   UNL     1      -3.144   4.100 129.000  0.00  0.00    +0.000 OA
ATOM     13  N   UNL     1      -5.268   4.476 129.815  0.00  0.00    +0.000 N 
ATOM     14  C   UNL     1      -5.456   5.909 129.687  0.00  0.00    +0.000 C 
ATOM     15  C   UNL     1      -5.680   6.574 131.027  0.00  0.00    +0.000 C 
ATOM     16  C   UNL     1      -7.274   6.132 131.624  0.00  0.00    +0.000 C 
ATOM     17  C   UNL     1      -6.706   4.508 131.858  0.00  0.00    +0.000 C 
ATOM     18  C   UNL     1      -6.331   3.777 130.561  0.00  0.00    +0.000 C 
BRANCH  16  19
ATOM     19  N   UNL     1      -8.653   7.133 130.898  0.00  0.00    +0.000 N 
ATOM     20  C   UNL     1      -9.430   6.390 131.862  0.00  0.00    +0.000 C 
ATOM     21  O   UNL     1      -9.268   6.251 133.111  0.00  0.00    +0.000 OA
ATOM     22  O   UNL     1     -10.290   5.542 131.348  0.00  0.00    +0.000 OA
ATOM     23  C   UNL     1     -11.365   6.381 131.436  0.00  0.00    +0.000 C 
ATOM     24  C   UNL     1     -11.281   6.715 130.014  0.00  0.00    +0.000 A 
ATOM     25  C   UNL     1     -12.667   6.551 129.430  0.00  0.00    +0.000 A 
ATOM     26  C   UNL     1     -13.301   7.400 128.584  0.00  0.00    +0.000 A 
ATOM     27  C   UNL     1     -12.407   8.382 128.235  0.00  0.00    +0.000 A 
ATOM     28  C   UNL     1     -10.832   8.435 128.792  0.00  0.00    +0.000 A 
ATOM     29  C   UNL     1     -10.072   7.415 129.723  0.00  0.00    +0.000 A 
ENDBRANCH  16  19
ENDBRANCH   4  11
BRANCH   9  30
ATOM     30  C   UNL     1      -6.750   0.253 123.608  0.00  0.00    +0.000 C 
BRANCH  30  31
ATOM     31  C   UNL     1      -7.973  -0.441 124.260  0.00  0.00    +0.000 C 
ATOM     32  C   UNL     1      -9.149   0.521 124.465  0.00  0.00    +0.000 C 
ATOM     33  C   UNL     1      -9.828   0.571 123.117  0.00  0.00    +0.000 C 
ATOM     34  C   UNL     1      -9.555  -0.784 122.473  0.00  0.00    +0.000 C 
ATOM     35  N   UNL     1      -8.603  -1.485 123.386  0.00  0.00    +0.000 NA
BRANCH  35  36
ATOM     36  S   UNL     1      -9.243  -2.856 124.211  0.00  0.00    +0.000 S 
ATOM     37  C   UNL     1      -7.810  -3.886 124.555  0.00  0.00    +0.000 C 
ATOM     38  O   UNL     1      -9.763  -2.398 125.481  0.00  0.00    +0.000 OA
ATOM     39  O   UNL     1     -10.078  -3.575 123.274  0.00  0.00    +0.000 OA
ENDBRANCH  35  36
ENDBRANCH  30  31
ENDBRANCH   9  30
TORSDOF 5
ENDMDL
MODEL 3
REMARK VINA RESULT:     -10.8      1.363      2.242
REMARK  Name = CHEMBL32745
REMARK  7 active torsions:
REMARK  status: ('A' for Active; 'I' for Inactive)
REMARK    1  A    between atoms: C_1  and  C_2
REMARK    2  A    between atoms: C_4  and  C_5
REMARK    3  A    between atoms: C_10  and  N_11
REMARK    4  A    between atoms: N_28  and  C_29
REMARK    5  A    between atoms: C_29  and  C_30
REMARK    6  A    between atoms: N_34  and  S_35
REMARK    7  A    between atoms: S_35  and  C_36
REMARK                            x       y       z     vdW  Elec       q    Type
REMARK                         _______ _______ _______ _____ _____    ______ ____
ROOT
ATOM      1  C   UNL     1      -7.496  -2.052 128.556  0.00  0.00    +0.000 C 
ATOM      2  C   UNL     1      -7.431  -0.605 128.179  0.00  0.00    +0.000 A 
ATOM      3  C   UNL     1      -6.639   0.259 128.967  0.00  0.00    +0.000 A 
ATOM      4  C   UNL     1      -6.479   1.614 128.702  0.00  0.00    +0.000 A 
ATOM      5  C   UNL     1      -7.183   2.160 127.617  0.00  0.00    +0.000 A 
ATOM      6  C   UNL     1      -8.001   1.336 126.810  0.00  0.00    +0.000 A 
ATOM      7  C   UNL     1      -8.809   1.613 125.684  0.00  0.00    +0.000 A 
ATOM      8  C   UNL     1      -9.436   0.451 125.337  0.00  0.00    +0.000 A 
ATOM      9  N   UNL     1      -8.982  -0.572 126.136  0.00  0.00    +0.000 N 
ATOM     10  C   UNL     1      -8.118  -0.036 127.089  0.00  0.00    +0.000 A 
ENDROOT
BRANCH   4  11
ATOM     11  C   UNL     1      -5.665   2.508 129.599  0.00  0.00    +0.000 C 
ATOM     12  O   UNL     1      -4.438   2.447 129.514  0.00  0.00    +0.000 OA
ATOM     13  N   UNL     1      -6.297   3.523 130.354  0.00  0.00    +0.000 N 
ATOM     14  C   UNL     1      -6.232   4.855 129.785  0.00  0.00    +0.000 C 
ATOM     15  C   UNL     1      -6.111   5.922 130.851  0.00  0.00    +0.000 C 
ATOM     16  C   UNL     1      -7.645   6.053 131.702  0.00  0.00    +0.000 C 
ATOM     17  C   UNL     1      -7.361   4.488 132.399  0.00  0.00    +0.000 C 
ATOM     18  C   UNL     1      -7.340   3.339 131.380  0.00  0.00    +0.000 C 
BRANCH  16  19
ATOM     19  N   UNL     1      -8.909   7.079 130.820  0.00  0.00    +0.000 N 
ATOM     20  C   UNL     1      -9.793   6.444 131.770  0.00  0.00    +0.000 C 
ATOM     21  O   UNL     1      -9.725   6.378 133.033  0.00  0.00    +0.000 OA
ATOM     22  O   UNL     1     -10.665   5.613 131.248  0.00  0.00    +0.000 OA
ATOM     23  C   UNL     1     -11.692   6.514 131.208  0.00  0.00    +0.000 C 
ATOM     24  C   UNL     1     -11.491   6.749 129.777  0.00  0.00    +0.000 A 
ATOM     25  C   UNL     1     -12.842   6.624 129.107  0.00  0.00    +0.000 A 
ATOM     26  C   UNL     1     -13.366   7.450 128.168  0.00  0.00    +0.000 A 
ATOM     27  C   UNL     1     -12.394   8.356 127.824  0.00  0.00    +0.000 A 
ATOM     28  C   UNL     1     -10.860   8.359 128.488  0.00  0.00    +0.000 A 
ATOM     29  C   UNL     1     -10.227   7.361 129.531  0.00  0.00    +0.000 A 
ENDBRANCH  16  19
ENDBRANCH   4  11
BRANCH   9  30
ATOM     30  C   UNL     1      -9.374  -1.984 125.976  0.00  0.00    +0.000 C 
BRANCH  30  31
ATOM     31  C   UNL     1      -8.369  -2.812 125.136  0.00  0.00    +0.000 C 
ATOM     32  C   UNL     1      -9.053  -3.930 124.342  0.00  0.00    +0.000 C 
ATOM     33  C   UNL     1      -9.591  -3.237 123.113  0.00  0.00    +0.000 C 
ATOM     34  C   UNL     1      -8.650  -2.064 122.861  0.00  0.00    +0.000 C 
ATOM     35  N   UNL     1      -7.723  -2.027 124.033  0.00  0.00    +0.000 NA
BRANCH  35  36
ATOM     36  S   UNL     1      -6.084  -2.434 123.693  0.00  0.00    +0.000 S 
ATOM     37  C   UNL     1      -5.125  -1.466 124.866  0.00  0.00    +0.000 C 
ATOM     38  O   UNL     1      -5.901  -3.829 124.029  0.00  0.00    +0.000 OA
ATOM     39  O   UNL     1      -5.778  -1.936 122.370  0.00  0.00    +0.000 OA
ENDBRANCH  35  36
ENDBRANCH  30  31
ENDBRANCH   9  30
TORSDOF 5
ENDMDL
MODEL 4
REMARK VINA RESULT:     -10.8      1.476      1.788
REMARK  Name = CHEMBL32745
REMARK  7 active torsions:
REMARK  status: ('A' for Active; 'I' for Inactive)
REMARK    1  A    between atoms: C_1  and  C_2
REMARK    2  A    between atoms: C_4  and  C_5
REMARK    3  A    between atoms: C_10  and  N_11
REMARK    4  A    between atoms: N_28  and  C_29
REMARK    5  A    between atoms: C_29  and  C_30
REMARK    6  A    between atoms: N_34  and  S_35
REMARK    7  A    between atoms: S_35  and  C_36
REMARK                            x       y       z     vdW  Elec       q    Type
REMARK                         _______ _______ _______ _____ _____    ______ ____
ROOT
ATOM      1  C   UNL     1      -5.120   0.263 126.496  0.00  0.00    +0.000 C 
ATOM      2  C   UNL     1      -5.956  -0.221 127.640  0.00  0.00    +0.000 A 
ATOM      3  C   UNL     1      -5.887   0.479 128.865  0.00  0.00    +0.000 A 
ATOM      4  C   UNL     1      -6.633   0.142 129.989  0.00  0.00    +0.000 A 
ATOM      5  C   UNL     1      -7.465  -0.986 129.912  0.00  0.00    +0.000 A 
ATOM      6  C   UNL     1      -7.554  -1.727 128.710  0.00  0.00    +0.000 A 
ATOM      7  C   UNL     1      -8.289  -2.881 128.360  0.00  0.00    +0.000 A 
ATOM      8  C   UNL     1      -7.947  -3.210 127.080  0.00  0.00    +0.000 A 
ATOM      9  N   UNL     1      -7.099  -2.254 126.572  0.00  0.00    +0.000 N 
ATOM     10  C   UNL     1      -6.807  -1.341 127.584  0.00  0.00    +0.000 A 
ENDROOT
BRANCH   4  11
ATOM     11  C   UNL     1      -6.489   0.886 131.289  0.00  0.00    +0.000 C 
ATOM     12  O   UNL     1      -5.467   0.698 131.952  0.00  0.00    +0.000 OA
ATOM     13  N   UNL     1      -7.398   1.915 131.623  0.00  0.00    +0.000 N 
ATOM     14  C   UNL     1      -6.936   3.265 131.363  0.00  0.00    +0.000 C 
ATOM     15  C   UNL     1      -7.435   4.246 132.401  0.00  0.00    +0.000 C 
ATOM     16  C   UNL     1      -9.162   4.490 132.170  0.00  0.00    +0.000 C 
ATOM     17  C   UNL     1      -9.437   2.864 132.714  0.00  0.00    +0.000 C 
ATOM     18  C   UNL     1      -8.858   1.783 131.789  0.00  0.00    +0.000 C 
BRANCH  16  19
ATOM     19  N   UNL     1      -9.577   5.698 130.830  0.00  0.00    +0.000 N 
ATOM     20  C   UNL     1     -10.543   6.143 131.808  0.00  0.00    +0.000 C 
ATOM     21  O   UNL     1     -10.383   6.489 133.016  0.00  0.00    +0.000 OA
ATOM     22  O   UNL     1     -11.798   5.938 131.483  0.00  0.00    +0.000 OA
ATOM     23  C   UNL     1     -12.013   7.199 131.001  0.00  0.00    +0.000 C 
ATOM     24  C   UNL     1     -11.879   6.744 129.617  0.00  0.00    +0.000 A 
ATOM     25  C   UNL     1     -13.068   7.281 128.850  0.00  0.00    +0.000 A 
ATOM     26  C   UNL     1     -13.053   7.862 127.625  0.00  0.00    +0.000 A 
ATOM     27  C   UNL     1     -11.776   7.758 127.132  0.00  0.00    +0.000 A 
ATOM     28  C   UNL     1     -10.526   7.018 127.959  0.00  0.00    +0.000 A 
ATOM     29  C   UNL     1     -10.555   6.284 129.354  0.00  0.00    +0.000 A 
ENDBRANCH  16  19
ENDBRANCH   4  11
BRANCH   9  30
ATOM     30  C   UNL     1      -6.605  -2.239 125.183  0.00  0.00    +0.000 C 
BRANCH  30  31
ATOM     31  C   UNL     1      -7.212  -1.101 124.325  0.00  0.00    +0.000 C 
ATOM     32  C   UNL     1      -6.935  -1.287 122.828  0.00  0.00    +0.000 C 
ATOM     33  C   UNL     1      -7.991  -2.265 122.374  0.00  0.00    +0.000 C 
ATOM     34  C   UNL     1      -9.182  -2.039 123.298  0.00  0.00    +0.000 C 
ATOM     35  N   UNL     1      -8.712  -1.076 124.340  0.00  0.00    +0.000 NA
BRANCH  35  36
ATOM     36  S   UNL     1      -9.430   0.489 124.278  0.00  0.00    +0.000 S 
ATOM     37  C   UNL     1      -8.123   1.607 124.802  0.00  0.00    +0.000 C 
ATOM     38  O   UNL     1      -9.721   0.782 122.892  0.00  0.00    +0.000 OA
ATOM     39  O   UNL     1     -10.465   0.532 125.287  0.00  0.00    +0.000 OA
ENDBRANCH  35  36
ENDBRANCH  30  31
ENDBRANCH   9  30
TORSDOF 5
ENDMDL
MODEL 5
REMARK VINA RESULT:     -10.8      1.531      2.405
REMARK  Name = CHEMBL32745
REMARK  7 active torsions:
REMARK  status: ('A' for Active; 'I' for Inactive)
REMARK    1  A    between atoms: C_1  and  C_2
REMARK    2  A    between atoms: C_4  and  C_5
REMARK    3  A    between atoms: C_10  and  N_11
REMARK    4  A    between atoms: N_28  and  C_29
REMARK    5  A    between atoms: C_29  and  C_30
REMARK    6  A    between atoms: N_34  and  S_35
REMARK    7  A    between atoms: S_35  and  C_36
REMARK                            x       y       z     vdW  Elec       q    Type
REMARK                         _______ _______ _______ _____ _____    ______ ____
ROOT
ATOM      1  C   UNL     1      -6.703  -2.320 129.286  0.00  0.00    +0.000 C 
ATOM      2  C   UNL     1      -6.173  -0.924 129.185  0.00  0.00    +0.000 A 
ATOM      3  C   UNL     1      -6.134  -0.133 130.355  0.00  0.00    +0.000 A 
ATOM      4  C   UNL     1      -5.641   1.165 130.392  0.00  0.00    +0.000 A 
ATOM      5  C   UNL     1      -5.200   1.736 129.188  0.00  0.00    +0.000 A 
ATOM      6  C   UNL     1      -5.235   0.988 127.988  0.00  0.00    +0.000 A 
ATOM      7  C   UNL     1      -4.868   1.305 126.661  0.00  0.00    +0.000 A 
ATOM      8  C   UNL     1      -5.174   0.225 125.884  0.00  0.00    +0.000 A 
ATOM      9  N   UNL     1      -5.628  -0.799 126.681  0.00  0.00    +0.000 N 
ATOM     10  C   UNL     1      -5.714  -0.334 127.992  0.00  0.00    +0.000 A 
ENDROOT
BRANCH   4  11
ATOM     11  C   UNL     1      -5.666   1.988 131.652  0.00  0.00    +0.000 C 
ATOM     12  O   UNL     1      -4.647   2.016 132.344  0.00  0.00    +0.000 OA
ATOM     13  N   UNL     1      -6.750   2.859 131.910  0.00  0.00    +0.000 N 
ATOM     14  C   UNL     1      -6.521   4.254 131.585  0.00  0.00    +0.000 C 
ATOM     15  C   UNL     1      -7.213   5.183 132.557  0.00  0.00    +0.000 C 
ATOM     16  C   UNL     1      -8.949   5.110 132.278  0.00  0.00    +0.000 C 
ATOM     17  C   UNL     1      -8.953   3.491 132.906  0.00  0.00    +0.000 C 
ATOM     18  C   UNL     1      -8.169   2.482 132.054  0.00  0.00    +0.000 C 
BRANCH  16  19
ATOM     19  N   UNL     1      -9.528   6.157 130.866  0.00  0.00    +0.000 N 
ATOM     20  C   UNL     1     -10.666   6.345 131.734  0.00  0.00    +0.000 C 
ATOM     21  O   UNL     1     -10.721   6.731 132.940  0.00  0.00    +0.000 OA
ATOM     22  O   UNL     1     -11.788   5.818 131.302  0.00  0.00    +0.000 OA
ATOM     23  C   UNL     1     -12.272   6.976 130.760  0.00  0.00    +0.000 C 
ATOM     24  C   UNL     1     -11.891   6.558 129.410  0.00  0.00    +0.000 A 
ATOM     25  C   UNL     1     -13.097   6.761 128.519  0.00  0.00    +0.000 A 
ATOM     26  C   UNL     1     -13.112   7.316 127.281  0.00  0.00    +0.000 A 
ATOM     27  C   UNL     1     -11.809   7.543 126.912  0.00  0.00    +0.000 A 
ATOM     28  C   UNL     1     -10.498   7.160 127.876  0.00  0.00    +0.000 A 
ATOM     29  C   UNL     1     -10.474   6.456 129.287  0.00  0.00    +0.000 A 
ENDBRANCH  16  19
ENDBRANCH   4  11
BRANCH   9  30
ATOM     30  C   UNL     1      -5.960  -2.148 126.187  0.00  0.00    +0.000 C 
BRANCH  30  31
ATOM     31  C   UNL     1      -6.917  -2.140 124.968  0.00  0.00    +0.000 C 
ATOM     32  C   UNL     1      -7.485  -3.531 124.663  0.00  0.00    +0.000 C 
ATOM     33  C   UNL     1      -8.633  -3.684 125.633  0.00  0.00    +0.000 C 
ATOM     34  C   UNL     1      -9.142  -2.270 125.889  0.00  0.00    +0.000 C 
ATOM     35  N   UNL     1      -8.176  -1.359 125.204  0.00  0.00    +0.000 NA
BRANCH  35  36
ATOM     36  S   UNL     1      -8.797  -0.519 123.833  0.00  0.00    +0.000 S 
ATOM     37  C   UNL     1      -9.678   0.887 124.525  0.00  0.00    +0.000 C 
ATOM     38  O   UNL     1      -7.668  -0.001 123.091  0.00  0.00    +0.000 OA
ATOM     39  O   UNL     1      -9.777  -1.377 123.205  0.00  0.00    +0.000 OA
ENDBRANCH  35  36
ENDBRANCH  30  31
ENDBRANCH   9  30
TORSDOF 5
ENDMDL
MODEL 6
REMARK VINA RESULT:     -10.3      3.707      9.453
REMARK  Name = CHEMBL32745
REMARK  7 active torsions:
REMARK  status: ('A' for Active; 'I' for Inactive)
REMARK    1  A    between atoms: C_1  and  C_2
REMARK    2  A    between atoms: C_4  and  C_5
REMARK    3  A    between atoms: C_10  and  N_11
REMARK    4  A    between atoms: N_28  and  C_29
REMARK    5  A    between atoms: C_29  and  C_30
REMARK    6  A    between atoms: N_34  and  S_35
REMARK    7  A    between atoms: S_35  and  C_36
REMARK                            x       y       z     vdW  Elec       q    Type
REMARK                         _______ _______ _______ _____ _____    ______ ____
ROOT
ATOM      1  C   UNL     1      -9.361   3.785 133.716  0.00  0.00    +0.000 C 
ATOM      2  C   UNL     1      -7.874   3.745 133.549  0.00  0.00    +0.000 A 
ATOM      3  C   UNL     1      -7.161   2.675 134.134  0.00  0.00    +0.000 A 
ATOM      4  C   UNL     1      -5.785   2.515 134.026  0.00  0.00    +0.000 A 
ATOM      5  C   UNL     1      -5.060   3.500 133.336  0.00  0.00    +0.000 A 
ATOM      6  C   UNL     1      -5.730   4.598 132.747  0.00  0.00    +0.000 A 
ATOM      7  C   UNL     1      -5.263   5.713 132.016  0.00  0.00    +0.000 A 
ATOM      8  C   UNL     1      -6.343   6.502 131.742  0.00  0.00    +0.000 A 
ATOM      9  N   UNL     1      -7.488   5.882 132.184  0.00  0.00    +0.000 N 
ATOM     10  C   UNL     1      -7.127   4.713 132.851  0.00  0.00    +0.000 A 
ENDROOT
BRANCH   4  11
ATOM     11  C   UNL     1      -5.061   1.386 134.709  0.00  0.00    +0.000 C 
ATOM     12  O   UNL     1      -5.020   1.388 135.940  0.00  0.00    +0.000 OA
ATOM     13  N   UNL     1      -4.631   0.264 133.965  0.00  0.00    +0.000 N 
ATOM     14  C   UNL     1      -5.496  -0.898 134.033  0.00  0.00    +0.000 C 
ATOM     15  C   UNL     1      -4.712  -2.191 134.003  0.00  0.00    +0.000 C 
ATOM     16  C   UNL     1      -4.056  -2.423 132.388  0.00  0.00    +0.000 C 
ATOM     17  C   UNL     1      -2.980  -1.087 132.663  0.00  0.00    +0.000 C 
ATOM     18  C   UNL     1      -3.687   0.266 132.832  0.00  0.00    +0.000 C 
BRANCH  16  19
ATOM     19  N   UNL     1      -5.266  -3.131 131.179  0.00  0.00    +0.000 N 
ATOM     20  C   UNL     1      -4.181  -2.887 130.257  0.00  0.00    +0.000 C 
ATOM     21  O   UNL     1      -2.969  -3.252 130.305  0.00  0.00    +0.000 OA
ATOM     22  O   UNL     1      -4.413  -1.959 129.359  0.00  0.00    +0.000 OA
ATOM     23  C   UNL     1      -4.784  -2.826 128.370  0.00  0.00    +0.000 C 
ATOM     24  C   UNL     1      -6.203  -2.555 128.599  0.00  0.00    +0.000 A 
ATOM     25  C   UNL     1      -6.827  -2.255 127.253  0.00  0.00    +0.000 A 
ATOM     26  C   UNL     1      -8.004  -2.730 126.776  0.00  0.00    +0.000 A 
ATOM     27  C   UNL     1      -8.609  -3.432 127.790  0.00  0.00    +0.000 A 
ATOM     28  C   UNL     1      -7.945  -3.608 129.314  0.00  0.00    +0.000 A 
ATOM     29  C   UNL     1      -6.609  -3.003 129.891  0.00  0.00    +0.000 A 
ENDBRANCH  16  19
ENDBRANCH   4  11
BRANCH   9  30
ATOM     30  C   UNL     1      -8.849   6.406 131.968  0.00  0.00    +0.000 C 
BRANCH  30  31
ATOM     31  C   UNL     1      -9.289   6.385 130.483  0.00  0.00    +0.000 C 
ATOM     32  C   UNL     1      -9.188   4.986 129.863  0.00  0.00    +0.000 C 
ATOM     33  C   UNL     1     -10.455   4.292 130.305  0.00  0.00    +0.000 C 
ATOM     34  C   UNL     1     -11.490   5.399 130.471  0.00  0.00    +0.000 C 
ATOM     35  N   UNL     1     -10.747   6.682 130.288  0.00  0.00    +0.000 NA
BRANCH  35  36
ATOM     36  S   UNL     1     -11.141   7.569 128.864  0.00  0.00    +0.000 S 
ATOM     37  C   UNL     1     -12.400   8.737 129.392  0.00  0.00    +0.000 C 
ATOM     38  O   UNL     1      -9.971   8.332 128.487  0.00  0.00    +0.000 OA
ATOM     39  O   UNL     1     -11.765   6.649 127.939  0.00  0.00    +0.000 OA
ENDBRANCH  35  36
ENDBRANCH  30  31
ENDBRANCH   9  30
TORSDOF 5
ENDMDL
MODEL 7
REMARK VINA RESULT:      -9.9      1.826      2.362
REMARK  Name = CHEMBL32745
REMARK  7 active torsions:
REMARK  status: ('A' for Active; 'I' for Inactive)
REMARK    1  A    between atoms: C_1  and  C_2
REMARK    2  A    between atoms: C_4  and  C_5
REMARK    3  A    between atoms: C_10  and  N_11
REMARK    4  A    between atoms: N_28  and  C_29
REMARK    5  A    between atoms: C_29  and  C_30
REMARK    6  A    between atoms: N_34  and  S_35
REMARK    7  A    between atoms: S_35  and  C_36
REMARK                            x       y       z     vdW  Elec       q    Type
REMARK                         _______ _______ _______ _____ _____    ______ ____
ROOT
ATOM      1  C   UNL     1      -5.537   2.077 126.273  0.00  0.00    +0.000 C 
ATOM      2  C   UNL     1      -5.450   1.441 127.626  0.00  0.00    +0.000 A 
ATOM      3  C   UNL     1      -5.263   2.275 128.750  0.00  0.00    +0.000 A 
ATOM      4  C   UNL     1      -5.193   1.806 130.056  0.00  0.00    +0.000 A 
ATOM      5  C   UNL     1      -5.265   0.419 130.261  0.00  0.00    +0.000 A 
ATOM      6  C   UNL     1      -5.435  -0.458 129.164  0.00  0.00    +0.000 A 
ATOM      7  C   UNL     1      -5.531  -1.864 129.079  0.00  0.00    +0.000 A 
ATOM      8  C   UNL     1      -5.624  -2.188 127.756  0.00  0.00    +0.000 A 
ATOM      9  N   UNL     1      -5.689  -1.037 127.006  0.00  0.00    +0.000 N 
ATOM     10  C   UNL     1      -5.531   0.054 127.858  0.00  0.00    +0.000 A 
ENDROOT
BRANCH   4  11
ATOM     11  C   UNL     1      -4.942   2.728 131.219  0.00  0.00    +0.000 C 
ATOM     12  O   UNL     1      -3.786   2.837 131.630  0.00  0.00    +0.000 OA
ATOM     13  N   UNL     1      -5.965   3.590 131.675  0.00  0.00    +0.000 N 
ATOM     14  C   UNL     1      -5.884   4.959 131.202  0.00  0.00    +0.000 C 
ATOM     15  C   UNL     1      -6.355   5.948 132.246  0.00  0.00    +0.000 C 
ATOM     16  C   UNL     1      -8.100   5.811 132.415  0.00  0.00    +0.000 C 
ATOM     17  C   UNL     1      -7.879   4.248 133.141  0.00  0.00    +0.000 C 
ATOM     18  C   UNL     1      -7.286   3.193 132.196  0.00  0.00    +0.000 C 
BRANCH  16  19
ATOM     19  N   UNL     1      -9.056   6.724 131.120  0.00  0.00    +0.000 N 
ATOM     20  C   UNL     1     -10.154   6.433 132.011  0.00  0.00    +0.000 C 
ATOM     21  O   UNL     1     -10.287   6.664 133.249  0.00  0.00    +0.000 OA
ATOM     22  O   UNL     1     -11.049   5.599 131.536  0.00  0.00    +0.000 OA
ATOM     23  C   UNL     1     -11.918   6.568 131.116  0.00  0.00    +0.000 C 
ATOM     24  C   UNL     1     -11.473   6.432 129.729  0.00  0.00    +0.000 A 
ATOM     25  C   UNL     1     -12.712   6.295 128.871  0.00  0.00    +0.000 A 
ATOM     26  C   UNL     1     -12.965   6.923 127.696  0.00  0.00    +0.000 A 
ATOM     27  C   UNL     1     -11.831   7.613 127.343  0.00  0.00    +0.000 A 
ATOM     28  C   UNL     1     -10.429   7.611 128.254  0.00  0.00    +0.000 A 
ATOM     29  C   UNL     1     -10.111   6.829 129.586  0.00  0.00    +0.000 A 
ENDBRANCH  16  19
ENDBRANCH   4  11
BRANCH   9  30
ATOM     30  C   UNL     1      -5.889  -1.011 125.546  0.00  0.00    +0.000 C 
BRANCH  30  31
ATOM     31  C   UNL     1      -7.349  -1.308 125.118  0.00  0.00    +0.000 C 
ATOM     32  C   UNL     1      -8.372  -0.533 125.956  0.00  0.00    +0.000 C 
ATOM     33  C   UNL     1      -8.409   0.838 125.323  0.00  0.00    +0.000 C 
ATOM     34  C   UNL     1      -8.062   0.619 123.855  0.00  0.00    +0.000 C 
ATOM     35  N   UNL     1      -7.678  -0.821 123.738  0.00  0.00    +0.000 NA
BRANCH  35  36
ATOM     36  S   UNL     1      -8.771  -1.808 122.843  0.00  0.00    +0.000 S 
ATOM     37  C   UNL     1      -9.068  -3.229 123.902  0.00  0.00    +0.000 C 
ATOM     38  O   UNL     1     -10.018  -1.085 122.726  0.00  0.00    +0.000 OA
ATOM     39  O   UNL     1      -8.067  -2.282 121.671  0.00  0.00    +0.000 OA
ENDBRANCH  35  36
ENDBRANCH  30  31
ENDBRANCH   9  30
TORSDOF 5
ENDMDL
MODEL 8
REMARK VINA RESULT:      -9.5      4.946     10.506
REMARK  Name = CHEMBL32745
REMARK  7 active torsions:
REMARK  status: ('A' for Active; 'I' for Inactive)
REMARK    1  A    between atoms: C_1  and  C_2
REMARK    2  A    between atoms: C_4  and  C_5
REMARK    3  A    between atoms: C_10  and  N_11
REMARK    4  A    between atoms: N_28  and  C_29
REMARK    5  A    between atoms: C_29  and  C_30
REMARK    6  A    between atoms: N_34  and  S_35
REMARK    7  A    between atoms: S_35  and  C_36
REMARK                            x       y       z     vdW  Elec       q    Type
REMARK                         _______ _______ _______ _____ _____    ______ ____
ROOT
ATOM      1  C   UNL     1      -8.579   1.833 132.178  0.00  0.00    +0.000 C 
ATOM      2  C   UNL     1      -8.259   1.064 130.934  0.00  0.00    +0.000 A 
ATOM      3  C   UNL     1      -8.229  -0.346 131.005  0.00  0.00    +0.000 A 
ATOM      4  C   UNL     1      -7.970  -1.167 129.914  0.00  0.00    +0.000 A 
ATOM      5  C   UNL     1      -7.677  -0.556 128.685  0.00  0.00    +0.000 A 
ATOM      6  C   UNL     1      -7.679   0.854 128.570  0.00  0.00    +0.000 A 
ATOM      7  C   UNL     1      -7.420   1.718 127.483  0.00  0.00    +0.000 A 
ATOM      8  C   UNL     1      -7.500   2.998 127.951  0.00  0.00    +0.000 A 
ATOM      9  N   UNL     1      -7.896   2.980 129.268  0.00  0.00    +0.000 N 
ATOM     10  C   UNL     1      -7.974   1.654 129.687  0.00  0.00    +0.000 A 
ENDROOT
BRANCH   4  11
ATOM     11  C   UNL     1      -7.898  -2.665 130.047  0.00  0.00    +0.000 C 
ATOM     12  O   UNL     1      -8.368  -3.349 129.136  0.00  0.00    +0.000 OA
ATOM     13  N   UNL     1      -7.131  -3.250 131.080  0.00  0.00    +0.000 N 
ATOM     14  C   UNL     1      -5.811  -3.711 130.693  0.00  0.00    +0.000 C 
ATOM     15  C   UNL     1      -5.408  -4.966 131.435  0.00  0.00    +0.000 C 
ATOM     16  C   UNL     1      -5.082  -4.555 133.114  0.00  0.00    +0.000 C 
ATOM     17  C   UNL     1      -6.778  -4.255 133.341  0.00  0.00    +0.000 C 
ATOM     18  C   UNL     1      -7.321  -3.068 132.531  0.00  0.00    +0.000 C 
BRANCH  16  19
ATOM     19  N   UNL     1      -3.397  -3.845 133.401  0.00  0.00    +0.000 N 
ATOM     20  C   UNL     1      -3.275  -5.002 134.256  0.00  0.00    +0.000 C 
ATOM     21  O   UNL     1      -3.468  -6.229 134.005  0.00  0.00    +0.000 OA
ATOM     22  O   UNL     1      -3.184  -4.739 135.539  0.00  0.00    +0.000 OA
ATOM     23  C   UNL     1      -1.820  -4.815 135.589  0.00  0.00    +0.000 C 
ATOM     24  C   UNL     1      -1.690  -3.358 135.572  0.00  0.00    +0.000 A 
ATOM     25  C   UNL     1      -0.754  -2.977 136.699  0.00  0.00    +0.000 A 
ATOM     26  C   UNL     1       0.266  -2.086 136.646  0.00  0.00    +0.000 A 
ATOM     27  C   UNL     1       0.222  -1.478 135.415  0.00  0.00    +0.000 A 
ATOM     28  C   UNL     1      -0.929  -1.828 134.254  0.00  0.00    +0.000 A 
ATOM     29  C   UNL     1      -2.155  -2.816 134.337  0.00  0.00    +0.000 A 
ENDBRANCH  16  19
ENDBRANCH   4  11
BRANCH   9  30
ATOM     30  C   UNL     1      -8.176   4.189 130.063  0.00  0.00    +0.000 C 
BRANCH  30  31
ATOM     31  C   UNL     1      -9.520   4.870 129.699  0.00  0.00    +0.000 C 
ATOM     32  C   UNL     1     -10.414   5.090 130.925  0.00  0.00    +0.000 C 
ATOM     33  C   UNL     1      -9.880   6.357 131.550  0.00  0.00    +0.000 C 
ATOM     34  C   UNL     1      -9.297   7.167 130.398  0.00  0.00    +0.000 C 
ATOM     35  N   UNL     1      -9.362   6.276 129.200  0.00  0.00    +0.000 NA
BRANCH  35  36
ATOM     36  S   UNL     1     -10.475   6.760 127.977  0.00  0.00    +0.000 S 
ATOM     37  C   UNL     1     -10.552   8.550 128.118  0.00  0.00    +0.000 C 
ATOM     38  O   UNL     1      -9.878   6.450 126.696  0.00  0.00    +0.000 OA
ATOM     39  O   UNL     1     -11.775   6.241 128.343  0.00  0.00    +0.000 OA
ENDBRANCH  35  36
ENDBRANCH  30  31
ENDBRANCH   9  30
TORSDOF 5
ENDMDL
MODEL 9
REMARK VINA RESULT:      -9.4      4.573      8.884
REMARK  Name = CHEMBL32745
REMARK  7 active torsions:
REMARK  status: ('A' for Active; 'I' for Inactive)
REMARK    1  A    between atoms: C_1  and  C_2
REMARK    2  A    between atoms: C_4  and  C_5
REMARK    3  A    between atoms: C_10  and  N_11
REMARK    4  A    between atoms: N_28  and  C_29
REMARK    5  A    between atoms: C_29  and  C_30
REMARK    6  A    between atoms: N_34  and  S_35
REMARK    7  A    between atoms: S_35  and  C_36
REMARK                            x       y       z     vdW  Elec       q    Type
REMARK                         _______ _______ _______ _____ _____    ______ ____
ROOT
ATOM      1  C   UNL     1      -5.769   0.872 130.425  0.00  0.00    +0.000 C 
ATOM      2  C   UNL     1      -5.034   2.172 130.324  0.00  0.00    +0.000 A 
ATOM      3  C   UNL     1      -5.228   2.966 129.171  0.00  0.00    +0.000 A 
ATOM      4  C   UNL     1      -4.622   4.201 128.975  0.00  0.00    +0.000 A 
ATOM      5  C   UNL     1      -3.732   4.661 129.959  0.00  0.00    +0.000 A 
ATOM      6  C   UNL     1      -3.494   3.893 131.122  0.00  0.00    +0.000 A 
ATOM      7  C   UNL     1      -2.664   4.104 132.245  0.00  0.00    +0.000 A 
ATOM      8  C   UNL     1      -2.772   3.003 133.045  0.00  0.00    +0.000 A 
ATOM      9  N   UNL     1      -3.712   2.146 132.522  0.00  0.00    +0.000 N 
ATOM     10  C   UNL     1      -4.146   2.660 131.302  0.00  0.00    +0.000 A 
ENDROOT
BRANCH   4  11
ATOM     11  C   UNL     1      -4.819   4.989 127.708  0.00  0.00    +0.000 C 
ATOM     12  O   UNL     1      -4.108   5.979 127.528  0.00  0.00    +0.000 OA
ATOM     13  N   UNL     1      -5.643   4.482 126.677  0.00  0.00    +0.000 N 
ATOM     14  C   UNL     1      -4.946   3.831 125.585  0.00  0.00    +0.000 C 
ATOM     15  C   UNL     1      -5.625   4.070 124.255  0.00  0.00    +0.000 C 
ATOM     16  C   UNL     1      -7.130   3.159 124.212  0.00  0.00    +0.000 C 
ATOM     17  C   UNL     1      -7.782   4.235 125.410  0.00  0.00    +0.000 C 
ATOM     18  C   UNL     1      -7.079   4.161 126.773  0.00  0.00    +0.000 C 
BRANCH  16  19
ATOM     19  N   UNL     1      -6.916   1.372 123.781  0.00  0.00    +0.000 N 
ATOM     20  C   UNL     1      -8.311   1.497 123.429  0.00  0.00    +0.000 C 
ATOM     21  O   UNL     1      -8.890   2.322 122.661  0.00  0.00    +0.000 OA
ATOM     22  O   UNL     1      -9.139   0.818 124.187  0.00  0.00    +0.000 OA
ATOM     23  C   UNL     1      -9.235  -0.254 123.344  0.00  0.00    +0.000 C 
ATOM     24  C   UNL     1      -8.303  -1.037 124.155  0.00  0.00    +0.000 A 
ATOM     25  C   UNL     1      -8.942  -2.387 124.399  0.00  0.00    +0.000 A 
ATOM     26  C   UNL     1      -8.344  -3.600 124.307  0.00  0.00    +0.000 A 
ATOM     27  C   UNL     1      -7.006  -3.388 124.083  0.00  0.00    +0.000 A 
ATOM     28  C   UNL     1      -6.320  -1.867 123.971  0.00  0.00    +0.000 A 
ATOM     29  C   UNL     1      -7.000  -0.455 124.142  0.00  0.00    +0.000 A 
ENDBRANCH  16  19
ENDBRANCH   4  11
BRANCH   9  30
ATOM     30  C   UNL     1      -4.152   0.901 133.177  0.00  0.00    +0.000 C 
BRANCH  30  31
ATOM     31  C   UNL     1      -3.325  -0.341 132.761  0.00  0.00    +0.000 C 
ATOM     32  C   UNL     1      -2.238  -0.689 133.785  0.00  0.00    +0.000 C 
ATOM     33  C   UNL     1      -2.971  -1.468 134.852  0.00  0.00    +0.000 C 
ATOM     34  C   UNL     1      -4.130  -2.150 134.137  0.00  0.00    +0.000 C 
ATOM     35  N   UNL     1      -4.123  -1.611 132.743  0.00  0.00    +0.000 NA
BRANCH  35  36
ATOM     36  S   UNL     1      -3.693  -2.741 131.515  0.00  0.00    +0.000 S 
ATOM     37  C   UNL     1      -5.235  -3.089 130.660  0.00  0.00    +0.000 C 
ATOM     38  O   UNL     1      -2.823  -2.061 130.580  0.00  0.00    +0.000 OA
ATOM     39  O   UNL     1      -3.279  -3.961 132.173  0.00  0.00    +0.000 OA
ENDBRANCH  35  36
ENDBRANCH  30  31
ENDBRANCH   9  30
TORSDOF 5
ENDMDL
