MODEL 1
REMARK VINA RESULT:      -9.2      0.000      0.000
REMARK  Name = CHEMBL2112378
REMARK  17 active torsions:
REMARK  status: ('A' for Active; 'I' for Inactive)
REMARK    1  A    between atoms: C_1  and  C_2
REMARK    2  A    between atoms: C_2  and  C_3
REMARK    3  A    between atoms: C_3  and  C_4
REMARK    4  A    between atoms: C_3  and  C_5
REMARK    5  A    between atoms: C_9  and  C_10
REMARK    6  A    between atoms: C_10  and  C_11
REMARK    7  A    between atoms: C_10  and  C_12
REMARK    8  A    between atoms: C_12  and  C_13
REMARK    9  A    between atoms: C_17  and  C_18
REMARK   10  A    between atoms: C_18  and  C_19
REMARK   11  A    between atoms: C_36  and  C_37
REMARK   12  A    between atoms: C_37  and  C_38
REMARK   13  A    between atoms: C_38  and  C_39
REMARK   14  A    between atoms: C_39  and  C_40
REMARK   15  A    between atoms: C_40  and  N_41
REMARK   16  A    between atoms: C_45  and  C_46
REMARK   17  A    between atoms: C_46  and  C_47
REMARK                            x       y       z     vdW  Elec       q    Type
REMARK                         _______ _______ _______ _____ _____    ______ ____
ROOT
ATOM      1  C   UNL     1      -8.211  -1.121 126.737  0.00  0.00    +0.000 C 
ATOM      2  N   UNL     1      -8.163  -0.725 128.232  0.00  0.00    +0.000 N 
ATOM      3  C   UNL     1      -7.610   0.352 129.120  0.00  0.00    +0.000 C 
ATOM      4  O   UNL     1      -7.612   1.529 128.707  0.00  0.00    +0.000 OA
ATOM      5  C   UNL     1      -6.437  -0.276 129.936  0.00  0.00    +0.000 C 
ATOM      6  N   UNL     1      -5.328   0.372 129.443  0.00  0.00    +0.000 N 
ATOM      7  C   UNL     1      -5.153   1.702 129.590  0.00  0.00    +0.000 C 
ATOM      8  O   UNL     1      -4.106   2.137 129.090  0.00  0.00    +0.000 OA
ATOM      9  C   UNL     1      -6.330   2.662 130.330  0.00  0.00    +0.000 C 
ATOM     10  N   UNL     1      -5.364   3.390 131.152  0.00  0.00    +0.000 N 
ATOM     11  C   UNL     1      -4.352   4.243 130.731  0.00  0.00    +0.000 C 
ATOM     12  O   UNL     1      -3.557   4.643 131.591  0.00  0.00    +0.000 OA
ATOM     13  C   UNL     1      -4.160   4.737 129.267  0.00  0.00    +0.000 C 
ATOM     14  C   UNL     1      -5.228   4.432 128.254  0.00  0.00    +0.000 C 
ATOM     15  C   UNL     1      -4.851   4.661 126.804  0.00  0.00    +0.000 C 
ATOM     16  S   UNL     1      -6.335   4.601 125.798  0.00  0.00    +0.000 S 
ATOM     17  C   UNL     1      -5.960   4.105 124.103  0.00  0.00    +0.000 C 
ATOM     18  C   UNL     1      -7.078   3.343 123.297  0.00  0.00    +0.000 C 
ATOM     19  N   UNL     1      -6.944   1.923 123.372  0.00  0.00    +0.000 N 
ATOM     20  C   UNL     1      -7.043   1.255 124.494  0.00  0.00    +0.000 C 
ATOM     21  O   UNL     1      -6.879   0.060 124.464  0.00  0.00    +0.000 OA
ATOM     22  C   UNL     1      -7.368   1.933 125.724  0.00  0.00    +0.000 C 
ATOM     23  N   UNL     1      -8.619   1.466 126.171  0.00  0.00    +0.000 N 
ATOM     24  C   UNL     1      -9.138   0.207 126.039  0.00  0.00    +0.000 C 
ATOM     25  O   UNL     1     -10.347   0.266 125.779  0.00  0.00    +0.000 OA
ATOM     26  H   UNL     1      -9.000  -1.108 128.599  0.00  0.00    +0.000 HD
ATOM     27  H   UNL     1      -4.883  -0.173 128.689  0.00  0.00    +0.000 HD
ATOM     28  H   UNL     1      -5.300   3.071 132.105  0.00  0.00    +0.000 HD
ATOM     29  H   UNL     1      -6.766   1.294 122.600  0.00  0.00    +0.000 HD
ATOM     30  H   UNL     1      -9.228   2.258 126.319  0.00  0.00    +0.000 HD
ENDROOT
BRANCH   1  31
ATOM     31  C   UNL     1      -7.061  -2.273 126.442  0.00  0.00    +0.000 C 
ATOM     32  C   UNL     1      -6.771  -2.989 127.693  0.00  0.00    +0.000 C 
BRANCH  31  34
ATOM     33  C   UNL     1      -9.128  -3.389 125.773  0.00  0.00    +0.000 C 
ATOM     34  C   UNL     1      -7.640  -3.273 125.468  0.00  0.00    +0.000 C 
ENDBRANCH  31  34
ENDBRANCH   1  31
BRANCH   5  35
ATOM     35  C   UNL     1      -6.158  -0.327 131.398  0.00  0.00    +0.000 C 
ATOM     36  C   UNL     1      -4.773  -0.891 131.460  0.00  0.00    +0.000 C 
BRANCH  35  37
ATOM     37  C   UNL     1      -7.229  -1.077 132.231  0.00  0.00    +0.000 C 
ATOM     38  C   UNL     1      -7.290  -2.629 131.926  0.00  0.00    +0.000 C 
ENDBRANCH  35  37
ENDBRANCH   5  35
BRANCH   9  39
ATOM     39  C   UNL     1      -7.725   2.119 131.078  0.00  0.00    +0.000 C 
BRANCH  39  40
ATOM     40  C   UNL     1      -9.169   3.051 131.573  0.00  0.00    +0.000 A 
ATOM     41  C   UNL     1      -9.332   3.409 132.934  0.00  0.00    +0.000 A 
ATOM     42  N   UNL     1      -9.932   4.714 133.101  0.00  0.00    +0.000 N 
ATOM     43  C   UNL     1     -10.383   5.348 131.832  0.00  0.00    +0.000 A 
ATOM     44  C   UNL     1     -10.635   6.953 131.344  0.00  0.00    +0.000 A 
ATOM     45  C   UNL     1     -10.415   7.397 129.833  0.00  0.00    +0.000 A 
ATOM     46  C   UNL     1      -9.869   6.553 128.818  0.00  0.00    +0.000 A 
ATOM     47  C   UNL     1      -9.620   5.121 129.244  0.00  0.00    +0.000 A 
ATOM     48  C   UNL     1      -9.959   4.326 130.726  0.00  0.00    +0.000 A 
ATOM     49  H   UNL     1      -9.707   5.310 133.917  0.00  0.00    +0.000 HD
ENDBRANCH  39  40
ENDBRANCH   9  39
BRANCH  18  50
ATOM     50  C   UNL     1      -6.978   3.714 121.839  0.00  0.00    +0.000 C 
BRANCH  50  51
ATOM     51  C   UNL     1      -5.747   3.061 121.249  0.00  0.00    +0.000 C 
BRANCH  51  52
ATOM     52  C   UNL     1      -4.836   4.097 120.651  0.00  0.00    +0.000 C 
BRANCH  52  53
ATOM     53  C   UNL     1      -5.631   4.991 119.717  0.00  0.00    +0.000 C 
BRANCH  53  54
ATOM     54  N   UNL     1      -5.022   6.306 119.691  0.00  0.00    +0.000 NA
ATOM     55  H   UNL     1      -5.328   6.811 118.861  0.00  0.00    +0.000 HD
ATOM     56  H   UNL     1      -4.012   6.210 119.620  0.00  0.00    +0.000 HD
ENDBRANCH  53  54
ENDBRANCH  52  53
ENDBRANCH  51  52
ENDBRANCH  50  51
ENDBRANCH  18  50
BRANCH  22  57
ATOM     57  C   UNL     1      -6.080   2.005 126.514  0.00  0.00    +0.000 C 
BRANCH  57  58
ATOM     58  C   UNL     1      -5.083   0.986 126.470  0.00  0.00    +0.000 C 
ATOM     59  N   UNL     1      -4.080   1.799 126.137  0.00  0.00    +0.000 N 
ATOM     60  O   UNL     1      -4.969  -0.167 126.511  0.00  0.00    +0.000 OA
ATOM     61  H   UNL     1      -4.343   2.782 125.843  0.00  0.00    +0.000 HD
ATOM     62  H   UNL     1      -3.160   1.613 125.854  0.00  0.00    +0.000 HD
ENDBRANCH  57  58
ENDBRANCH  22  57
TORSDOF 13
ENDMDL
MODEL 2
REMARK VINA RESULT:      -9.2      2.858      7.041
REMARK  Name = CHEMBL2112378
REMARK  17 active torsions:
REMARK  status: ('A' for Active; 'I' for Inactive)
REMARK    1  A    between atoms: C_1  and  C_2
REMARK    2  A    between atoms: C_2  and  C_3
REMARK    3  A    between atoms: C_3  and  C_4
REMARK    4  A    between atoms: C_3  and  C_5
REMARK    5  A    between atoms: C_9  and  C_10
REMARK    6  A    between atoms: C_10  and  C_11
REMARK    7  A    between atoms: C_10  and  C_12
REMARK    8  A    between atoms: C_12  and  C_13
REMARK    9  A    between atoms: C_17  and  C_18
REMARK   10  A    between atoms: C_18  and  C_19
REMARK   11  A    between atoms: C_36  and  C_37
REMARK   12  A    between atoms: C_37  and  C_38
REMARK   13  A    between atoms: C_38  and  C_39
REMARK   14  A    between atoms: C_39  and  C_40
REMARK   15  A    between atoms: C_40  and  N_41
REMARK   16  A    between atoms: C_45  and  C_46
REMARK   17  A    between atoms: C_46  and  C_47
REMARK                            x       y       z     vdW  Elec       q    Type
REMARK                         _______ _______ _______ _____ _____    ______ ____
ROOT
ATOM      1  C   UNL     1      -3.331   5.238 129.083  0.00  0.00    +0.000 C 
ATOM      2  N   UNL     1      -3.279   4.253 130.275  0.00  0.00    +0.000 N 
ATOM      3  C   UNL     1      -3.975   3.022 130.781  0.00  0.00    +0.000 C 
ATOM      4  O   UNL     1      -4.344   2.160 129.959  0.00  0.00    +0.000 OA
ATOM      5  C   UNL     1      -4.814   3.443 132.028  0.00  0.00    +0.000 C 
ATOM      6  N   UNL     1      -6.112   3.290 131.600  0.00  0.00    +0.000 N 
ATOM      7  C   UNL     1      -6.616   2.086 131.259  0.00  0.00    +0.000 C 
ATOM      8  O   UNL     1      -7.799   2.112 130.892  0.00  0.00    +0.000 OA
ATOM      9  C   UNL     1      -5.650   0.700 131.272  0.00  0.00    +0.000 C 
ATOM     10  N   UNL     1      -6.654  -0.117 131.952  0.00  0.00    +0.000 N 
ATOM     11  C   UNL     1      -7.905  -0.500 131.485  0.00  0.00    +0.000 C 
ATOM     12  O   UNL     1      -8.653  -1.076 132.285  0.00  0.00    +0.000 OA
ATOM     13  C   UNL     1      -8.420  -0.269 130.034  0.00  0.00    +0.000 C 
ATOM     14  C   UNL     1      -7.458   0.238 128.997  0.00  0.00    +0.000 C 
ATOM     15  C   UNL     1      -8.076   0.731 127.703  0.00  0.00    +0.000 C 
ATOM     16  S   UNL     1      -6.781   0.941 126.479  0.00  0.00    +0.000 S 
ATOM     17  C   UNL     1      -7.237   2.180 125.248  0.00  0.00    +0.000 C 
ATOM     18  C   UNL     1      -6.076   2.991 124.559  0.00  0.00    +0.000 C 
ATOM     19  N   UNL     1      -5.813   4.238 125.205  0.00  0.00    +0.000 N 
ATOM     20  C   UNL     1      -5.387   4.325 126.441  0.00  0.00    +0.000 C 
ATOM     21  O   UNL     1      -5.227   5.424 126.913  0.00  0.00    +0.000 OA
ATOM     22  C   UNL     1      -5.091   3.136 127.199  0.00  0.00    +0.000 C 
ATOM     23  N   UNL     1      -3.712   3.122 127.483  0.00  0.00    +0.000 N 
ATOM     24  C   UNL     1      -2.897   4.193 127.729  0.00  0.00    +0.000 C 
ATOM     25  O   UNL     1      -1.796   4.028 127.189  0.00  0.00    +0.000 OA
ATOM     26  H   UNL     1      -2.328   4.276 130.552  0.00  0.00    +0.000 HD
ATOM     27  H   UNL     1      -6.493   4.179 131.242  0.00  0.00    +0.000 HD
ATOM     28  H   UNL     1      -6.500  -0.235 132.940  0.00  0.00    +0.000 HD
ATOM     29  H   UNL     1      -5.919   5.159 124.801  0.00  0.00    +0.000 HD
ATOM     30  H   UNL     1      -3.323   2.245 127.166  0.00  0.00    +0.000 HD
ENDROOT
BRANCH   1  31
ATOM     31  C   UNL     1      -4.159   6.597 129.535  0.00  0.00    +0.000 C 
ATOM     32  C   UNL     1      -4.029   6.772 130.989  0.00  0.00    +0.000 C 
BRANCH  31  34
ATOM     33  C   UNL     1      -3.944   9.027 129.635  0.00  0.00    +0.000 C 
ATOM     34  C   UNL     1      -3.505   7.786 128.871  0.00  0.00    +0.000 C 
ENDBRANCH  31  34
ENDBRANCH   1  31
BRANCH   5  35
ATOM     35  C   UNL     1      -4.867   2.910 133.418  0.00  0.00    +0.000 C 
ATOM     36  C   UNL     1      -6.091   3.560 133.984  0.00  0.00    +0.000 C 
BRANCH  35  37
ATOM     37  C   UNL     1      -3.563   3.105 134.232  0.00  0.00    +0.000 C 
ATOM     38  C   UNL     1      -2.899   4.527 134.025  0.00  0.00    +0.000 C 
ENDBRANCH  35  37
ENDBRANCH   5  35
BRANCH   9  39
ATOM     39  C   UNL     1      -4.072   0.596 131.819  0.00  0.00    +0.000 C 
BRANCH  39  40
ATOM     40  C   UNL     1      -3.169  -0.844 132.376  0.00  0.00    +0.000 A 
ATOM     41  C   UNL     1      -2.602  -0.849 133.674  0.00  0.00    +0.000 A 
ATOM     42  N   UNL     1      -2.664  -2.148 134.307  0.00  0.00    +0.000 N 
ATOM     43  C   UNL     1      -3.174  -3.234 133.426  0.00  0.00    +0.000 A 
ATOM     44  C   UNL     1      -3.934  -4.723 133.714  0.00  0.00    +0.000 A 
ATOM     45  C   UNL     1      -4.980  -5.327 132.679  0.00  0.00    +0.000 A 
ATOM     46  C   UNL     1      -5.464  -4.633 131.528  0.00  0.00    +0.000 A 
ATOM     47  C   UNL     1      -4.809  -3.293 131.269  0.00  0.00    +0.000 A 
ATOM     48  C   UNL     1      -3.524  -2.505 132.087  0.00  0.00    +0.000 A 
ATOM     49  H   UNL     1      -2.748  -2.244 135.334  0.00  0.00    +0.000 HD
ENDBRANCH  39  40
ENDBRANCH   9  39
BRANCH  18  50
ATOM     50  C   UNL     1      -6.469   3.311 123.139  0.00  0.00    +0.000 C 
BRANCH  50  51
ATOM     51  C   UNL     1      -5.389   4.163 122.510  0.00  0.00    +0.000 C 
BRANCH  51  52
ATOM     52  C   UNL     1      -5.247   3.839 121.049  0.00  0.00    +0.000 C 
BRANCH  52  53
ATOM     53  C   UNL     1      -5.126   5.126 120.254  0.00  0.00    +0.000 C 
BRANCH  53  54
ATOM     54  N   UNL     1      -4.294   6.058 120.991  0.00  0.00    +0.000 NA
ATOM     55  H   UNL     1      -3.310   5.845 120.828  0.00  0.00    +0.000 HD
ATOM     56  H   UNL     1      -4.457   5.943 121.988  0.00  0.00    +0.000 HD
ENDBRANCH  53  54
ENDBRANCH  52  53
ENDBRANCH  51  52
ENDBRANCH  50  51
ENDBRANCH  18  50
BRANCH  22  57
ATOM     57  C   UNL     1      -6.231   2.971 128.180  0.00  0.00    +0.000 C 
BRANCH  57  58
ATOM     58  C   UNL     1      -7.340   3.867 128.239  0.00  0.00    +0.000 C 
ATOM     59  N   UNL     1      -6.844   4.623 129.220  0.00  0.00    +0.000 N 
ATOM     60  O   UNL     1      -8.414   4.003 127.825  0.00  0.00    +0.000 OA
ATOM     61  H   UNL     1      -5.991   4.248 129.724  0.00  0.00    +0.000 HD
ATOM     62  H   UNL     1      -7.247   5.338 129.757  0.00  0.00    +0.000 HD
ENDBRANCH  57  58
ENDBRANCH  22  57
TORSDOF 13
ENDMDL
MODEL 3
REMARK VINA RESULT:      -8.9      3.223      8.914
REMARK  Name = CHEMBL2112378
REMARK  17 active torsions:
REMARK  status: ('A' for Active; 'I' for Inactive)
REMARK    1  A    between atoms: C_1  and  C_2
REMARK    2  A    between atoms: C_2  and  C_3
REMARK    3  A    between atoms: C_3  and  C_4
REMARK    4  A    between atoms: C_3  and  C_5
REMARK    5  A    between atoms: C_9  and  C_10
REMARK    6  A    between atoms: C_10  and  C_11
REMARK    7  A    between atoms: C_10  and  C_12
REMARK    8  A    between atoms: C_12  and  C_13
REMARK    9  A    between atoms: C_17  and  C_18
REMARK   10  A    between atoms: C_18  and  C_19
REMARK   11  A    between atoms: C_36  and  C_37
REMARK   12  A    between atoms: C_37  and  C_38
REMARK   13  A    between atoms: C_38  and  C_39
REMARK   14  A    between atoms: C_39  and  C_40
REMARK   15  A    between atoms: C_40  and  N_41
REMARK   16  A    between atoms: C_45  and  C_46
REMARK   17  A    between atoms: C_46  and  C_47
REMARK                            x       y       z     vdW  Elec       q    Type
REMARK                         _______ _______ _______ _____ _____    ______ ____
ROOT
ATOM      1  C   UNL     1      -9.460   4.153 131.400  0.00  0.00    +0.000 C 
ATOM      2  N   UNL     1      -9.010   3.355 130.152  0.00  0.00    +0.000 N 
ATOM      3  C   UNL     1      -7.768   3.056 129.365  0.00  0.00    +0.000 C 
ATOM      4  O   UNL     1      -6.693   2.891 129.978  0.00  0.00    +0.000 OA
ATOM      5  C   UNL     1      -7.881   3.822 128.009  0.00  0.00    +0.000 C 
ATOM      6  N   UNL     1      -6.890   4.772 128.102  0.00  0.00    +0.000 N 
ATOM      7  C   UNL     1      -5.585   4.440 128.180  0.00  0.00    +0.000 C 
ATOM      8  O   UNL     1      -4.815   5.407 128.260  0.00  0.00    +0.000 OA
ATOM      9  C   UNL     1      -5.098   2.823 128.243  0.00  0.00    +0.000 C 
ATOM     10  N   UNL     1      -4.029   3.001 127.261  0.00  0.00    +0.000 N 
ATOM     11  C   UNL     1      -2.881   3.775 127.375  0.00  0.00    +0.000 C 
ATOM     12  O   UNL     1      -2.178   3.895 126.364  0.00  0.00    +0.000 OA
ATOM     13  C   UNL     1      -2.415   4.483 128.682  0.00  0.00    +0.000 C 
ATOM     14  C   UNL     1      -3.137   4.183 129.965  0.00  0.00    +0.000 C 
ATOM     15  C   UNL     1      -2.848   5.117 131.123  0.00  0.00    +0.000 C 
ATOM     16  S   UNL     1      -3.497   4.396 132.632  0.00  0.00    +0.000 S 
ATOM     17  C   UNL     1      -3.891   5.669 133.851  0.00  0.00    +0.000 C 
ATOM     18  C   UNL     1      -5.047   5.367 134.877  0.00  0.00    +0.000 C 
ATOM     19  N   UNL     1      -6.312   5.876 134.452  0.00  0.00    +0.000 N 
ATOM     20  C   UNL     1      -6.920   5.461 133.368  0.00  0.00    +0.000 C 
ATOM     21  O   UNL     1      -7.970   5.976 133.070  0.00  0.00    +0.000 OA
ATOM     22  C   UNL     1      -6.358   4.397 132.575  0.00  0.00    +0.000 C 
ATOM     23  N   UNL     1      -7.234   3.297 132.622  0.00  0.00    +0.000 N 
ATOM     24  C   UNL     1      -8.601   3.318 132.694  0.00  0.00    +0.000 C 
ATOM     25  O   UNL     1      -9.005   2.430 133.456  0.00  0.00    +0.000 OA
ATOM     26  H   UNL     1      -9.659   2.607 130.110  0.00  0.00    +0.000 HD
ATOM     27  H   UNL     1      -7.264   5.666 128.455  0.00  0.00    +0.000 HD
ATOM     28  H   UNL     1      -4.259   2.695 126.330  0.00  0.00    +0.000 HD
ATOM     29  H   UNL     1      -6.863   6.584 134.918  0.00  0.00    +0.000 HD
ATOM     30  H   UNL     1      -6.719   2.482 132.924  0.00  0.00    +0.000 HD
ENDROOT
BRANCH   1  31
ATOM     31  C   UNL     1     -10.116   5.593 130.917  0.00  0.00    +0.000 C 
ATOM     32  C   UNL     1     -11.027   5.347 129.788  0.00  0.00    +0.000 C 
BRANCH  31  34
ATOM     33  C   UNL     1     -12.143   6.848 131.450  0.00  0.00    +0.000 C 
ATOM     34  C   UNL     1     -10.943   6.136 132.060  0.00  0.00    +0.000 C 
ENDBRANCH  31  34
ENDBRANCH   1  31
BRANCH   5  35
ATOM     35  C   UNL     1      -7.761   3.367 126.596  0.00  0.00    +0.000 C 
ATOM     36  C   UNL     1      -8.083   4.602 125.814  0.00  0.00    +0.000 C 
BRANCH  35  37
ATOM     37  C   UNL     1      -8.604   2.113 126.252  0.00  0.00    +0.000 C 
ATOM     38  C   UNL     1      -8.128   1.376 124.934  0.00  0.00    +0.000 C 
ENDBRANCH  35  37
ENDBRANCH   5  35
BRANCH   9  39
ATOM     39  C   UNL     1      -6.085   1.483 128.073  0.00  0.00    +0.000 C 
BRANCH  39  40
ATOM     40  C   UNL     1      -5.775  -0.209 128.561  0.00  0.00    +0.000 A 
ATOM     41  C   UNL     1      -5.517  -0.503 129.923  0.00  0.00    +0.000 A 
ATOM     42  N   UNL     1      -6.083  -1.767 130.340  0.00  0.00    +0.000 N 
ATOM     43  C   UNL     1      -6.690  -2.560 129.236  0.00  0.00    +0.000 A 
ATOM     44  C   UNL     1      -7.891  -3.755 129.170  0.00  0.00    +0.000 A 
ATOM     45  C   UNL     1      -8.829  -3.911 127.893  0.00  0.00    +0.000 A 
ATOM     46  C   UNL     1      -8.840  -3.004 126.789  0.00  0.00    +0.000 A 
ATOM     47  C   UNL     1      -7.785  -1.918 126.844  0.00  0.00    +0.000 A 
ATOM     48  C   UNL     1      -6.527  -1.645 127.977  0.00  0.00    +0.000 A 
ATOM     49  H   UNL     1      -6.402  -1.920 131.312  0.00  0.00    +0.000 HD
ENDBRANCH  39  40
ENDBRANCH   9  39
BRANCH  18  50
ATOM     50  C   UNL     1      -4.729   6.034 136.191  0.00  0.00    +0.000 C 
BRANCH  50  51
ATOM     51  C   UNL     1      -5.906   6.888 136.607  0.00  0.00    +0.000 C 
BRANCH  51  52
ATOM     52  C   UNL     1      -6.398   6.482 137.968  0.00  0.00    +0.000 C 
BRANCH  52  53
ATOM     53  C   UNL     1      -7.913   6.561 138.003  0.00  0.00    +0.000 C 
BRANCH  53  54
ATOM     54  N   UNL     1      -8.420   6.517 136.645  0.00  0.00    +0.000 NA
ATOM     55  H   UNL     1      -7.683   6.206 136.013  0.00  0.00    +0.000 HD
ATOM     56  H   UNL     1      -8.681   7.455 136.351  0.00  0.00    +0.000 HD
ENDBRANCH  53  54
ENDBRANCH  52  53
ENDBRANCH  51  52
ENDBRANCH  50  51
ENDBRANCH  18  50
BRANCH  22  57
ATOM     57  C   UNL     1      -5.780   5.057 131.342  0.00  0.00    +0.000 C 
BRANCH  57  58
ATOM     58  C   UNL     1      -6.321   6.247 130.771  0.00  0.00    +0.000 C 
ATOM     59  N   UNL     1      -5.263   7.013 131.041  0.00  0.00    +0.000 N 
ATOM     60  O   UNL     1      -7.308   6.671 130.335  0.00  0.00    +0.000 OA
ATOM     61  H   UNL     1      -4.536   6.606 131.694  0.00  0.00    +0.000 HD
ATOM     62  H   UNL     1      -5.129   7.982 130.972  0.00  0.00    +0.000 HD
ENDBRANCH  57  58
ENDBRANCH  22  57
TORSDOF 13
ENDMDL
MODEL 4
REMARK VINA RESULT:      -8.8      3.256      8.671
REMARK  Name = CHEMBL2112378
REMARK  17 active torsions:
REMARK  status: ('A' for Active; 'I' for Inactive)
REMARK    1  A    between atoms: C_1  and  C_2
REMARK    2  A    between atoms: C_2  and  C_3
REMARK    3  A    between atoms: C_3  and  C_4
REMARK    4  A    between atoms: C_3  and  C_5
REMARK    5  A    between atoms: C_9  and  C_10
REMARK    6  A    between atoms: C_10  and  C_11
REMARK    7  A    between atoms: C_10  and  C_12
REMARK    8  A    between atoms: C_12  and  C_13
REMARK    9  A    between atoms: C_17  and  C_18
REMARK   10  A    between atoms: C_18  and  C_19
REMARK   11  A    between atoms: C_36  and  C_37
REMARK   12  A    between atoms: C_37  and  C_38
REMARK   13  A    between atoms: C_38  and  C_39
REMARK   14  A    between atoms: C_39  and  C_40
REMARK   15  A    between atoms: C_40  and  N_41
REMARK   16  A    between atoms: C_45  and  C_46
REMARK   17  A    between atoms: C_46  and  C_47
REMARK                            x       y       z     vdW  Elec       q    Type
REMARK                         _______ _______ _______ _____ _____    ______ ____
ROOT
ATOM      1  C   UNL     1      -5.973   3.986 134.389  0.00  0.00    +0.000 C 
ATOM      2  N   UNL     1      -6.761   3.026 133.466  0.00  0.00    +0.000 N 
ATOM      3  C   UNL     1      -6.935   2.717 132.007  0.00  0.00    +0.000 C 
ATOM      4  O   UNL     1      -5.938   2.775 131.258  0.00  0.00    +0.000 OA
ATOM      5  C   UNL     1      -8.357   3.211 131.593  0.00  0.00    +0.000 C 
ATOM      6  N   UNL     1      -8.090   4.258 130.741  0.00  0.00    +0.000 N 
ATOM      7  C   UNL     1      -7.452   4.078 129.565  0.00  0.00    +0.000 C 
ATOM      8  O   UNL     1      -7.285   5.116 128.911  0.00  0.00    +0.000 OA
ATOM      9  C   UNL     1      -6.878   2.557 129.106  0.00  0.00    +0.000 C 
ATOM     10  N   UNL     1      -7.392   2.662 127.742  0.00  0.00    +0.000 N 
ATOM     11  C   UNL     1      -7.009   3.556 126.749  0.00  0.00    +0.000 C 
ATOM     12  O   UNL     1      -7.676   3.562 125.707  0.00  0.00    +0.000 OA
ATOM     13  C   UNL     1      -5.799   4.530 126.852  0.00  0.00    +0.000 C 
ATOM     14  C   UNL     1      -4.857   4.395 128.015  0.00  0.00    +0.000 C 
ATOM     15  C   UNL     1      -3.894   5.547 128.226  0.00  0.00    +0.000 C 
ATOM     16  S   UNL     1      -2.634   5.048 129.402  0.00  0.00    +0.000 S 
ATOM     17  C   UNL     1      -1.948   6.472 130.273  0.00  0.00    +0.000 C 
ATOM     18  C   UNL     1      -1.403   6.245 131.733  0.00  0.00    +0.000 C 
ATOM     19  N   UNL     1      -2.374   6.539 132.739  0.00  0.00    +0.000 N 
ATOM     20  C   UNL     1      -3.497   5.877 132.860  0.00  0.00    +0.000 C 
ATOM     21  O   UNL     1      -4.273   6.221 133.719  0.00  0.00    +0.000 OA
ATOM     22  C   UNL     1      -3.779   4.750 132.008  0.00  0.00    +0.000 C 
ATOM     23  N   UNL     1      -3.845   3.593 132.807  0.00  0.00    +0.000 N 
ATOM     24  C   UNL     1      -4.307   3.488 134.092  0.00  0.00    +0.000 C 
ATOM     25  O   UNL     1      -3.592   2.716 134.743  0.00  0.00    +0.000 OA
ATOM     26  H   UNL     1      -6.894   2.222 134.028  0.00  0.00    +0.000 HD
ATOM     27  H   UNL     1      -8.098   5.158 131.243  0.00  0.00    +0.000 HD
ATOM     28  H   UNL     1      -8.256   2.172 127.579  0.00  0.00    +0.000 HD
ATOM     29  H   UNL     1      -2.309   7.260 133.444  0.00  0.00    +0.000 HD
ATOM     30  H   UNL     1      -3.209   2.902 132.435  0.00  0.00    +0.000 HD
ENDROOT
BRANCH   1  31
ATOM     31  C   UNL     1      -6.954   5.242 134.833  0.00  0.00    +0.000 C 
ATOM     32  C   UNL     1      -8.352   4.788 134.805  0.00  0.00    +0.000 C 
BRANCH  31  34
ATOM     33  C   UNL     1      -7.819   6.368 136.820  0.00  0.00    +0.000 C 
ATOM     34  C   UNL     1      -6.622   5.611 136.261  0.00  0.00    +0.000 C 
ENDBRANCH  31  34
ENDBRANCH   1  31
BRANCH   5  35
ATOM     35  C   UNL     1      -9.491   2.524 130.916  0.00  0.00    +0.000 C 
ATOM     36  C   UNL     1     -10.335   3.660 130.429  0.00  0.00    +0.000 C 
BRANCH  35  37
ATOM     37  C   UNL     1     -10.219   1.471 131.791  0.00  0.00    +0.000 C 
ATOM     38  C   UNL     1      -9.382   0.146 132.008  0.00  0.00    +0.000 C 
ENDBRANCH  35  37
ENDBRANCH   5  35
BRANCH   9  39
ATOM     39  C   UNL     1      -7.134   1.115 129.917  0.00  0.00    +0.000 C 
BRANCH  39  40
ATOM     40  C   UNL     1      -6.810  -0.555 129.366  0.00  0.00    +0.000 A 
ATOM     41  C   UNL     1      -6.827  -1.613 130.308  0.00  0.00    +0.000 A 
ATOM     42  N   UNL     1      -7.374  -2.837 129.766  0.00  0.00    +0.000 N 
ATOM     43  C   UNL     1      -7.672  -2.781 128.308  0.00  0.00    +0.000 A 
ATOM     44  C   UNL     1      -8.740  -3.622 127.294  0.00  0.00    +0.000 A 
ATOM     45  C   UNL     1      -9.369  -2.930 126.007  0.00  0.00    +0.000 A 
ATOM     46  C   UNL     1      -9.212  -1.548 125.680  0.00  0.00    +0.000 A 
ATOM     47  C   UNL     1      -8.277  -0.779 126.589  0.00  0.00    +0.000 A 
ATOM     48  C   UNL     1      -7.313  -1.313 127.903  0.00  0.00    +0.000 A 
ATOM     49  H   UNL     1      -7.881  -3.512 130.364  0.00  0.00    +0.000 HD
ENDBRANCH  39  40
ENDBRANCH   9  39
BRANCH  18  50
ATOM     50  C   UNL     1      -0.234   7.167 131.974  0.00  0.00    +0.000 C 
BRANCH  50  51
ATOM     51  C   UNL     1      -0.220   7.573 133.431  0.00  0.00    +0.000 C 
BRANCH  51  52
ATOM     52  C   UNL     1       0.173   9.017 133.572  0.00  0.00    +0.000 C 
BRANCH  52  53
ATOM     53  C   UNL     1      -1.033   9.899 133.306  0.00  0.00    +0.000 C 
BRANCH  53  54
ATOM     54  N   UNL     1      -2.175   9.366 134.025  0.00  0.00    +0.000 NA
ATOM     55  H   UNL     1      -2.117   9.633 135.007  0.00  0.00    +0.000 HD
ATOM     56  H   UNL     1      -2.148   8.350 133.996  0.00  0.00    +0.000 HD
ENDBRANCH  53  54
ENDBRANCH  52  53
ENDBRANCH  51  52
ENDBRANCH  50  51
ENDBRANCH  18  50
BRANCH  22  57
ATOM     57  C   UNL     1      -4.805   5.231 131.005  0.00  0.00    +0.000 C 
BRANCH  57  58
ATOM     58  C   UNL     1      -5.304   6.567 130.985  0.00  0.00    +0.000 C 
ATOM     59  N   UNL     1      -6.337   6.332 131.795  0.00  0.00    +0.000 N 
ATOM     60  O   UNL     1      -5.149   7.581 130.444  0.00  0.00    +0.000 OA
ATOM     61  H   UNL     1      -6.557   5.317 132.003  0.00  0.00    +0.000 HD
ATOM     62  H   UNL     1      -7.108   6.886 132.041  0.00  0.00    +0.000 HD
ENDBRANCH  57  58
ENDBRANCH  22  57
TORSDOF 13
ENDMDL
MODEL 5
REMARK VINA RESULT:      -8.5      2.569      6.653
REMARK  Name = CHEMBL2112378
REMARK  17 active torsions:
REMARK  status: ('A' for Active; 'I' for Inactive)
REMARK    1  A    between atoms: C_1  and  C_2
REMARK    2  A    between atoms: C_2  and  C_3
REMARK    3  A    between atoms: C_3  and  C_4
REMARK    4  A    between atoms: C_3  and  C_5
REMARK    5  A    between atoms: C_9  and  C_10
REMARK    6  A    between atoms: C_10  and  C_11
REMARK    7  A    between atoms: C_10  and  C_12
REMARK    8  A    between atoms: C_12  and  C_13
REMARK    9  A    between atoms: C_17  and  C_18
REMARK   10  A    between atoms: C_18  and  C_19
REMARK   11  A    between atoms: C_36  and  C_37
REMARK   12  A    between atoms: C_37  and  C_38
REMARK   13  A    between atoms: C_38  and  C_39
REMARK   14  A    between atoms: C_39  and  C_40
REMARK   15  A    between atoms: C_40  and  N_41
REMARK   16  A    between atoms: C_45  and  C_46
REMARK   17  A    between atoms: C_46  and  C_47
REMARK                            x       y       z     vdW  Elec       q    Type
REMARK                         _______ _______ _______ _____ _____    ______ ____
ROOT
ATOM      1  C   UNL     1      -4.302   4.577 129.889  0.00  0.00    +0.000 C 
ATOM      2  N   UNL     1      -4.265   3.244 130.674  0.00  0.00    +0.000 N 
ATOM      3  C   UNL     1      -4.728   1.822 130.549  0.00  0.00    +0.000 C 
ATOM      4  O   UNL     1      -4.692   1.275 129.429  0.00  0.00    +0.000 OA
ATOM      5  C   UNL     1      -5.890   1.620 131.572  0.00  0.00    +0.000 C 
ATOM      6  N   UNL     1      -6.990   1.435 130.766  0.00  0.00    +0.000 N 
ATOM      7  C   UNL     1      -7.099   0.376 129.936  0.00  0.00    +0.000 C 
ATOM      8  O   UNL     1      -8.146   0.351 129.275  0.00  0.00    +0.000 OA
ATOM      9  C   UNL     1      -5.847  -0.749 129.788  0.00  0.00    +0.000 C 
ATOM     10  N   UNL     1      -6.741  -1.904 129.862  0.00  0.00    +0.000 N 
ATOM     11  C   UNL     1      -7.732  -2.279 128.963  0.00  0.00    +0.000 C 
ATOM     12  O   UNL     1      -8.468  -3.217 129.294  0.00  0.00    +0.000 OA
ATOM     13  C   UNL     1      -7.967  -1.616 127.574  0.00  0.00    +0.000 C 
ATOM     14  C   UNL     1      -6.961  -0.621 127.068  0.00  0.00    +0.000 C 
ATOM     15  C   UNL     1      -7.392   0.209 125.875  0.00  0.00    +0.000 C 
ATOM     16  S   UNL     1      -5.959   1.053 125.201  0.00  0.00    +0.000 S 
ATOM     17  C   UNL     1      -6.432   2.569 124.343  0.00  0.00    +0.000 C 
ATOM     18  C   UNL     1      -5.387   3.746 124.305  0.00  0.00    +0.000 C 
ATOM     19  N   UNL     1      -5.581   4.694 125.356  0.00  0.00    +0.000 N 
ATOM     20  C   UNL     1      -5.462   4.388 126.624  0.00  0.00    +0.000 C 
ATOM     21  O   UNL     1      -5.681   5.247 127.442  0.00  0.00    +0.000 OA
ATOM     22  C   UNL     1      -5.051   3.065 127.022  0.00  0.00    +0.000 C 
ATOM     23  N   UNL     1      -3.804   3.162 127.668  0.00  0.00    +0.000 N 
ATOM     24  C   UNL     1      -3.348   4.182 128.458  0.00  0.00    +0.000 C 
ATOM     25  O   UNL     1      -2.151   4.400 128.231  0.00  0.00    +0.000 OA
ATOM     26  H   UNL     1      -3.430   3.311 131.204  0.00  0.00    +0.000 HD
ATOM     27  H   UNL     1      -7.492   2.322 130.613  0.00  0.00    +0.000 HD
ATOM     28  H   UNL     1      -6.776  -2.351 130.764  0.00  0.00    +0.000 HD
ATOM     29  H   UNL     1      -5.822   5.670 125.248  0.00  0.00    +0.000 HD
ATOM     30  H   UNL     1      -3.153   2.535 127.216  0.00  0.00    +0.000 HD
ENDROOT
BRANCH   1  31
ATOM     31  C   UNL     1      -5.515   5.528 130.489  0.00  0.00    +0.000 C 
ATOM     32  C   UNL     1      -6.067   4.893 131.695  0.00  0.00    +0.000 C 
BRANCH  31  34
ATOM     33  C   UNL     1      -4.106   7.369 129.721  0.00  0.00    +0.000 C 
ATOM     34  C   UNL     1      -4.910   6.849 130.905  0.00  0.00    +0.000 C 
ENDBRANCH  31  34
ENDBRANCH   1  31
BRANCH   5  35
ATOM     35  C   UNL     1      -6.105   0.613 132.648  0.00  0.00    +0.000 C 
ATOM     36  C   UNL     1      -7.568   0.737 132.942  0.00  0.00    +0.000 C 
BRANCH  35  37
ATOM     37  C   UNL     1      -5.158   0.763 133.866  0.00  0.00    +0.000 C 
ATOM     38  C   UNL     1      -5.705   0.067 135.178  0.00  0.00    +0.000 C 
ENDBRANCH  35  37
ENDBRANCH   5  35
BRANCH   9  39
ATOM     39  C   UNL     1      -4.446  -0.800 130.701  0.00  0.00    +0.000 C 
BRANCH  39  40
ATOM     40  C   UNL     1      -3.918  -2.036 131.881  0.00  0.00    +0.000 A 
ATOM     41  C   UNL     1      -2.791  -1.778 132.700  0.00  0.00    +0.000 A 
ATOM     42  N   UNL     1      -2.933  -2.319 134.034  0.00  0.00    +0.000 N 
ATOM     43  C   UNL     1      -4.154  -3.147 134.231  0.00  0.00    +0.000 A 
ATOM     44  C   UNL     1      -5.086  -3.562 135.586  0.00  0.00    +0.000 A 
ATOM     45  C   UNL     1      -6.651  -3.824 135.459  0.00  0.00    +0.000 A 
ATOM     46  C   UNL     1      -7.409  -3.603 134.268  0.00  0.00    +0.000 A 
ATOM     47  C   UNL     1      -6.591  -3.213 133.055  0.00  0.00    +0.000 A 
ATOM     48  C   UNL     1      -4.894  -3.068 132.855  0.00  0.00    +0.000 A 
ATOM     49  H   UNL     1      -2.489  -1.864 134.849  0.00  0.00    +0.000 HD
ENDBRANCH  39  40
ENDBRANCH   9  39
BRANCH  18  50
ATOM     50  C   UNL     1      -5.536   4.499 123.007  0.00  0.00    +0.000 C 
BRANCH  50  51
ATOM     51  C   UNL     1      -6.155   3.582 121.975  0.00  0.00    +0.000 C 
BRANCH  51  52
ATOM     52  C   UNL     1      -5.564   3.840 120.618  0.00  0.00    +0.000 C 
BRANCH  52  53
ATOM     53  C   UNL     1      -4.715   5.098 120.666  0.00  0.00    +0.000 C 
BRANCH  53  54
ATOM     54  N   UNL     1      -5.159   6.007 119.628  0.00  0.00    +0.000 NA
ATOM     55  H   UNL     1      -4.562   5.912 118.808  0.00  0.00    +0.000 HD
ATOM     56  H   UNL     1      -5.060   6.966 119.952  0.00  0.00    +0.000 HD
ENDBRANCH  53  54
ENDBRANCH  52  53
ENDBRANCH  51  52
ENDBRANCH  50  51
ENDBRANCH  18  50
BRANCH  22  57
ATOM     57  C   UNL     1      -6.298   2.377 127.534  0.00  0.00    +0.000 C 
BRANCH  57  58
ATOM     58  C   UNL     1      -7.583   2.996 127.533  0.00  0.00    +0.000 C 
ATOM     59  N   UNL     1      -7.516   3.437 128.790  0.00  0.00    +0.000 N 
ATOM     60  O   UNL     1      -8.542   3.085 126.888  0.00  0.00    +0.000 OA
ATOM     61  H   UNL     1      -6.725   3.059 129.385  0.00  0.00    +0.000 HD
ATOM     62  H   UNL     1      -8.192   3.842 129.373  0.00  0.00    +0.000 HD
ENDBRANCH  57  58
ENDBRANCH  22  57
TORSDOF 13
ENDMDL
MODEL 6
REMARK VINA RESULT:      -8.3      3.406      9.037
REMARK  Name = CHEMBL2112378
REMARK  17 active torsions:
REMARK  status: ('A' for Active; 'I' for Inactive)
REMARK    1  A    between atoms: C_1  and  C_2
REMARK    2  A    between atoms: C_2  and  C_3
REMARK    3  A    between atoms: C_3  and  C_4
REMARK    4  A    between atoms: C_3  and  C_5
REMARK    5  A    between atoms: C_9  and  C_10
REMARK    6  A    between atoms: C_10  and  C_11
REMARK    7  A    between atoms: C_10  and  C_12
REMARK    8  A    between atoms: C_12  and  C_13
REMARK    9  A    between atoms: C_17  and  C_18
REMARK   10  A    between atoms: C_18  and  C_19
REMARK   11  A    between atoms: C_36  and  C_37
REMARK   12  A    between atoms: C_37  and  C_38
REMARK   13  A    between atoms: C_38  and  C_39
REMARK   14  A    between atoms: C_39  and  C_40
REMARK   15  A    between atoms: C_40  and  N_41
REMARK   16  A    between atoms: C_45  and  C_46
REMARK   17  A    between atoms: C_46  and  C_47
REMARK                            x       y       z     vdW  Elec       q    Type
REMARK                         _______ _______ _______ _____ _____    ______ ____
ROOT
ATOM      1  C   UNL     1      -9.683   4.240 131.315  0.00  0.00    +0.000 C 
ATOM      2  N   UNL     1      -9.180   3.453 130.082  0.00  0.00    +0.000 N 
ATOM      3  C   UNL     1      -7.903   3.152 129.352  0.00  0.00    +0.000 C 
ATOM      4  O   UNL     1      -6.861   2.973 130.013  0.00  0.00    +0.000 OA
ATOM      5  C   UNL     1      -7.945   3.934 128.001  0.00  0.00    +0.000 C 
ATOM      6  N   UNL     1      -6.954   4.875 128.151  0.00  0.00    +0.000 N 
ATOM      7  C   UNL     1      -5.656   4.531 128.288  0.00  0.00    +0.000 C 
ATOM      8  O   UNL     1      -4.884   5.492 128.415  0.00  0.00    +0.000 OA
ATOM      9  C   UNL     1      -5.184   2.910 128.356  0.00  0.00    +0.000 C 
ATOM     10  N   UNL     1      -4.069   3.091 127.428  0.00  0.00    +0.000 N 
ATOM     11  C   UNL     1      -2.922   3.854 127.606  0.00  0.00    +0.000 C 
ATOM     12  O   UNL     1      -2.171   3.979 126.631  0.00  0.00    +0.000 OA
ATOM     13  C   UNL     1      -2.514   4.544 128.940  0.00  0.00    +0.000 C 
ATOM     14  C   UNL     1      -3.298   4.236 130.184  0.00  0.00    +0.000 C 
ATOM     15  C   UNL     1      -3.058   5.156 131.365  0.00  0.00    +0.000 C 
ATOM     16  S   UNL     1      -3.784   4.424 132.834  0.00  0.00    +0.000 S 
ATOM     17  C   UNL     1      -4.227   5.686 134.046  0.00  0.00    +0.000 C 
ATOM     18  C   UNL     1      -5.432   5.383 135.013  0.00  0.00    +0.000 C 
ATOM     19  N   UNL     1      -6.672   5.906 134.533  0.00  0.00    +0.000 N 
ATOM     20  C   UNL     1      -7.230   5.508 133.417  0.00  0.00    +0.000 C 
ATOM     21  O   UNL     1      -8.261   6.034 133.075  0.00  0.00    +0.000 OA
ATOM     22  C   UNL     1      -6.639   4.448 132.640  0.00  0.00    +0.000 C 
ATOM     23  N   UNL     1      -7.524   3.354 132.634  0.00  0.00    +0.000 N 
ATOM     24  C   UNL     1      -8.893   3.385 132.640  0.00  0.00    +0.000 C 
ATOM     25  O   UNL     1      -9.339   2.492 133.372  0.00  0.00    +0.000 OA
ATOM     26  H   UNL     1      -9.831   2.710 130.001  0.00  0.00    +0.000 HD
ATOM     27  H   UNL     1      -7.337   5.768 128.496  0.00  0.00    +0.000 HD
ATOM     28  H   UNL     1      -4.257   2.797 126.484  0.00  0.00    +0.000 HD
ATOM     29  H   UNL     1      -7.239   6.614 134.981  0.00  0.00    +0.000 HD
ATOM     30  H   UNL     1      -7.030   2.532 132.950  0.00  0.00    +0.000 HD
ENDROOT
BRANCH   1  31
ATOM     31  C   UNL     1     -10.305   5.691 130.818  0.00  0.00    +0.000 C 
ATOM     32  C   UNL     1     -11.052   5.485 129.568  0.00  0.00    +0.000 C 
BRANCH  31  34
ATOM     33  C   UNL     1     -12.346   6.989 131.150  0.00  0.00    +0.000 C 
ATOM     34  C   UNL     1     -11.287   6.161 131.865  0.00  0.00    +0.000 C 
ENDBRANCH  31  34
ENDBRANCH   1  31
BRANCH   5  35
ATOM     35  C   UNL     1      -7.762   3.493 126.590  0.00  0.00    +0.000 C 
ATOM     36  C   UNL     1      -8.062   4.732 125.806  0.00  0.00    +0.000 C 
BRANCH  35  37
ATOM     37  C   UNL     1      -8.578   2.234 126.199  0.00  0.00    +0.000 C 
ATOM     38  C   UNL     1      -9.011   2.212 124.677  0.00  0.00    +0.000 C 
ENDBRANCH  35  37
ENDBRANCH   5  35
BRANCH   9  39
ATOM     39  C   UNL     1      -6.172   1.580 128.124  0.00  0.00    +0.000 C 
BRANCH  39  40
ATOM     40  C   UNL     1      -5.965  -0.091 128.728  0.00  0.00    +0.000 A 
ATOM     41  C   UNL     1      -5.497  -1.095 127.845  0.00  0.00    +0.000 A 
ATOM     42  N   UNL     1      -4.625  -2.049 128.495  0.00  0.00    +0.000 N 
ATOM     43  C   UNL     1      -4.511  -1.870 129.968  0.00  0.00    +0.000 A 
ATOM     44  C   UNL     1      -3.329  -2.279 131.113  0.00  0.00    +0.000 A 
ATOM     45  C   UNL     1      -3.103  -1.391 132.415  0.00  0.00    +0.000 A 
ATOM     46  C   UNL     1      -3.750  -0.140 132.657  0.00  0.00    +0.000 A 
ATOM     47  C   UNL     1      -4.795   0.247 131.631  0.00  0.00    +0.000 A 
ATOM     48  C   UNL     1      -5.385  -0.607 130.266  0.00  0.00    +0.000 A 
ATOM     49  H   UNL     1      -3.863  -2.521 127.978  0.00  0.00    +0.000 HD
ENDBRANCH  39  40
ENDBRANCH   9  39
BRANCH  18  50
ATOM     50  C   UNL     1      -5.172   6.034 136.348  0.00  0.00    +0.000 C 
BRANCH  50  51
ATOM     51  C   UNL     1      -6.259   5.622 137.316  0.00  0.00    +0.000 C 
BRANCH  51  52
ATOM     52  C   UNL     1      -6.628   6.769 138.214  0.00  0.00    +0.000 C 
BRANCH  52  53
ATOM     53  C   UNL     1      -7.627   7.666 137.505  0.00  0.00    +0.000 C 
BRANCH  53  54
ATOM     54  N   UNL     1      -8.617   6.838 136.843  0.00  0.00    +0.000 NA
ATOM     55  H   UNL     1      -9.400   6.668 137.473  0.00  0.00    +0.000 HD
ATOM     56  H   UNL     1      -8.211   5.931 136.628  0.00  0.00    +0.000 HD
ENDBRANCH  53  54
ENDBRANCH  52  53
ENDBRANCH  51  52
ENDBRANCH  50  51
ENDBRANCH  18  50
BRANCH  22  57
ATOM     57  C   UNL     1      -5.998   5.116 131.443  0.00  0.00    +0.000 C 
BRANCH  57  58
ATOM     58  C   UNL     1      -6.492   6.326 130.871  0.00  0.00    +0.000 C 
ATOM     59  N   UNL     1      -5.411   7.054 131.153  0.00  0.00    +0.000 N 
ATOM     60  O   UNL     1      -7.459   6.786 130.428  0.00  0.00    +0.000 OA
ATOM     61  H   UNL     1      -4.703   6.620 131.811  0.00  0.00    +0.000 HD
ATOM     62  H   UNL     1      -5.242   8.018 131.088  0.00  0.00    +0.000 HD
ENDBRANCH  57  58
ENDBRANCH  22  57
TORSDOF 13
ENDMDL
MODEL 7
REMARK VINA RESULT:      -8.3      3.631      8.277
REMARK  Name = CHEMBL2112378
REMARK  17 active torsions:
REMARK  status: ('A' for Active; 'I' for Inactive)
REMARK    1  A    between atoms: C_1  and  C_2
REMARK    2  A    between atoms: C_2  and  C_3
REMARK    3  A    between atoms: C_3  and  C_4
REMARK    4  A    between atoms: C_3  and  C_5
REMARK    5  A    between atoms: C_9  and  C_10
REMARK    6  A    between atoms: C_10  and  C_11
REMARK    7  A    between atoms: C_10  and  C_12
REMARK    8  A    between atoms: C_12  and  C_13
REMARK    9  A    between atoms: C_17  and  C_18
REMARK   10  A    between atoms: C_18  and  C_19
REMARK   11  A    between atoms: C_36  and  C_37
REMARK   12  A    between atoms: C_37  and  C_38
REMARK   13  A    between atoms: C_38  and  C_39
REMARK   14  A    between atoms: C_39  and  C_40
REMARK   15  A    between atoms: C_40  and  N_41
REMARK   16  A    between atoms: C_45  and  C_46
REMARK   17  A    between atoms: C_46  and  C_47
REMARK                            x       y       z     vdW  Elec       q    Type
REMARK                         _______ _______ _______ _____ _____    ______ ____
ROOT
ATOM      1  C   UNL     1      -6.289  -2.188 128.325  0.00  0.00    +0.000 C 
ATOM      2  N   UNL     1      -5.834  -0.716 128.181  0.00  0.00    +0.000 N 
ATOM      3  C   UNL     1      -5.501   0.475 129.034  0.00  0.00    +0.000 C 
ATOM      4  O   UNL     1      -4.898   0.292 130.110  0.00  0.00    +0.000 OA
ATOM      5  C   UNL     1      -6.654   1.512 128.854  0.00  0.00    +0.000 C 
ATOM      6  N   UNL     1      -7.257   1.529 130.091  0.00  0.00    +0.000 N 
ATOM      7  C   UNL     1      -6.609   1.950 131.197  0.00  0.00    +0.000 C 
ATOM      8  O   UNL     1      -7.285   1.904 132.234  0.00  0.00    +0.000 OA
ATOM      9  C   UNL     1      -4.985   2.414 131.134  0.00  0.00    +0.000 C 
ATOM     10  N   UNL     1      -5.194   3.620 131.935  0.00  0.00    +0.000 N 
ATOM     11  C   UNL     1      -5.589   3.707 133.264  0.00  0.00    +0.000 C 
ATOM     12  O   UNL     1      -5.842   4.835 133.705  0.00  0.00    +0.000 OA
ATOM     13  C   UNL     1      -5.720   2.494 134.232  0.00  0.00    +0.000 C 
ATOM     14  C   UNL     1      -5.221   1.150 133.781  0.00  0.00    +0.000 C 
ATOM     15  C   UNL     1      -5.649  -0.034 134.625  0.00  0.00    +0.000 C 
ATOM     16  S   UNL     1      -4.676  -1.467 134.158  0.00  0.00    +0.000 S 
ATOM     17  C   UNL     1      -5.562  -3.002 134.500  0.00  0.00    +0.000 C 
ATOM     18  C   UNL     1      -5.247  -4.248 133.590  0.00  0.00    +0.000 C 
ATOM     19  N   UNL     1      -6.155  -4.377 132.494  0.00  0.00    +0.000 N 
ATOM     20  C   UNL     1      -6.260  -3.481 131.545  0.00  0.00    +0.000 C 
ATOM     21  O   UNL     1      -7.081  -3.659 130.680  0.00  0.00    +0.000 OA
ATOM     22  C   UNL     1      -5.392  -2.331 131.526  0.00  0.00    +0.000 C 
ATOM     23  N   UNL     1      -4.580  -2.406 130.378  0.00  0.00    +0.000 N 
ATOM     24  C   UNL     1      -4.910  -2.914 129.151  0.00  0.00    +0.000 C 
ATOM     25  O   UNL     1      -3.956  -3.543 128.676  0.00  0.00    +0.000 OA
ATOM     26  H   UNL     1      -5.318  -0.715 127.335  0.00  0.00    +0.000 HD
ATOM     27  H   UNL     1      -8.059   0.882 130.122  0.00  0.00    +0.000 HD
ATOM     28  H   UNL     1      -5.258   4.472 131.403  0.00  0.00    +0.000 HD
ATOM     29  H   UNL     1      -6.796  -5.143 132.331  0.00  0.00    +0.000 HD
ATOM     30  H   UNL     1      -3.612  -2.334 130.659  0.00  0.00    +0.000 HD
ENDROOT
BRANCH   1  31
ATOM     31  C   UNL     1      -7.922  -2.280 128.076  0.00  0.00    +0.000 C 
ATOM     32  C   UNL     1      -8.316  -1.242 127.112  0.00  0.00    +0.000 C 
BRANCH  31  34
ATOM     33  C   UNL     1      -9.071  -3.362 126.212  0.00  0.00    +0.000 C 
ATOM     34  C   UNL     1      -8.223  -3.622 127.450  0.00  0.00    +0.000 C 
ENDBRANCH  31  34
ENDBRANCH   1  31
BRANCH   5  35
ATOM     35  C   UNL     1      -6.646   2.953 128.478  0.00  0.00    +0.000 C 
ATOM     36  C   UNL     1      -8.075   3.359 128.661  0.00  0.00    +0.000 C 
BRANCH  35  37
ATOM     37  C   UNL     1      -6.033   3.250 127.086  0.00  0.00    +0.000 C 
ATOM     38  C   UNL     1      -6.455   2.204 125.976  0.00  0.00    +0.000 C 
ENDBRANCH  35  37
ENDBRANCH   5  35
BRANCH   9  39
ATOM     39  C   UNL     1      -4.048   2.558 129.756  0.00  0.00    +0.000 C 
BRANCH  39  40
ATOM     40  C   UNL     1      -2.965   3.895 129.268  0.00  0.00    +0.000 A 
ATOM     41  C   UNL     1      -2.521   3.975 127.925  0.00  0.00    +0.000 A 
ATOM     42  N   UNL     1      -2.417   5.337 127.451  0.00  0.00    +0.000 N 
ATOM     43  C   UNL     1      -2.655   6.370 128.495  0.00  0.00    +0.000 A 
ATOM     44  C   UNL     1      -3.174   7.985 128.456  0.00  0.00    +0.000 A 
ATOM     45  C   UNL     1      -4.008   8.611 129.657  0.00  0.00    +0.000 A 
ATOM     46  C   UNL     1      -4.501   7.862 130.770  0.00  0.00    +0.000 A 
ATOM     47  C   UNL     1      -4.062   6.413 130.808  0.00  0.00    +0.000 A 
ATOM     48  C   UNL     1      -3.006   5.541 129.776  0.00  0.00    +0.000 A 
ATOM     49  H   UNL     1      -2.572   5.574 126.455  0.00  0.00    +0.000 HD
ENDBRANCH  39  40
ENDBRANCH   9  39
BRANCH  18  50
ATOM     50  C   UNL     1      -5.374  -5.506 134.411  0.00  0.00    +0.000 C 
BRANCH  50  51
ATOM     51  C   UNL     1      -6.190  -5.205 135.649  0.00  0.00    +0.000 C 
BRANCH  51  52
ATOM     52  C   UNL     1      -7.551  -5.834 135.550  0.00  0.00    +0.000 C 
BRANCH  52  53
ATOM     53  C   UNL     1      -8.616  -4.773 135.758  0.00  0.00    +0.000 C 
BRANCH  53  54
ATOM     54  N   UNL     1      -8.819  -4.059 134.512  0.00  0.00    +0.000 NA
ATOM     55  H   UNL     1      -8.031  -3.435 134.340  0.00  0.00    +0.000 HD
ATOM     56  H   UNL     1      -9.646  -3.471 134.590  0.00  0.00    +0.000 HD
ENDBRANCH  53  54
ENDBRANCH  52  53
ENDBRANCH  51  52
ENDBRANCH  50  51
ENDBRANCH  18  50
BRANCH  22  57
ATOM     57  C   UNL     1      -6.240  -1.160 131.974  0.00  0.00    +0.000 C 
BRANCH  57  58
ATOM     58  C   UNL     1      -7.644  -1.081 131.731  0.00  0.00    +0.000 C 
ATOM     59  N   UNL     1      -8.009  -1.496 132.945  0.00  0.00    +0.000 N 
ATOM     60  O   UNL     1      -8.404  -0.907 130.873  0.00  0.00    +0.000 OA
ATOM     61  H   UNL     1      -7.246  -1.903 133.557  0.00  0.00    +0.000 HD
ATOM     62  H   UNL     1      -8.884  -1.749 133.309  0.00  0.00    +0.000 HD
ENDBRANCH  57  58
ENDBRANCH  22  57
TORSDOF 13
ENDMDL
MODEL 8
REMARK VINA RESULT:      -8.2      3.360      8.991
REMARK  Name = CHEMBL2112378
REMARK  17 active torsions:
REMARK  status: ('A' for Active; 'I' for Inactive)
REMARK    1  A    between atoms: C_1  and  C_2
REMARK    2  A    between atoms: C_2  and  C_3
REMARK    3  A    between atoms: C_3  and  C_4
REMARK    4  A    between atoms: C_3  and  C_5
REMARK    5  A    between atoms: C_9  and  C_10
REMARK    6  A    between atoms: C_10  and  C_11
REMARK    7  A    between atoms: C_10  and  C_12
REMARK    8  A    between atoms: C_12  and  C_13
REMARK    9  A    between atoms: C_17  and  C_18
REMARK   10  A    between atoms: C_18  and  C_19
REMARK   11  A    between atoms: C_36  and  C_37
REMARK   12  A    between atoms: C_37  and  C_38
REMARK   13  A    between atoms: C_38  and  C_39
REMARK   14  A    between atoms: C_39  and  C_40
REMARK   15  A    between atoms: C_40  and  N_41
REMARK   16  A    between atoms: C_45  and  C_46
REMARK   17  A    between atoms: C_46  and  C_47
REMARK                            x       y       z     vdW  Elec       q    Type
REMARK                         _______ _______ _______ _____ _____    ______ ____
ROOT
ATOM      1  C   UNL     1      -6.189   4.126 134.381  0.00  0.00    +0.000 C 
ATOM      2  N   UNL     1      -6.945   3.155 133.443  0.00  0.00    +0.000 N 
ATOM      3  C   UNL     1      -7.060   2.821 131.984  0.00  0.00    +0.000 C 
ATOM      4  O   UNL     1      -6.032   2.859 131.277  0.00  0.00    +0.000 OA
ATOM      5  C   UNL     1      -8.459   3.316 131.502  0.00  0.00    +0.000 C 
ATOM      6  N   UNL     1      -8.150   4.345 130.643  0.00  0.00    +0.000 N 
ATOM      7  C   UNL     1      -7.465   4.141 129.499  0.00  0.00    +0.000 C 
ATOM      8  O   UNL     1      -7.263   5.166 128.834  0.00  0.00    +0.000 OA
ATOM      9  C   UNL     1      -6.882   2.608 129.092  0.00  0.00    +0.000 C 
ATOM     10  N   UNL     1      -7.337   2.692 127.705  0.00  0.00    +0.000 N 
ATOM     11  C   UNL     1      -6.907   3.565 126.714  0.00  0.00    +0.000 C 
ATOM     12  O   UNL     1      -7.530   3.557 125.645  0.00  0.00    +0.000 OA
ATOM     13  C   UNL     1      -5.696   4.534 126.850  0.00  0.00    +0.000 C 
ATOM     14  C   UNL     1      -4.805   4.414 128.054  0.00  0.00    +0.000 C 
ATOM     15  C   UNL     1      -3.844   5.564 128.285  0.00  0.00    +0.000 C 
ATOM     16  S   UNL     1      -2.638   5.079 129.521  0.00  0.00    +0.000 S 
ATOM     17  C   UNL     1      -1.979   6.514 130.395  0.00  0.00    +0.000 C 
ATOM     18  C   UNL     1      -1.497   6.310 131.881  0.00  0.00    +0.000 C 
ATOM     19  N   UNL     1      -2.507   6.627 132.839  0.00  0.00    +0.000 N 
ATOM     20  C   UNL     1      -3.639   5.975 132.925  0.00  0.00    +0.000 C 
ATOM     21  O   UNL     1      -4.448   6.339 133.744  0.00  0.00    +0.000 OA
ATOM     22  C   UNL     1      -3.893   4.834 132.081  0.00  0.00    +0.000 C 
ATOM     23  N   UNL     1      -4.000   3.693 132.898  0.00  0.00    +0.000 N 
ATOM     24  C   UNL     1      -4.516   3.614 134.163  0.00  0.00    +0.000 C 
ATOM     25  O   UNL     1      -3.834   2.849 134.858  0.00  0.00    +0.000 OA
ATOM     26  H   UNL     1      -7.106   2.361 134.014  0.00  0.00    +0.000 HD
ATOM     27  H   UNL     1      -8.173   5.254 131.129  0.00  0.00    +0.000 HD
ATOM     28  H   UNL     1      -8.197   2.204 127.515  0.00  0.00    +0.000 HD
ATOM     29  H   UNL     1      -2.467   7.361 133.534  0.00  0.00    +0.000 HD
ATOM     30  H   UNL     1      -3.354   2.991 132.564  0.00  0.00    +0.000 HD
ENDROOT
BRANCH   1  31
ATOM     31  C   UNL     1      -7.180   5.396 134.762  0.00  0.00    +0.000 C 
ATOM     32  C   UNL     1      -8.555   5.065 134.359  0.00  0.00    +0.000 C 
BRANCH  31  34
ATOM     33  C   UNL     1      -6.019   6.495 136.608  0.00  0.00    +0.000 C 
ATOM     34  C   UNL     1      -7.171   5.561 136.264  0.00  0.00    +0.000 C 
ENDBRANCH  31  34
ENDBRANCH   1  31
BRANCH   5  35
ATOM     35  C   UNL     1      -9.569   2.623 130.790  0.00  0.00    +0.000 C 
ATOM     36  C   UNL     1     -10.386   3.756 130.251  0.00  0.00    +0.000 C 
BRANCH  35  37
ATOM     37  C   UNL     1     -10.337   1.588 131.651  0.00  0.00    +0.000 C 
ATOM     38  C   UNL     1      -9.459   0.339 132.066  0.00  0.00    +0.000 C 
ENDBRANCH  35  37
ENDBRANCH   5  35
BRANCH   9  39
ATOM     39  C   UNL     1      -7.181   1.183 129.916  0.00  0.00    +0.000 C 
BRANCH  39  40
ATOM     40  C   UNL     1      -7.193  -0.493 129.293  0.00  0.00    +0.000 A 
ATOM     41  C   UNL     1      -6.461  -0.803 128.119  0.00  0.00    +0.000 A 
ATOM     42  N   UNL     1      -5.859  -2.117 128.166  0.00  0.00    +0.000 N 
ATOM     43  C   UNL     1      -6.240  -2.924 129.357  0.00  0.00    +0.000 A 
ATOM     44  C   UNL     1      -5.508  -4.205 130.193  0.00  0.00    +0.000 A 
ATOM     45  C   UNL     1      -5.724  -4.397 131.758  0.00  0.00    +0.000 A 
ATOM     46  C   UNL     1      -6.411  -3.464 132.595  0.00  0.00    +0.000 A 
ATOM     47  C   UNL     1      -7.053  -2.304 131.864  0.00  0.00    +0.000 A 
ATOM     48  C   UNL     1      -7.159  -1.966 130.186  0.00  0.00    +0.000 A 
ATOM     49  H   UNL     1      -4.969  -2.319 127.677  0.00  0.00    +0.000 HD
ENDBRANCH  39  40
ENDBRANCH   9  39
BRANCH  18  50
ATOM     50  C   UNL     1      -0.333   7.229 132.154  0.00  0.00    +0.000 C 
BRANCH  50  51
ATOM     51  C   UNL     1      -0.769   8.298 133.131  0.00  0.00    +0.000 C 
BRANCH  51  52
ATOM     52  C   UNL     1       0.291   8.525 134.172  0.00  0.00    +0.000 C 
BRANCH  52  53
ATOM     53  C   UNL     1       0.460   7.268 135.006  0.00  0.00    +0.000 C 
BRANCH  53  54
ATOM     54  N   UNL     1      -0.821   6.910 135.585  0.00  0.00    +0.000 NA
ATOM     55  H   UNL     1      -1.573   7.184 134.953  0.00  0.00    +0.000 HD
ATOM     56  H   UNL     1      -0.959   7.432 136.447  0.00  0.00    +0.000 HD
ENDBRANCH  53  54
ENDBRANCH  52  53
ENDBRANCH  51  52
ENDBRANCH  50  51
ENDBRANCH  18  50
BRANCH  22  57
ATOM     57  C   UNL     1      -4.872   5.304 131.028  0.00  0.00    +0.000 C 
BRANCH  57  58
ATOM     58  C   UNL     1      -5.356   6.644 130.960  0.00  0.00    +0.000 C 
ATOM     59  N   UNL     1      -6.433   6.432 131.717  0.00  0.00    +0.000 N 
ATOM     60  O   UNL     1      -5.162   7.647 130.412  0.00  0.00    +0.000 OA
ATOM     61  H   UNL     1      -6.674   5.422 131.930  0.00  0.00    +0.000 HD
ATOM     62  H   UNL     1      -7.211   6.997 131.913  0.00  0.00    +0.000 HD
ENDBRANCH  57  58
ENDBRANCH  22  57
TORSDOF 13
ENDMDL
MODEL 9
REMARK VINA RESULT:      -8.1      3.890      8.063
REMARK  Name = CHEMBL2112378
REMARK  17 active torsions:
REMARK  status: ('A' for Active; 'I' for Inactive)
REMARK    1  A    between atoms: C_1  and  C_2
REMARK    2  A    between atoms: C_2  and  C_3
REMARK    3  A    between atoms: C_3  and  C_4
REMARK    4  A    between atoms: C_3  and  C_5
REMARK    5  A    between atoms: C_9  and  C_10
REMARK    6  A    between atoms: C_10  and  C_11
REMARK    7  A    between atoms: C_10  and  C_12
REMARK    8  A    between atoms: C_12  and  C_13
REMARK    9  A    between atoms: C_17  and  C_18
REMARK   10  A    between atoms: C_18  and  C_19
REMARK   11  A    between atoms: C_36  and  C_37
REMARK   12  A    between atoms: C_37  and  C_38
REMARK   13  A    between atoms: C_38  and  C_39
REMARK   14  A    between atoms: C_39  and  C_40
REMARK   15  A    between atoms: C_40  and  N_41
REMARK   16  A    between atoms: C_45  and  C_46
REMARK   17  A    between atoms: C_46  and  C_47
REMARK                            x       y       z     vdW  Elec       q    Type
REMARK                         _______ _______ _______ _____ _____    ______ ____
ROOT
ATOM      1  C   UNL     1      -4.052   5.528 131.590  0.00  0.00    +0.000 C 
ATOM      2  N   UNL     1      -3.732   4.014 131.623  0.00  0.00    +0.000 N 
ATOM      3  C   UNL     1      -4.438   2.689 131.643  0.00  0.00    +0.000 C 
ATOM      4  O   UNL     1      -5.479   2.554 130.968  0.00  0.00    +0.000 OA
ATOM      5  C   UNL     1      -4.246   2.081 133.068  0.00  0.00    +0.000 C 
ATOM      6  N   UNL     1      -5.517   2.107 133.594  0.00  0.00    +0.000 N 
ATOM      7  C   UNL     1      -6.526   1.384 133.064  0.00  0.00    +0.000 C 
ATOM      8  O   UNL     1      -7.609   1.514 133.649  0.00  0.00    +0.000 OA
ATOM      9  C   UNL     1      -6.297   0.456 131.670  0.00  0.00    +0.000 C 
ATOM     10  N   UNL     1      -6.990  -0.711 132.210  0.00  0.00    +0.000 N 
ATOM     11  C   UNL     1      -8.331  -0.826 132.558  0.00  0.00    +0.000 C 
ATOM     12  O   UNL     1      -8.678  -1.866 133.131  0.00  0.00    +0.000 OA
ATOM     13  C   UNL     1      -9.419   0.248 132.264  0.00  0.00    +0.000 C 
ATOM     14  C   UNL     1      -9.063   1.418 131.391  0.00  0.00    +0.000 C 
ATOM     15  C   UNL     1     -10.048   2.571 131.393  0.00  0.00    +0.000 C 
ATOM     16  S   UNL     1      -9.650   3.683 130.042  0.00  0.00    +0.000 S 
ATOM     17  C   UNL     1     -10.204   5.365 130.390  0.00  0.00    +0.000 C 
ATOM     18  C   UNL     1      -9.397   6.552 129.741  0.00  0.00    +0.000 C 
ATOM     19  N   UNL     1      -8.391   7.077 130.608  0.00  0.00    +0.000 N 
ATOM     20  C   UNL     1      -7.370   6.371 131.026  0.00  0.00    +0.000 C 
ATOM     21  O   UNL     1      -6.590   6.890 131.786  0.00  0.00    +0.000 OA
ATOM     22  C   UNL     1      -7.174   5.021 130.562  0.00  0.00    +0.000 C 
ATOM     23  N   UNL     1      -5.982   4.976 129.815  0.00  0.00    +0.000 N 
ATOM     24  C   UNL     1      -4.838   5.699 130.020  0.00  0.00    +0.000 C 
ATOM     25  O   UNL     1      -4.355   6.057 128.938  0.00  0.00    +0.000 OA
ATOM     26  H   UNL     1      -2.853   3.954 131.169  0.00  0.00    +0.000 HD
ATOM     27  H   UNL     1      -5.671   2.959 134.153  0.00  0.00    +0.000 HD
ATOM     28  H   UNL     1      -6.385  -1.436 132.559  0.00  0.00    +0.000 HD
ATOM     29  H   UNL     1      -8.351   8.015 130.984  0.00  0.00    +0.000 HD
ATOM     30  H   UNL     1      -6.180   4.580 128.907  0.00  0.00    +0.000 HD
ENDROOT
BRANCH   1  31
ATOM     31  C   UNL     1      -3.935   6.142 133.122  0.00  0.00    +0.000 C 
ATOM     32  C   UNL     1      -3.062   5.269 133.921  0.00  0.00    +0.000 C 
BRANCH  31  34
ATOM     33  C   UNL     1      -2.148   7.380 132.009  0.00  0.00    +0.000 C 
ATOM     34  C   UNL     1      -3.269   7.496 133.033  0.00  0.00    +0.000 C 
ENDBRANCH  31  34
ENDBRANCH   1  31
BRANCH   5  35
ATOM     35  C   UNL     1      -3.733   0.760 133.525  0.00  0.00    +0.000 C 
ATOM     36  C   UNL     1      -4.107   0.734 134.974  0.00  0.00    +0.000 C 
BRANCH  35  37
ATOM     37  C   UNL     1      -2.237   0.508 133.210  0.00  0.00    +0.000 C 
ATOM     38  C   UNL     1      -1.722  -0.909 133.691  0.00  0.00    +0.000 C 
ENDBRANCH  35  37
ENDBRANCH   5  35
BRANCH   9  39
ATOM     39  C   UNL     1      -4.844   0.193 130.882  0.00  0.00    +0.000 C 
BRANCH  39  40
ATOM     40  C   UNL     1      -4.537  -0.696 129.361  0.00  0.00    +0.000 A 
ATOM     41  C   UNL     1      -4.129  -2.052 129.419  0.00  0.00    +0.000 A 
ATOM     42  N   UNL     1      -4.685  -2.850 128.350  0.00  0.00    +0.000 N 
ATOM     43  C   UNL     1      -5.447  -2.071 127.337  0.00  0.00    +0.000 A 
ATOM     44  C   UNL     1      -6.689  -2.456 126.247  0.00  0.00    +0.000 A 
ATOM     45  C   UNL     1      -7.777  -1.375 125.824  0.00  0.00    +0.000 A 
ATOM     46  C   UNL     1      -7.889  -0.076 126.407  0.00  0.00    +0.000 A 
ATOM     47  C   UNL     1      -6.797   0.275 127.397  0.00  0.00    +0.000 A 
ATOM     48  C   UNL     1      -5.404  -0.602 127.875  0.00  0.00    +0.000 A 
ATOM     49  H   UNL     1      -4.891  -3.856 128.480  0.00  0.00    +0.000 HD
ENDBRANCH  39  40
ENDBRANCH   9  39
BRANCH  18  50
ATOM     50  C   UNL     1     -10.344   7.685 129.436  0.00  0.00    +0.000 C 
BRANCH  50  51
ATOM     51  C   UNL     1     -11.757   7.241 129.742  0.00  0.00    +0.000 C 
BRANCH  51  52
ATOM     52  C   UNL     1     -12.599   7.266 128.498  0.00  0.00    +0.000 C 
BRANCH  52  53
ATOM     53  C   UNL     1     -11.754   7.726 127.324  0.00  0.00    +0.000 C 
BRANCH  53  54
ATOM     54  N   UNL     1     -11.898   6.775 126.238  0.00  0.00    +0.000 NA
ATOM     55  H   UNL     1     -10.995   6.625 125.790  0.00  0.00    +0.000 HD
ATOM     56  H   UNL     1     -12.516   7.162 125.529  0.00  0.00    +0.000 HD
ENDBRANCH  53  54
ENDBRANCH  52  53
ENDBRANCH  51  52
ENDBRANCH  50  51
ENDBRANCH  18  50
BRANCH  22  57
ATOM     57  C   UNL     1      -7.569   4.122 131.713  0.00  0.00    +0.000 C 
BRANCH  57  58
ATOM     58  C   UNL     1      -8.048   4.622 132.960  0.00  0.00    +0.000 C 
ATOM     59  N   UNL     1      -6.858   4.634 133.561  0.00  0.00    +0.000 N 
ATOM     60  O   UNL     1      -9.036   4.852 133.521  0.00  0.00    +0.000 OA
ATOM     61  H   UNL     1      -6.068   4.136 133.061  0.00  0.00    +0.000 HD
ATOM     62  H   UNL     1      -6.604   4.782 134.497  0.00  0.00    +0.000 HD
ENDBRANCH  57  58
ENDBRANCH  22  57
TORSDOF 13
ENDMDL
