MODEL 1
REMARK VINA RESULT:      -9.9      0.000      0.000
REMARK  Name = CHEMBL412210
REMARK  40 active torsions:
REMARK  status: ('A' for Active; 'I' for Inactive)
REMARK    1  A    between atoms: C_1  and  N_2
REMARK    2  A    between atoms: N_2  and  C_14
REMARK    3  A    between atoms: C_3  and  C_5
REMARK    4  A    between atoms: C_5  and  C_6
REMARK    5  A    between atoms: C_6  and  C_7
REMARK    6  A    between atoms: C_10  and  O_11
REMARK    7  A    between atoms: C_14  and  C_15
REMARK    8  A    between atoms: C_14  and  C_23
REMARK    9  A    between atoms: C_15  and  C_16
REMARK   10  A    between atoms: C_19  and  O_20
REMARK   11  A    between atoms: N_25  and  C_26
REMARK   12  A    between atoms: C_26  and  C_27
REMARK   13  A    between atoms: C_26  and  C_34
REMARK   14  A    between atoms: C_27  and  C_28
REMARK   15  A    between atoms: N_36  and  C_37
REMARK   16  A    between atoms: C_37  and  C_38
REMARK   17  A    between atoms: C_37  and  C_43
REMARK   18  A    between atoms: C_38  and  C_39
REMARK   19  A    between atoms: C_39  and  C_40
REMARK   20  A    between atoms: N_45  and  C_46
REMARK   21  A    between atoms: C_46  and  C_47
REMARK   22  A    between atoms: C_46  and  C_51
REMARK   23  A    between atoms: C_47  and  C_48
REMARK   24  A    between atoms: N_53  and  C_54
REMARK   25  A    between atoms: C_54  and  C_55
REMARK   26  A    between atoms: C_54  and  C_62
REMARK   27  A    between atoms: C_55  and  C_56
REMARK   28  A    between atoms: C_56  and  C_57
REMARK   29  A    between atoms: C_57  and  N_58
REMARK   30  A    between atoms: C_68  and  C_69
REMARK   31  A    between atoms: N_71  and  C_99
REMARK   32  A    between atoms: C_72  and  C_74
REMARK   33  A    between atoms: C_87  and  O_88
REMARK   34  A    between atoms: C_94  and  O_95
REMARK   35  A    between atoms: C_99  and  C_100
REMARK   36  A    between atoms: C_99  and  C_105
REMARK   37  A    between atoms: C_100  and  C_101
REMARK   38  A    between atoms: C_101  and  C_102
REMARK   39  A    between atoms: C_102  and  C_103
REMARK   40  A    between atoms: C_103  and  N_104
REMARK                            x       y       z     vdW  Elec       q    Type
REMARK                         _______ _______ _______ _____ _____    ______ ____
ROOT
ATOM      1  C   UNL     1      -3.118   7.106 131.865  0.00  0.00    +0.000 C 
ENDROOT
BRANCH   1   2
ATOM      2  C   UNL     1      -2.356   8.448 132.313  0.00  0.00    +0.000 C 
ATOM      3  O   UNL     1      -2.881   9.543 132.080  0.00  0.00    +0.000 OA
ATOM      4  N   UNL     1      -1.202   8.394 133.088  0.00  0.00    +0.000 N 
ATOM      5  C   UNL     1      -0.013   7.556 132.869  0.00  0.00    +0.000 C 
ATOM      6  C   UNL     1       0.267   7.120 134.233  0.00  0.00    +0.000 C 
ATOM      7  C   UNL     1       0.279   8.434 134.925  0.00  0.00    +0.000 C 
ATOM      8  C   UNL     1      -0.974   9.197 134.340  0.00  0.00    +0.000 C 
BRANCH   8   9
ATOM      9  C   UNL     1      -0.434  10.621 134.245  0.00  0.00    +0.000 C 
ATOM     10  O   UNL     1       0.294  10.823 133.263  0.00  0.00    +0.000 OA
ATOM     11  N   UNL     1      -0.584  11.581 135.343  0.00  0.00    +0.000 N 
ATOM     12  C   UNL     1      -1.070  11.388 136.688  0.00  0.00    +0.000 C 
ATOM     13  O   UNL     1      -0.664  11.906 137.725  0.00  0.00    +0.000 OA
BRANCH  12  14
ATOM     14  C   UNL     1      -1.686  10.204 137.196  0.00  0.00    +0.000 A 
ATOM     15  C   UNL     1      -1.083   9.035 137.679  0.00  0.00    +0.000 A 
ATOM     16  C   UNL     1      -1.864   7.882 137.846  0.00  0.00    +0.000 A 
ATOM     17  C   UNL     1      -3.222   8.075 137.744  0.00  0.00    +0.000 A 
ATOM     18  C   UNL     1      -3.699   9.243 137.159  0.00  0.00    +0.000 A 
ATOM     19  C   UNL     1      -2.834  10.033 136.514  0.00  0.00    +0.000 A 
ATOM     20  C   UNL     1      -5.142   9.126 137.073  0.00  0.00    +0.000 C 
ATOM     21  O   UNL     1      -6.148   9.352 137.737  0.00  0.00    +0.000 OA
ATOM     22  O   UNL     1      -4.716   7.900 136.930  0.00  0.00    +0.000 OA
ATOM     23  C   UNL     1      -4.431   7.410 138.295  0.00  0.00    +0.000 C 
ATOM     24  C   UNL     1      -5.874   6.731 138.026  0.00  0.00    +0.000 A 
ATOM     25  C   UNL     1      -6.592   6.726 136.725  0.00  0.00    +0.000 A 
ATOM     26  C   UNL     1      -7.905   7.217 136.628  0.00  0.00    +0.000 A 
ATOM     27  C   UNL     1      -8.616   7.419 137.798  0.00  0.00    +0.000 A 
ATOM     28  C   UNL     1      -8.031   7.171 139.044  0.00  0.00    +0.000 A 
ATOM     29  C   UNL     1      -6.678   6.815 139.161  0.00  0.00    +0.000 A 
ATOM     30  O   UNL     1      -6.139   6.686 140.420  0.00  0.00    +0.000 OA
ATOM     31  C   UNL     1      -5.081   7.499 140.732  0.00  0.00    +0.000 A 
ATOM     32  C   UNL     1      -4.561   7.435 142.033  0.00  0.00    +0.000 A 
ATOM     33  C   UNL     1      -3.552   8.290 142.470  0.00  0.00    +0.000 A 
ATOM     34  C   UNL     1      -3.136   9.315 141.652  0.00  0.00    +0.000 A 
ATOM     35  C   UNL     1      -3.602   9.331 140.315  0.00  0.00    +0.000 A 
ATOM     36  C   UNL     1      -4.485   8.298 139.783  0.00  0.00    +0.000 A 
BRANCH  33  37
ATOM     37  O   UNL     1      -2.955   8.150 143.689  0.00  0.00    +0.000 OA
ATOM     38  H   UNL     1      -2.047   7.825 143.570  0.00  0.00    +0.000 HD
ENDBRANCH  33  37
BRANCH  27  39
ATOM     39  O   UNL     1      -9.890   7.913 137.777  0.00  0.00    +0.000 OA
ATOM     40  H   UNL     1     -10.022   8.483 138.552  0.00  0.00    +0.000 HD
ENDBRANCH  27  39
ENDBRANCH  12  14
BRANCH  11  41
ATOM     41  C   UNL     1       0.047  12.939 135.001  0.00  0.00    +0.000 C 
BRANCH  41  42
ATOM     42  C   UNL     1       1.570  13.365 135.237  0.00  0.00    +0.000 C 
ATOM     43  N   UNL     1       2.038  14.528 134.745  0.00  0.00    +0.000 N 
ATOM     44  O   UNL     1       2.377  12.643 135.824  0.00  0.00    +0.000 OA
ATOM     45  H   UNL     1       1.397  15.230 134.421  0.00  0.00    +0.000 HD
ATOM     46  H   UNL     1       2.971  14.894 134.816  0.00  0.00    +0.000 HD
ENDBRANCH  41  42
BRANCH  41  47
ATOM     47  C   UNL     1      -0.779  14.095 135.663  0.00  0.00    +0.000 C 
BRANCH  47  48
ATOM     48  C   UNL     1      -1.910  14.654 134.809  0.00  0.00    +0.000 C 
BRANCH  48  49
ATOM     49  C   UNL     1      -2.420  13.753 133.715  0.00  0.00    +0.000 C 
BRANCH  49  50
ATOM     50  C   UNL     1      -2.334  14.505 132.384  0.00  0.00    +0.000 C 
BRANCH  50  51
ATOM     51  N   UNL     1      -3.467  15.410 132.286  0.00  0.00    +0.000 NA
ATOM     52  H   UNL     1      -3.697  15.742 133.222  0.00  0.00    +0.000 HD
ATOM     53  H   UNL     1      -4.279  14.896 131.953  0.00  0.00    +0.000 HD
ENDBRANCH  50  51
ENDBRANCH  49  50
ENDBRANCH  48  49
ENDBRANCH  47  48
ENDBRANCH  41  47
ENDBRANCH  11  41
ENDBRANCH   8   9
ENDBRANCH   1   2
BRANCH   1  56
ATOM     54  C   UNL     1      -5.083   5.692 132.685  0.00  0.00    +0.000 C 
ATOM     55  O   UNL     1      -4.551   4.615 132.409  0.00  0.00    +0.000 OA
ATOM     56  N   UNL     1      -4.437   6.927 132.556  0.00  0.00    +0.000 N 
ATOM     57  H   UNL     1      -4.766   7.747 133.054  0.00  0.00    +0.000 HD
BRANCH  54  58
ATOM     58  C   UNL     1      -6.545   5.659 133.218  0.00  0.00    +0.000 C 
BRANCH  58  61
ATOM     59  C   UNL     1      -7.756   6.383 131.017  0.00  0.00    +0.000 C 
ATOM     60  O   UNL     1      -7.034   7.354 130.786  0.00  0.00    +0.000 OA
ATOM     61  N   UNL     1      -7.528   5.497 132.060  0.00  0.00    +0.000 N 
ATOM     62  H   UNL     1      -7.994   4.589 132.065  0.00  0.00    +0.000 HD
BRANCH  59  63
ATOM     63  C   UNL     1      -8.823   6.147 129.945  0.00  0.00    +0.000 C 
BRANCH  63  66
ATOM     64  C   UNL     1      -8.158   3.903 128.897  0.00  0.00    +0.000 C 
ATOM     65  O   UNL     1      -7.189   4.396 128.316  0.00  0.00    +0.000 OA
ATOM     66  N   UNL     1      -8.945   4.654 129.752  0.00  0.00    +0.000 N 
ATOM     67  H   UNL     1      -9.662   4.213 130.330  0.00  0.00    +0.000 HD
BRANCH  64  68
ATOM     68  C   UNL     1      -8.504   2.411 128.648  0.00  0.00    +0.000 C 
BRANCH  68  71
ATOM     69  C   UNL     1      -8.279   0.985 126.504  0.00  0.00    +0.000 C 
ATOM     70  O   UNL     1      -9.432   0.550 126.545  0.00  0.00    +0.000 OA
ATOM     71  N   UNL     1      -7.857   2.013 127.329  0.00  0.00    +0.000 N 
ATOM     72  H   UNL     1      -7.346   2.778 126.890  0.00  0.00    +0.000 HD
BRANCH  69  73
ATOM     73  C   UNL     1      -7.483   0.526 125.285  0.00  0.00    +0.000 C 
BRANCH  73  75
ATOM     74  C   UNL     1      -9.056   1.607 123.561  0.00  0.00    +0.000 C 
ATOM     75  N   UNL     1      -7.756   1.556 124.264  0.00  0.00    +0.000 N 
ATOM     76  C   UNL     1      -6.770   2.496 124.150  0.00  0.00    +0.000 C 
ATOM     77  O   UNL     1      -5.800   2.529 124.907  0.00  0.00    +0.000 OA
BRANCH  76  78
ATOM     78  C   UNL     1      -6.914   3.519 123.093  0.00  0.00    +0.000 C 
BRANCH  78  79
ATOM     79  C   UNL     1      -6.421   2.848 121.827  0.00  0.00    +0.000 C 
BRANCH  79  80
ATOM     80  C   UNL     1      -6.229   3.839 120.741  0.00  0.00    +0.000 A 
ATOM     81  C   UNL     1      -7.160   3.887 119.700  0.00  0.00    +0.000 A 
ATOM     82  C   UNL     1      -7.032   4.850 118.711  0.00  0.00    +0.000 A 
ATOM     83  C   UNL     1      -5.966   5.743 118.771  0.00  0.00    +0.000 A 
ATOM     84  C   UNL     1      -5.014   5.672 119.782  0.00  0.00    +0.000 A 
ATOM     85  C   UNL     1      -5.145   4.718 120.775  0.00  0.00    +0.000 A 
BRANCH  83  86
ATOM     86  O   UNL     1      -5.810   6.732 117.847  0.00  0.00    +0.000 OA
ATOM     87  H   UNL     1      -6.365   6.522 117.080  0.00  0.00    +0.000 HD
ENDBRANCH  83  86
ENDBRANCH  79  80
ENDBRANCH  78  79
ENDBRANCH  76  78
ENDBRANCH  73  75
BRANCH  73  88
ATOM     88  C   UNL     1      -8.107  -0.898 124.880  0.00  0.00    +0.000 C 
BRANCH  88  89
ATOM     89  C   UNL     1      -7.118  -1.999 124.603  0.00  0.00    +0.000 A 
ATOM     90  C   UNL     1      -7.486  -3.343 124.686  0.00  0.00    +0.000 A 
ATOM     91  C   UNL     1      -6.582  -4.346 124.377  0.00  0.00    +0.000 A 
ATOM     92  C   UNL     1      -5.290  -4.001 124.004  0.00  0.00    +0.000 A 
ATOM     93  C   UNL     1      -4.888  -2.671 123.941  0.00  0.00    +0.000 A 
ATOM     94  C   UNL     1      -5.803  -1.664 124.236  0.00  0.00    +0.000 A 
BRANCH  92  95
ATOM     95  O   UNL     1      -4.392  -4.958 123.635  0.00  0.00    +0.000 OA
ATOM     96  H   UNL     1      -4.896  -5.747 123.377  0.00  0.00    +0.000 HD
ENDBRANCH  92  95
ENDBRANCH  88  89
ENDBRANCH  73  88
ENDBRANCH  69  73
ENDBRANCH  68  71
BRANCH  68  97
ATOM     97  C   UNL     1      -7.915   1.638 129.857  0.00  0.00    +0.000 C 
BRANCH  97  98
ATOM     98  C   UNL     1      -7.266   0.308 129.572  0.00  0.00    +0.000 A 
ATOM     99  C   UNL     1      -5.931   0.177 129.232  0.00  0.00    +0.000 A 
ATOM    100  C   UNL     1      -5.465  -1.026 128.680  0.00  0.00    +0.000 A 
ATOM    101  C   UNL     1      -6.337  -2.086 128.436  0.00  0.00    +0.000 A 
ATOM    102  C   UNL     1      -7.632  -1.984 128.877  0.00  0.00    +0.000 A 
ATOM    103  C   UNL     1      -7.994  -0.866 129.612  0.00  0.00    +0.000 A 
ENDBRANCH  97  98
ENDBRANCH  68  97
ENDBRANCH  64  68
ENDBRANCH  63  66
BRANCH  63 104
ATOM    104  C   UNL     1     -10.078   6.704 130.598  0.00  0.00    +0.000 C 
BRANCH 104 105
ATOM    105  C   UNL     1     -11.155   6.968 129.577  0.00  0.00    +0.000 C 
BRANCH 105 106
ATOM    106  C   UNL     1     -10.715   7.484 128.253  0.00  0.00    +0.000 C 
ATOM    107  N   UNL     1     -10.497   8.819 128.156  0.00  0.00    +0.000 N 
ATOM    108  O   UNL     1     -10.621   6.745 127.278  0.00  0.00    +0.000 OA
ATOM    109  H   UNL     1     -10.600   9.471 128.920  0.00  0.00    +0.000 HD
ATOM    110  H   UNL     1     -10.251   9.181 127.249  0.00  0.00    +0.000 HD
ENDBRANCH 105 106
ENDBRANCH 104 105
ENDBRANCH  63 104
ENDBRANCH  59  63
ENDBRANCH  58  61
BRANCH  58 111
ATOM    111  C   UNL     1      -6.548   4.463 134.158  0.00  0.00    +0.000 C 
BRANCH 111 112
ATOM    112  C   UNL     1      -7.625   3.446 133.930  0.00  0.00    +0.000 C 
ATOM    113  N   UNL     1      -7.238   2.219 133.492  0.00  0.00    +0.000 N 
ATOM    114  O   UNL     1      -8.812   3.701 134.091  0.00  0.00    +0.000 OA
ATOM    115  H   UNL     1      -6.340   1.902 133.867  0.00  0.00    +0.000 HD
ATOM    116  H   UNL     1      -7.876   1.532 133.891  0.00  0.00    +0.000 HD
ENDBRANCH 111 112
ENDBRANCH  58 111
ENDBRANCH  54  58
ENDBRANCH   1  56
BRANCH   1 117
ATOM    117  C   UNL     1      -3.320   7.063 130.359  0.00  0.00    +0.000 C 
BRANCH 117 118
ATOM    118  C   UNL     1      -2.300   6.293 129.569  0.00  0.00    +0.000 C 
BRANCH 118 119
ATOM    119  C   UNL     1      -2.747   6.026 128.162  0.00  0.00    +0.000 C 
BRANCH 119 120
ATOM    120  N   UNL     1      -2.563   4.597 127.953  0.00  0.00    +0.000 NA
ATOM    121  C   UNL     1      -3.452   4.014 127.242  0.00  0.00    +0.000 C 
ATOM    122  N   UNL     1      -4.529   4.588 126.681  0.00  0.00    +0.000 N 
ATOM    123  N   UNL     1      -3.383   2.686 127.058  0.00  0.00    +0.000 N 
ATOM    124  H   UNL     1      -4.647   5.588 126.758  0.00  0.00    +0.000 HD
ATOM    125  H   UNL     1      -5.144   4.100 126.057  0.00  0.00    +0.000 HD
ATOM    126  H   UNL     1      -2.532   2.236 127.372  0.00  0.00    +0.000 HD
ATOM    127  H   UNL     1      -3.939   2.203 126.375  0.00  0.00    +0.000 HD
ENDBRANCH 119 120
ENDBRANCH 118 119
ENDBRANCH 117 118
ENDBRANCH   1 117
TORSDOF 39
ENDMDL
MODEL 2
REMARK VINA RESULT:      -9.7      3.698     12.864
REMARK  Name = CHEMBL412210
REMARK  40 active torsions:
REMARK  status: ('A' for Active; 'I' for Inactive)
REMARK    1  A    between atoms: C_1  and  N_2
REMARK    2  A    between atoms: N_2  and  C_14
REMARK    3  A    between atoms: C_3  and  C_5
REMARK    4  A    between atoms: C_5  and  C_6
REMARK    5  A    between atoms: C_6  and  C_7
REMARK    6  A    between atoms: C_10  and  O_11
REMARK    7  A    between atoms: C_14  and  C_15
REMARK    8  A    between atoms: C_14  and  C_23
REMARK    9  A    between atoms: C_15  and  C_16
REMARK   10  A    between atoms: C_19  and  O_20
REMARK   11  A    between atoms: N_25  and  C_26
REMARK   12  A    between atoms: C_26  and  C_27
REMARK   13  A    between atoms: C_26  and  C_34
REMARK   14  A    between atoms: C_27  and  C_28
REMARK   15  A    between atoms: N_36  and  C_37
REMARK   16  A    between atoms: C_37  and  C_38
REMARK   17  A    between atoms: C_37  and  C_43
REMARK   18  A    between atoms: C_38  and  C_39
REMARK   19  A    between atoms: C_39  and  C_40
REMARK   20  A    between atoms: N_45  and  C_46
REMARK   21  A    between atoms: C_46  and  C_47
REMARK   22  A    between atoms: C_46  and  C_51
REMARK   23  A    between atoms: C_47  and  C_48
REMARK   24  A    between atoms: N_53  and  C_54
REMARK   25  A    between atoms: C_54  and  C_55
REMARK   26  A    between atoms: C_54  and  C_62
REMARK   27  A    between atoms: C_55  and  C_56
REMARK   28  A    between atoms: C_56  and  C_57
REMARK   29  A    between atoms: C_57  and  N_58
REMARK   30  A    between atoms: C_68  and  C_69
REMARK   31  A    between atoms: N_71  and  C_99
REMARK   32  A    between atoms: C_72  and  C_74
REMARK   33  A    between atoms: C_87  and  O_88
REMARK   34  A    between atoms: C_94  and  O_95
REMARK   35  A    between atoms: C_99  and  C_100
REMARK   36  A    between atoms: C_99  and  C_105
REMARK   37  A    between atoms: C_100  and  C_101
REMARK   38  A    between atoms: C_101  and  C_102
REMARK   39  A    between atoms: C_102  and  C_103
REMARK   40  A    between atoms: C_103  and  N_104
REMARK                            x       y       z     vdW  Elec       q    Type
REMARK                         _______ _______ _______ _____ _____    ______ ____
ROOT
ATOM      1  C   UNL     1      -6.016  -2.784 133.218  0.00  0.00    +0.000 C 
ENDROOT
BRANCH   1   2
ATOM      2  C   UNL     1      -6.031  -2.933 131.618  0.00  0.00    +0.000 C 
ATOM      3  O   UNL     1      -6.932  -3.591 131.084  0.00  0.00    +0.000 OA
ATOM      4  N   UNL     1      -5.147  -2.212 130.822  0.00  0.00    +0.000 N 
ATOM      5  C   UNL     1      -3.692  -2.077 130.994  0.00  0.00    +0.000 C 
ATOM      6  C   UNL     1      -3.517  -0.656 130.712  0.00  0.00    +0.000 C 
ATOM      7  C   UNL     1      -4.223  -0.564 129.408  0.00  0.00    +0.000 C 
ATOM      8  C   UNL     1      -5.545  -1.402 129.618  0.00  0.00    +0.000 C 
BRANCH   8   9
ATOM      9  C   UNL     1      -5.686  -2.077 128.257  0.00  0.00    +0.000 C 
ATOM     10  O   UNL     1      -4.755  -2.845 127.973  0.00  0.00    +0.000 OA
ATOM     11  N   UNL     1      -6.712  -1.669 127.292  0.00  0.00    +0.000 N 
ATOM     12  C   UNL     1      -7.621  -0.549 127.319  0.00  0.00    +0.000 C 
ATOM     13  O   UNL     1      -7.996   0.149 126.380  0.00  0.00    +0.000 OA
BRANCH  12  14
ATOM     14  C   UNL     1      -7.830   0.336 128.421  0.00  0.00    +0.000 A 
ATOM     15  C   UNL     1      -7.826   0.051 129.792  0.00  0.00    +0.000 A 
ATOM     16  C   UNL     1      -8.349   0.996 130.688  0.00  0.00    +0.000 A 
ATOM     17  C   UNL     1      -8.602   2.236 130.148  0.00  0.00    +0.000 A 
ATOM     18  C   UNL     1      -8.671   2.373 128.767  0.00  0.00    +0.000 A 
ATOM     19  C   UNL     1      -8.715   1.266 128.016  0.00  0.00    +0.000 A 
ATOM     20  C   UNL     1      -9.067   3.740 128.487  0.00  0.00    +0.000 C 
ATOM     21  O   UNL     1      -8.573   4.849 128.315  0.00  0.00    +0.000 OA
ATOM     22  O   UNL     1      -9.669   3.460 129.611  0.00  0.00    +0.000 OA
ATOM     23  C   UNL     1      -8.648   3.628 130.667  0.00  0.00    +0.000 C 
ATOM     24  C   UNL     1      -9.459   5.020 130.808  0.00  0.00    +0.000 A 
ATOM     25  C   UNL     1     -10.728   5.349 130.110  0.00  0.00    +0.000 A 
ATOM     26  C   UNL     1     -10.834   6.507 129.321  0.00  0.00    +0.000 A 
ATOM     27  C   UNL     1      -9.855   7.477 129.447  0.00  0.00    +0.000 A 
ATOM     28  C   UNL     1      -8.772   7.293 130.314  0.00  0.00    +0.000 A 
ATOM     29  C   UNL     1      -8.580   6.085 131.001  0.00  0.00    +0.000 A 
ATOM     30  O   UNL     1      -7.440   5.932 131.757  0.00  0.00    +0.000 OA
ATOM     31  C   UNL     1      -6.604   4.899 131.423  0.00  0.00    +0.000 A 
ATOM     32  C   UNL     1      -5.401   4.768 132.134  0.00  0.00    +0.000 A 
ATOM     33  C   UNL     1      -4.446   3.811 131.802  0.00  0.00    +0.000 A 
ATOM     34  C   UNL     1      -4.618   3.054 130.666  0.00  0.00    +0.000 A 
ATOM     35  C   UNL     1      -5.862   3.130 129.996  0.00  0.00    +0.000 A 
ATOM     36  C   UNL     1      -6.958   3.965 130.477  0.00  0.00    +0.000 A 
BRANCH  33  37
ATOM     37  O   UNL     1      -3.336   3.595 132.564  0.00  0.00    +0.000 OA
ATOM     38  H   UNL     1      -3.525   3.833 133.488  0.00  0.00    +0.000 HD
ENDBRANCH  33  37
BRANCH  27  39
ATOM     39  O   UNL     1      -9.886   8.617 128.696  0.00  0.00    +0.000 OA
ATOM     40  H   UNL     1     -10.811   8.871 128.541  0.00  0.00    +0.000 HD
ENDBRANCH  27  39
ENDBRANCH  12  14
BRANCH  11  41
ATOM     41  C   UNL     1      -6.640  -2.499 126.001  0.00  0.00    +0.000 C 
BRANCH  41  42
ATOM     42  C   UNL     1      -6.275  -1.956 124.543  0.00  0.00    +0.000 C 
ATOM     43  N   UNL     1      -6.322  -0.638 124.274  0.00  0.00    +0.000 N 
ATOM     44  O   UNL     1      -5.988  -2.706 123.609  0.00  0.00    +0.000 OA
ATOM     45  H   UNL     1      -6.371   0.027 125.025  0.00  0.00    +0.000 HD
ATOM     46  H   UNL     1      -6.129  -0.182 123.399  0.00  0.00    +0.000 HD
ENDBRANCH  41  42
BRANCH  41  47
ATOM     47  C   UNL     1      -7.983  -3.279 125.793  0.00  0.00    +0.000 C 
BRANCH  47  48
ATOM     48  C   UNL     1      -9.080  -2.501 125.076  0.00  0.00    +0.000 C 
BRANCH  48  49
ATOM     49  C   UNL     1      -9.417  -2.963 123.683  0.00  0.00    +0.000 C 
BRANCH  49  50
ATOM     50  C   UNL     1      -9.401  -1.751 122.748  0.00  0.00    +0.000 C 
BRANCH  50  51
ATOM     51  N   UNL     1      -9.417  -0.541 123.554  0.00  0.00    +0.000 NA
ATOM     52  H   UNL     1      -8.455  -0.236 123.696  0.00  0.00    +0.000 HD
ATOM     53  H   UNL     1      -9.792  -0.757 124.474  0.00  0.00    +0.000 HD
ENDBRANCH  50  51
ENDBRANCH  49  50
ENDBRANCH  48  49
ENDBRANCH  47  48
ENDBRANCH  41  47
ENDBRANCH  11  41
ENDBRANCH   8   9
ENDBRANCH   1   2
BRANCH   1  56
ATOM     54  C   UNL     1      -4.310  -1.948 134.927  0.00  0.00    +0.000 C 
ATOM     55  O   UNL     1      -4.377  -2.956 135.635  0.00  0.00    +0.000 OA
ATOM     56  N   UNL     1      -4.976  -1.819 133.704  0.00  0.00    +0.000 N 
ATOM     57  H   UNL     1      -4.682  -1.135 133.014  0.00  0.00    +0.000 HD
BRANCH  54  58
ATOM     58  C   UNL     1      -3.420  -0.774 135.428  0.00  0.00    +0.000 C 
BRANCH  58  61
ATOM     59  C   UNL     1      -4.152   1.718 135.722  0.00  0.00    +0.000 C 
ATOM     60  O   UNL     1      -3.400   2.175 134.860  0.00  0.00    +0.000 OA
ATOM     61  N   UNL     1      -4.291   0.359 135.967  0.00  0.00    +0.000 N 
ATOM     62  H   UNL     1      -5.089   0.020 136.506  0.00  0.00    +0.000 HD
BRANCH  59  63
ATOM     63  C   UNL     1      -5.045   2.775 136.376  0.00  0.00    +0.000 C 
BRANCH  63  66
ATOM     64  C   UNL     1      -3.490   4.109 137.918  0.00  0.00    +0.000 C 
ATOM     65  O   UNL     1      -3.451   3.206 138.757  0.00  0.00    +0.000 OA
ATOM     66  N   UNL     1      -4.167   3.955 136.721  0.00  0.00    +0.000 N 
ATOM     67  H   UNL     1      -4.087   4.650 135.978  0.00  0.00    +0.000 HD
BRANCH  64  68
ATOM     68  C   UNL     1      -2.772   5.451 138.225  0.00  0.00    +0.000 C 
BRANCH  68  71
ATOM     69  C   UNL     1      -1.981   7.408 136.736  0.00  0.00    +0.000 C 
ATOM     70  O   UNL     1      -1.175   7.849 137.560  0.00  0.00    +0.000 OA
ATOM     71  N   UNL     1      -2.595   6.180 136.902  0.00  0.00    +0.000 N 
ATOM     72  H   UNL     1      -2.598   5.553 136.098  0.00  0.00    +0.000 HD
BRANCH  69  73
ATOM     73  C   UNL     1      -1.991   8.165 135.410  0.00  0.00    +0.000 C 
BRANCH  73  75
ATOM     74  C   UNL     1       0.295   7.248 134.666  0.00  0.00    +0.000 C 
ATOM     75  N   UNL     1      -1.173   7.329 134.508  0.00  0.00    +0.000 N 
ATOM     76  C   UNL     1      -1.908   6.566 133.644  0.00  0.00    +0.000 C 
ATOM     77  O   UNL     1      -3.137   6.512 133.695  0.00  0.00    +0.000 OA
BRANCH  76  78
ATOM     78  C   UNL     1      -1.177   5.761 132.644  0.00  0.00    +0.000 C 
BRANCH  78  79
ATOM     79  C   UNL     1      -0.979   6.689 131.462  0.00  0.00    +0.000 C 
BRANCH  79  80
ATOM     80  C   UNL     1      -2.019   6.463 130.430  0.00  0.00    +0.000 A 
ATOM     81  C   UNL     1      -1.843   5.424 129.512  0.00  0.00    +0.000 A 
ATOM     82  C   UNL     1      -2.835   5.156 128.582  0.00  0.00    +0.000 A 
ATOM     83  C   UNL     1      -3.985   5.942 128.575  0.00  0.00    +0.000 A 
ATOM     84  C   UNL     1      -4.146   7.003 129.459  0.00  0.00    +0.000 A 
ATOM     85  C   UNL     1      -3.161   7.265 130.394  0.00  0.00    +0.000 A 
BRANCH  83  86
ATOM     86  O   UNL     1      -5.007   5.703 127.707  0.00  0.00    +0.000 OA
ATOM     87  H   UNL     1      -5.604   5.054 128.112  0.00  0.00    +0.000 HD
ENDBRANCH  83  86
ENDBRANCH  79  80
ENDBRANCH  78  79
ENDBRANCH  76  78
ENDBRANCH  73  75
BRANCH  73  88
ATOM     88  C   UNL     1      -1.288   9.576 135.719  0.00  0.00    +0.000 C 
BRANCH  88  89
ATOM     89  C   UNL     1      -1.329  10.592 134.608  0.00  0.00    +0.000 A 
ATOM     90  C   UNL     1      -0.219  10.819 133.791  0.00  0.00    +0.000 A 
ATOM     91  C   UNL     1      -0.285  11.718 132.739  0.00  0.00    +0.000 A 
ATOM     92  C   UNL     1      -1.466  12.413 132.516  0.00  0.00    +0.000 A 
ATOM     93  C   UNL     1      -2.577  12.228 133.331  0.00  0.00    +0.000 A 
ATOM     94  C   UNL     1      -2.514  11.312 134.379  0.00  0.00    +0.000 A 
BRANCH  92  95
ATOM     95  O   UNL     1      -1.586  13.259 131.454  0.00  0.00    +0.000 OA
ATOM     96  H   UNL     1      -1.336  14.147 131.758  0.00  0.00    +0.000 HD
ENDBRANCH  92  95
ENDBRANCH  88  89
ENDBRANCH  73  88
ENDBRANCH  69  73
ENDBRANCH  68  71
BRANCH  68  97
ATOM     97  C   UNL     1      -3.707   6.210 139.203  0.00  0.00    +0.000 C 
BRANCH  97  98
ATOM     98  C   UNL     1      -5.146   6.377 138.788  0.00  0.00    +0.000 A 
ATOM     99  C   UNL     1      -5.557   7.306 137.847  0.00  0.00    +0.000 A 
ATOM    100  C   UNL     1      -6.918   7.629 137.732  0.00  0.00    +0.000 A 
ATOM    101  C   UNL     1      -7.863   7.053 138.578  0.00  0.00    +0.000 A 
ATOM    102  C   UNL     1      -7.460   6.056 139.431  0.00  0.00    +0.000 A 
ATOM    103  C   UNL     1      -6.148   5.615 139.357  0.00  0.00    +0.000 A 
ENDBRANCH  97  98
ENDBRANCH  68  97
ENDBRANCH  64  68
ENDBRANCH  63  66
BRANCH  63 104
ATOM    104  C   UNL     1      -6.007   3.137 135.255  0.00  0.00    +0.000 C 
BRANCH 104 105
ATOM    105  C   UNL     1      -6.667   4.468 135.510  0.00  0.00    +0.000 C 
BRANCH 105 106
ATOM    106  C   UNL     1      -7.968   4.716 134.832  0.00  0.00    +0.000 C 
ATOM    107  N   UNL     1      -8.402   5.999 134.788  0.00  0.00    +0.000 N 
ATOM    108  O   UNL     1      -8.646   3.792 134.394  0.00  0.00    +0.000 OA
ATOM    109  H   UNL     1      -7.897   6.786 135.170  0.00  0.00    +0.000 HD
ATOM    110  H   UNL     1      -9.306   6.167 134.377  0.00  0.00    +0.000 HD
ENDBRANCH 105 106
ENDBRANCH 104 105
ENDBRANCH  63 104
ENDBRANCH  59  63
ENDBRANCH  58  61
BRANCH  58 111
ATOM    111  C   UNL     1      -2.566  -1.418 136.511  0.00  0.00    +0.000 C 
BRANCH 111 112
ATOM    112  C   UNL     1      -2.911  -1.061 137.925  0.00  0.00    +0.000 C 
ATOM    113  N   UNL     1      -3.678  -1.943 138.619  0.00  0.00    +0.000 N 
ATOM    114  O   UNL     1      -2.557  -0.007 138.440  0.00  0.00    +0.000 OA
ATOM    115  H   UNL     1      -3.498  -2.925 138.395  0.00  0.00    +0.000 HD
ATOM    116  H   UNL     1      -3.388  -1.903 139.595  0.00  0.00    +0.000 HD
ENDBRANCH 111 112
ENDBRANCH  58 111
ENDBRANCH  54  58
ENDBRANCH   1  56
BRANCH   1 117
ATOM    117  C   UNL     1      -7.381  -2.372 133.745  0.00  0.00    +0.000 C 
BRANCH 117 118
ATOM    118  C   UNL     1      -8.259  -3.475 134.265  0.00  0.00    +0.000 C 
BRANCH 118 119
ATOM    119  C   UNL     1      -8.032  -3.750 135.722  0.00  0.00    +0.000 C 
BRANCH 119 120
ATOM    120  N   UNL     1      -7.706  -2.464 136.322  0.00  0.00    +0.000 NA
ATOM    121  C   UNL     1      -7.347  -2.491 137.550  0.00  0.00    +0.000 C 
ATOM    122  N   UNL     1      -7.249  -3.581 138.329  0.00  0.00    +0.000 N 
ATOM    123  N   UNL     1      -7.093  -1.339 138.188  0.00  0.00    +0.000 N 
ATOM    124  H   UNL     1      -7.409  -4.491 137.922  0.00  0.00    +0.000 HD
ATOM    125  H   UNL     1      -6.875  -3.554 139.260  0.00  0.00    +0.000 HD
ATOM    126  H   UNL     1      -7.050  -0.509 137.610  0.00  0.00    +0.000 HD
ATOM    127  H   UNL     1      -6.641  -1.303 139.086  0.00  0.00    +0.000 HD
ENDBRANCH 119 120
ENDBRANCH 118 119
ENDBRANCH 117 118
ENDBRANCH   1 117
TORSDOF 39
ENDMDL
MODEL 3
REMARK VINA RESULT:      -9.6      3.669      8.110
REMARK  Name = CHEMBL412210
REMARK  40 active torsions:
REMARK  status: ('A' for Active; 'I' for Inactive)
REMARK    1  A    between atoms: C_1  and  N_2
REMARK    2  A    between atoms: N_2  and  C_14
REMARK    3  A    between atoms: C_3  and  C_5
REMARK    4  A    between atoms: C_5  and  C_6
REMARK    5  A    between atoms: C_6  and  C_7
REMARK    6  A    between atoms: C_10  and  O_11
REMARK    7  A    between atoms: C_14  and  C_15
REMARK    8  A    between atoms: C_14  and  C_23
REMARK    9  A    between atoms: C_15  and  C_16
REMARK   10  A    between atoms: C_19  and  O_20
REMARK   11  A    between atoms: N_25  and  C_26
REMARK   12  A    between atoms: C_26  and  C_27
REMARK   13  A    between atoms: C_26  and  C_34
REMARK   14  A    between atoms: C_27  and  C_28
REMARK   15  A    between atoms: N_36  and  C_37
REMARK   16  A    between atoms: C_37  and  C_38
REMARK   17  A    between atoms: C_37  and  C_43
REMARK   18  A    between atoms: C_38  and  C_39
REMARK   19  A    between atoms: C_39  and  C_40
REMARK   20  A    between atoms: N_45  and  C_46
REMARK   21  A    between atoms: C_46  and  C_47
REMARK   22  A    between atoms: C_46  and  C_51
REMARK   23  A    between atoms: C_47  and  C_48
REMARK   24  A    between atoms: N_53  and  C_54
REMARK   25  A    between atoms: C_54  and  C_55
REMARK   26  A    between atoms: C_54  and  C_62
REMARK   27  A    between atoms: C_55  and  C_56
REMARK   28  A    between atoms: C_56  and  C_57
REMARK   29  A    between atoms: C_57  and  N_58
REMARK   30  A    between atoms: C_68  and  C_69
REMARK   31  A    between atoms: N_71  and  C_99
REMARK   32  A    between atoms: C_72  and  C_74
REMARK   33  A    between atoms: C_87  and  O_88
REMARK   34  A    between atoms: C_94  and  O_95
REMARK   35  A    between atoms: C_99  and  C_100
REMARK   36  A    between atoms: C_99  and  C_105
REMARK   37  A    between atoms: C_100  and  C_101
REMARK   38  A    between atoms: C_101  and  C_102
REMARK   39  A    between atoms: C_102  and  C_103
REMARK   40  A    between atoms: C_103  and  N_104
REMARK                            x       y       z     vdW  Elec       q    Type
REMARK                         _______ _______ _______ _____ _____    ______ ____
ROOT
ATOM      1  C   UNL     1      -5.298   1.921 135.598  0.00  0.00    +0.000 C 
ENDROOT
BRANCH   1   2
ATOM      2  C   UNL     1      -4.407   3.225 135.301  0.00  0.00    +0.000 C 
ATOM      3  O   UNL     1      -3.198   3.090 135.082  0.00  0.00    +0.000 OA
ATOM      4  N   UNL     1      -4.998   4.474 135.133  0.00  0.00    +0.000 N 
ATOM      5  C   UNL     1      -6.002   5.114 135.995  0.00  0.00    +0.000 C 
ATOM      6  C   UNL     1      -6.899   5.679 134.993  0.00  0.00    +0.000 C 
ATOM      7  C   UNL     1      -5.917   6.415 134.156  0.00  0.00    +0.000 C 
ATOM      8  C   UNL     1      -4.713   5.407 133.987  0.00  0.00    +0.000 C 
BRANCH   8   9
ATOM      9  C   UNL     1      -3.521   6.357 134.057  0.00  0.00    +0.000 C 
ATOM     10  O   UNL     1      -3.187   6.670 135.209  0.00  0.00    +0.000 OA
ATOM     11  N   UNL     1      -2.980   7.011 132.860  0.00  0.00    +0.000 N 
ATOM     12  C   UNL     1      -3.488   7.045 131.509  0.00  0.00    +0.000 C 
ATOM     13  O   UNL     1      -3.466   7.980 130.713  0.00  0.00    +0.000 OA
BRANCH  12  14
ATOM     14  C   UNL     1      -4.582   6.278 131.004  0.00  0.00    +0.000 A 
ATOM     15  C   UNL     1      -4.557   5.145 130.182  0.00  0.00    +0.000 A 
ATOM     16  C   UNL     1      -5.742   4.727 129.558  0.00  0.00    +0.000 A 
ATOM     17  C   UNL     1      -6.888   5.340 130.008  0.00  0.00    +0.000 A 
ATOM     18  C   UNL     1      -6.784   6.516 130.742  0.00  0.00    +0.000 A 
ATOM     19  C   UNL     1      -5.599   7.134 130.794  0.00  0.00    +0.000 A 
ATOM     20  C   UNL     1      -8.131   7.000 130.976  0.00  0.00    +0.000 C 
ATOM     21  O   UNL     1      -9.049   6.882 131.780  0.00  0.00    +0.000 OA
ATOM     22  O   UNL     1      -8.203   6.415 129.811  0.00  0.00    +0.000 OA
ATOM     23  C   UNL     1      -8.324   4.969 130.094  0.00  0.00    +0.000 C 
ATOM     24  C   UNL     1      -9.866   5.345 129.781  0.00  0.00    +0.000 A 
ATOM     25  C   UNL     1     -10.342   6.649 129.251  0.00  0.00    +0.000 A 
ATOM     26  C   UNL     1     -11.331   7.381 129.931  0.00  0.00    +0.000 A 
ATOM     27  C   UNL     1     -12.060   6.738 130.915  0.00  0.00    +0.000 A 
ATOM     28  C   UNL     1     -11.796   5.405 131.247  0.00  0.00    +0.000 A 
ATOM     29  C   UNL     1     -10.721   4.706 130.677  0.00  0.00    +0.000 A 
ATOM     30  O   UNL     1     -10.454   3.432 131.123  0.00  0.00    +0.000 OA
ATOM     31  C   UNL     1      -9.216   3.208 131.665  0.00  0.00    +0.000 A 
ATOM     32  C   UNL     1      -8.947   1.935 132.191  0.00  0.00    +0.000 A 
ATOM     33  C   UNL     1      -7.755   1.642 132.849  0.00  0.00    +0.000 A 
ATOM     34  C   UNL     1      -6.863   2.657 133.109  0.00  0.00    +0.000 A 
ATOM     35  C   UNL     1      -7.096   3.919 132.512  0.00  0.00    +0.000 A 
ATOM     36  C   UNL     1      -8.231   4.167 131.628  0.00  0.00    +0.000 A 
BRANCH  33  37
ATOM     37  O   UNL     1      -7.434   0.378 133.249  0.00  0.00    +0.000 OA
ATOM     38  H   UNL     1      -7.813   0.211 134.129  0.00  0.00    +0.000 HD
ENDBRANCH  33  37
BRANCH  27  39
ATOM     39  O   UNL     1     -13.023   7.395 131.627  0.00  0.00    +0.000 OA
ATOM     40  H   UNL     1     -13.522   7.975 131.028  0.00  0.00    +0.000 HD
ENDBRANCH  27  39
ENDBRANCH  12  14
BRANCH  11  41
ATOM     41  C   UNL     1      -1.788   7.919 133.197  0.00  0.00    +0.000 C 
BRANCH  41  42
ATOM     42  C   UNL     1      -0.412   7.467 133.874  0.00  0.00    +0.000 C 
ATOM     43  N   UNL     1      -0.415   6.769 135.026  0.00  0.00    +0.000 N 
ATOM     44  O   UNL     1       0.687   7.770 133.408  0.00  0.00    +0.000 OA
ATOM     45  H   UNL     1      -1.263   6.342 135.353  0.00  0.00    +0.000 HD
ATOM     46  H   UNL     1       0.379   6.444 135.548  0.00  0.00    +0.000 HD
ENDBRANCH  41  42
BRANCH  41  47
ATOM     47  C   UNL     1      -2.267   9.125 134.075  0.00  0.00    +0.000 C 
BRANCH  47  48
ATOM     48  C   UNL     1      -2.296  10.472 133.364  0.00  0.00    +0.000 C 
BRANCH  48  49
ATOM     49  C   UNL     1      -1.306  11.498 133.848  0.00  0.00    +0.000 C 
BRANCH  49  50
ATOM     50  C   UNL     1      -0.017  11.356 133.033  0.00  0.00    +0.000 C 
BRANCH  50  51
ATOM     51  N   UNL     1       1.017  10.803 133.891  0.00  0.00    +0.000 NA
ATOM     52  H   UNL     1       0.652   9.963 134.336  0.00  0.00    +0.000 HD
ATOM     53  H   UNL     1       1.221  11.463 134.638  0.00  0.00    +0.000 HD
ENDBRANCH  50  51
ENDBRANCH  49  50
ENDBRANCH  48  49
ENDBRANCH  47  48
ENDBRANCH  41  47
ENDBRANCH  11  41
ENDBRANCH   8   9
ENDBRANCH   1   2
BRANCH   1  56
ATOM     54  C   UNL     1      -5.217  -0.616 135.295  0.00  0.00    +0.000 C 
ATOM     55  O   UNL     1      -6.383  -0.796 135.655  0.00  0.00    +0.000 OA
ATOM     56  N   UNL     1      -4.645   0.651 135.138  0.00  0.00    +0.000 N 
ATOM     57  H   UNL     1      -3.814   0.787 134.572  0.00  0.00    +0.000 HD
BRANCH  54  58
ATOM     58  C   UNL     1      -4.356  -1.874 134.987  0.00  0.00    +0.000 C 
BRANCH  58  61
ATOM     59  C   UNL     1      -5.776  -3.613 133.648  0.00  0.00    +0.000 C 
ATOM     60  O   UNL     1      -6.451  -3.992 134.606  0.00  0.00    +0.000 OA
ATOM     61  N   UNL     1      -4.864  -2.570 133.726  0.00  0.00    +0.000 N 
ATOM     62  H   UNL     1      -4.516  -2.137 132.870  0.00  0.00    +0.000 HD
BRANCH  59  63
ATOM     63  C   UNL     1      -6.160  -4.283 132.327  0.00  0.00    +0.000 C 
BRANCH  63  66
ATOM     64  C   UNL     1      -6.372  -3.184 130.020  0.00  0.00    +0.000 C 
ATOM     65  O   UNL     1      -7.500  -3.648 129.838  0.00  0.00    +0.000 OA
ATOM     66  N   UNL     1      -5.694  -3.378 131.210  0.00  0.00    +0.000 N 
ATOM     67  H   UNL     1      -4.822  -2.885 131.406  0.00  0.00    +0.000 HD
BRANCH  64  68
ATOM     68  C   UNL     1      -5.698  -2.377 128.878  0.00  0.00    +0.000 C 
BRANCH  68  71
ATOM     69  C   UNL     1      -7.411  -1.213 127.331  0.00  0.00    +0.000 C 
ATOM     70  O   UNL     1      -7.686  -2.232 126.693  0.00  0.00    +0.000 OA
ATOM     71  N   UNL     1      -6.657  -1.260 128.490  0.00  0.00    +0.000 N 
ATOM     72  H   UNL     1      -7.013  -0.745 129.295  0.00  0.00    +0.000 HD
BRANCH  69  73
ATOM     73  C   UNL     1      -8.219   0.016 126.921  0.00  0.00    +0.000 C 
BRANCH  73  75
ATOM     74  C   UNL     1      -6.581  -0.152 124.944  0.00  0.00    +0.000 C 
ATOM     75  N   UNL     1      -7.914   0.189 125.487  0.00  0.00    +0.000 N 
ATOM     76  C   UNL     1      -8.995   0.550 124.732  0.00  0.00    +0.000 C 
ATOM     77  O   UNL     1     -10.132   0.617 125.199  0.00  0.00    +0.000 OA
BRANCH  76  78
ATOM     78  C   UNL     1      -8.771   0.831 123.299  0.00  0.00    +0.000 C 
BRANCH  78  79
ATOM     79  C   UNL     1      -9.088   2.304 123.134  0.00  0.00    +0.000 C 
BRANCH  79  80
ATOM     80  C   UNL     1      -8.165   2.940 122.164  0.00  0.00    +0.000 A 
ATOM     81  C   UNL     1      -8.691   3.490 120.992  0.00  0.00    +0.000 A 
ATOM     82  C   UNL     1      -7.852   4.145 120.105  0.00  0.00    +0.000 A 
ATOM     83  C   UNL     1      -6.493   4.231 120.398  0.00  0.00    +0.000 A 
ATOM     84  C   UNL     1      -5.958   3.650 121.542  0.00  0.00    +0.000 A 
ATOM     85  C   UNL     1      -6.796   3.003 122.433  0.00  0.00    +0.000 A 
BRANCH  83  86
ATOM     86  O   UNL     1      -5.628   4.893 119.582  0.00  0.00    +0.000 OA
ATOM     87  H   UNL     1      -4.724   4.646 119.832  0.00  0.00    +0.000 HD
ENDBRANCH  83  86
ENDBRANCH  79  80
ENDBRANCH  78  79
ENDBRANCH  76  78
ENDBRANCH  73  75
BRANCH  73  88
ATOM     88  C   UNL     1      -7.638   1.224 127.807  0.00  0.00    +0.000 C 
BRANCH  88  89
ATOM     89  C   UNL     1      -7.261   2.472 127.056  0.00  0.00    +0.000 A 
ATOM     90  C   UNL     1      -5.954   2.686 126.612  0.00  0.00    +0.000 A 
ATOM     91  C   UNL     1      -5.630   3.814 125.876  0.00  0.00    +0.000 A 
ATOM     92  C   UNL     1      -6.619   4.749 125.601  0.00  0.00    +0.000 A 
ATOM     93  C   UNL     1      -7.922   4.576 126.055  0.00  0.00    +0.000 A 
ATOM     94  C   UNL     1      -8.250   3.433 126.781  0.00  0.00    +0.000 A 
BRANCH  92  95
ATOM     95  O   UNL     1      -6.351   5.839 124.828  0.00  0.00    +0.000 OA
ATOM     96  H   UNL     1      -5.631   5.599 124.222  0.00  0.00    +0.000 HD
ENDBRANCH  92  95
ENDBRANCH  88  89
ENDBRANCH  73  88
ENDBRANCH  69  73
ENDBRANCH  68  71
BRANCH  68  97
ATOM     97  C   UNL     1      -4.369  -1.841 129.472  0.00  0.00    +0.000 C 
BRANCH  97  98
ATOM     98  C   UNL     1      -4.381  -0.440 130.028  0.00  0.00    +0.000 A 
ATOM     99  C   UNL     1      -4.232   0.687 129.238  0.00  0.00    +0.000 A 
ATOM    100  C   UNL     1      -3.939   1.924 129.834  0.00  0.00    +0.000 A 
ATOM    101  C   UNL     1      -3.761   2.030 131.211  0.00  0.00    +0.000 A 
ATOM    102  C   UNL     1      -4.018   0.931 131.993  0.00  0.00    +0.000 A 
ATOM    103  C   UNL     1      -4.517  -0.210 131.384  0.00  0.00    +0.000 A 
ENDBRANCH  97  98
ENDBRANCH  68  97
ENDBRANCH  64  68
ENDBRANCH  63  66
BRANCH  63 104
ATOM    104  C   UNL     1      -5.338  -5.563 132.352  0.00  0.00    +0.000 C 
BRANCH 104 105
ATOM    105  C   UNL     1      -3.919  -5.293 132.781  0.00  0.00    +0.000 C 
BRANCH 105 106
ATOM    106  C   UNL     1      -3.417  -6.047 133.962  0.00  0.00    +0.000 C 
ATOM    107  N   UNL     1      -4.348  -6.547 134.812  0.00  0.00    +0.000 N 
ATOM    108  O   UNL     1      -2.216  -6.151 134.189  0.00  0.00    +0.000 OA
ATOM    109  H   UNL     1      -5.345  -6.451 134.687  0.00  0.00    +0.000 HD
ATOM    110  H   UNL     1      -4.013  -7.012 135.640  0.00  0.00    +0.000 HD
ENDBRANCH 105 106
ENDBRANCH 104 105
ENDBRANCH  63 104
ENDBRANCH  59  63
ENDBRANCH  58  61
BRANCH  58 111
ATOM    111  C   UNL     1      -2.954  -1.307 134.816  0.00  0.00    +0.000 C 
BRANCH 111 112
ATOM    112  C   UNL     1      -2.031  -2.085 133.927  0.00  0.00    +0.000 C 
ATOM    113  N   UNL     1      -1.334  -3.104 134.495  0.00  0.00    +0.000 N 
ATOM    114  O   UNL     1      -1.871  -1.807 132.745  0.00  0.00    +0.000 OA
ATOM    115  H   UNL     1      -1.843  -3.606 135.227  0.00  0.00    +0.000 HD
ATOM    116  H   UNL     1      -1.223  -3.833 133.792  0.00  0.00    +0.000 HD
ENDBRANCH 111 112
ENDBRANCH  58 111
ENDBRANCH  54  58
ENDBRANCH   1  56
BRANCH   1 117
ATOM    117  C   UNL     1      -5.641   1.813 137.075  0.00  0.00    +0.000 C 
BRANCH 117 118
ATOM    118  C   UNL     1      -4.547   1.326 137.982  0.00  0.00    +0.000 C 
BRANCH 118 119
ATOM    119  C   UNL     1      -4.327   2.235 139.155  0.00  0.00    +0.000 C 
BRANCH 119 120
ATOM    120  N   UNL     1      -4.028   3.544 138.591  0.00  0.00    +0.000 NA
ATOM    121  C   UNL     1      -2.790   3.802 138.396  0.00  0.00    +0.000 C 
ATOM    122  N   UNL     1      -1.753   2.991 138.664  0.00  0.00    +0.000 N 
ATOM    123  N   UNL     1      -2.433   5.012 137.939  0.00  0.00    +0.000 N 
ATOM    124  H   UNL     1      -1.936   2.056 138.997  0.00  0.00    +0.000 HD
ATOM    125  H   UNL     1      -0.809   3.210 138.406  0.00  0.00    +0.000 HD
ATOM    126  H   UNL     1      -3.187   5.610 137.624  0.00  0.00    +0.000 HD
ATOM    127  H   UNL     1      -1.508   5.214 137.600  0.00  0.00    +0.000 HD
ENDBRANCH 119 120
ENDBRANCH 118 119
ENDBRANCH 117 118
ENDBRANCH   1 117
TORSDOF 39
ENDMDL
MODEL 4
REMARK VINA RESULT:      -9.5      2.267      4.565
REMARK  Name = CHEMBL412210
REMARK  40 active torsions:
REMARK  status: ('A' for Active; 'I' for Inactive)
REMARK    1  A    between atoms: C_1  and  N_2
REMARK    2  A    between atoms: N_2  and  C_14
REMARK    3  A    between atoms: C_3  and  C_5
REMARK    4  A    between atoms: C_5  and  C_6
REMARK    5  A    between atoms: C_6  and  C_7
REMARK    6  A    between atoms: C_10  and  O_11
REMARK    7  A    between atoms: C_14  and  C_15
REMARK    8  A    between atoms: C_14  and  C_23
REMARK    9  A    between atoms: C_15  and  C_16
REMARK   10  A    between atoms: C_19  and  O_20
REMARK   11  A    between atoms: N_25  and  C_26
REMARK   12  A    between atoms: C_26  and  C_27
REMARK   13  A    between atoms: C_26  and  C_34
REMARK   14  A    between atoms: C_27  and  C_28
REMARK   15  A    between atoms: N_36  and  C_37
REMARK   16  A    between atoms: C_37  and  C_38
REMARK   17  A    between atoms: C_37  and  C_43
REMARK   18  A    between atoms: C_38  and  C_39
REMARK   19  A    between atoms: C_39  and  C_40
REMARK   20  A    between atoms: N_45  and  C_46
REMARK   21  A    between atoms: C_46  and  C_47
REMARK   22  A    between atoms: C_46  and  C_51
REMARK   23  A    between atoms: C_47  and  C_48
REMARK   24  A    between atoms: N_53  and  C_54
REMARK   25  A    between atoms: C_54  and  C_55
REMARK   26  A    between atoms: C_54  and  C_62
REMARK   27  A    between atoms: C_55  and  C_56
REMARK   28  A    between atoms: C_56  and  C_57
REMARK   29  A    between atoms: C_57  and  N_58
REMARK   30  A    between atoms: C_68  and  C_69
REMARK   31  A    between atoms: N_71  and  C_99
REMARK   32  A    between atoms: C_72  and  C_74
REMARK   33  A    between atoms: C_87  and  O_88
REMARK   34  A    between atoms: C_94  and  O_95
REMARK   35  A    between atoms: C_99  and  C_100
REMARK   36  A    between atoms: C_99  and  C_105
REMARK   37  A    between atoms: C_100  and  C_101
REMARK   38  A    between atoms: C_101  and  C_102
REMARK   39  A    between atoms: C_102  and  C_103
REMARK   40  A    between atoms: C_103  and  N_104
REMARK                            x       y       z     vdW  Elec       q    Type
REMARK                         _______ _______ _______ _____ _____    ______ ____
ROOT
ATOM      1  C   UNL     1      -1.298   6.827 133.937  0.00  0.00    +0.000 C 
ENDROOT
BRANCH   1   2
ATOM      2  C   UNL     1      -0.471   8.183 134.185  0.00  0.00    +0.000 C 
ATOM      3  O   UNL     1      -0.584   9.113 133.377  0.00  0.00    +0.000 OA
ATOM      4  N   UNL     1       0.240   8.384 135.364  0.00  0.00    +0.000 N 
ATOM      5  C   UNL     1       1.182   7.458 136.012  0.00  0.00    +0.000 C 
ATOM      6  C   UNL     1       0.794   7.613 137.410  0.00  0.00    +0.000 C 
ATOM      7  C   UNL     1       0.852   9.092 137.530  0.00  0.00    +0.000 C 
ATOM      8  C   UNL     1       0.149   9.620 136.218  0.00  0.00    +0.000 C 
BRANCH   8   9
ATOM      9  C   UNL     1       1.008  10.837 135.891  0.00  0.00    +0.000 C 
ATOM     10  O   UNL     1       2.215  10.587 135.764  0.00  0.00    +0.000 OA
ATOM     11  N   UNL     1       0.475  12.202 135.956  0.00  0.00    +0.000 N 
ATOM     12  C   UNL     1      -0.793  12.683 136.450  0.00  0.00    +0.000 C 
ATOM     13  O   UNL     1      -1.025  13.718 137.070  0.00  0.00    +0.000 OA
BRANCH  12  14
ATOM     14  C   UNL     1      -1.903  11.873 136.842  0.00  0.00    +0.000 A 
ATOM     15  C   UNL     1      -2.458  10.765 136.190  0.00  0.00    +0.000 A 
ATOM     16  C   UNL     1      -3.722  10.302 136.584  0.00  0.00    +0.000 A 
ATOM     17  C   UNL     1      -4.203  10.841 137.755  0.00  0.00    +0.000 A 
ATOM     18  C   UNL     1      -3.624  12.002 138.255  0.00  0.00    +0.000 A 
ATOM     19  C   UNL     1      -2.775  12.679 137.475  0.00  0.00    +0.000 A 
ATOM     20  C   UNL     1      -4.398  12.407 139.412  0.00  0.00    +0.000 C 
ATOM     21  O   UNL     1      -4.455  12.220 140.623  0.00  0.00    +0.000 OA
ATOM     22  O   UNL     1      -5.276  11.851 138.623  0.00  0.00    +0.000 OA
ATOM     23  C   UNL     1      -5.132  10.393 138.824  0.00  0.00    +0.000 C 
ATOM     24  C   UNL     1      -6.434  10.695 139.735  0.00  0.00    +0.000 A 
ATOM     25  C   UNL     1      -7.168  11.986 139.784  0.00  0.00    +0.000 A 
ATOM     26  C   UNL     1      -7.378  12.646 141.006  0.00  0.00    +0.000 A 
ATOM     27  C   UNL     1      -7.163  11.940 142.177  0.00  0.00    +0.000 A 
ATOM     28  C   UNL     1      -6.718  10.614 142.142  0.00  0.00    +0.000 A 
ATOM     29  C   UNL     1      -6.371   9.989 140.935  0.00  0.00    +0.000 A 
ATOM     30  O   UNL     1      -5.842   8.719 140.981  0.00  0.00    +0.000 OA
ATOM     31  C   UNL     1      -4.589   8.546 140.455  0.00  0.00    +0.000 A 
ATOM     32  C   UNL     1      -4.001   7.276 140.555  0.00  0.00    +0.000 A 
ATOM     33  C   UNL     1      -2.696   7.029 140.138  0.00  0.00    +0.000 A 
ATOM     34  C   UNL     1      -1.907   8.082 139.735  0.00  0.00    +0.000 A 
ATOM     35  C   UNL     1      -2.521   9.345 139.560  0.00  0.00    +0.000 A 
ATOM     36  C   UNL     1      -3.949   9.556 139.776  0.00  0.00    +0.000 A 
BRANCH  33  37
ATOM     37  O   UNL     1      -2.163   5.773 140.115  0.00  0.00    +0.000 OA
ATOM     38  H   UNL     1      -1.360   5.772 139.567  0.00  0.00    +0.000 HD
ENDBRANCH  33  37
BRANCH  27  39
ATOM     39  O   UNL     1      -7.330  12.526 143.399  0.00  0.00    +0.000 OA
ATOM     40  H   UNL     1      -6.946  11.952 144.082  0.00  0.00    +0.000 HD
ENDBRANCH  27  39
ENDBRANCH  12  14
BRANCH  11  41
ATOM     41  C   UNL     1       1.539  13.246 135.587  0.00  0.00    +0.000 C 
BRANCH  41  42
ATOM     42  C   UNL     1       1.946  14.532 136.446  0.00  0.00    +0.000 C 
ATOM     43  N   UNL     1       1.538  15.759 136.072  0.00  0.00    +0.000 N 
ATOM     44  O   UNL     1       2.672  14.464 137.438  0.00  0.00    +0.000 OA
ATOM     45  H   UNL     1       0.808  15.861 135.390  0.00  0.00    +0.000 HD
ATOM     46  H   UNL     1       1.740  16.636 136.519  0.00  0.00    +0.000 HD
ENDBRANCH  41  42
BRANCH  41  47
ATOM     47  C   UNL     1       1.253  13.819 134.157  0.00  0.00    +0.000 C 
BRANCH  47  48
ATOM     48  C   UNL     1       1.707  12.934 133.003  0.00  0.00    +0.000 C 
BRANCH  48  49
ATOM     49  C   UNL     1       0.616  12.233 132.237  0.00  0.00    +0.000 C 
BRANCH  49  50
ATOM     50  C   UNL     1      -0.712  12.938 132.523  0.00  0.00    +0.000 C 
BRANCH  50  51
ATOM     51  N   UNL     1      -1.353  13.254 131.256  0.00  0.00    +0.000 NA
ATOM     52  H   UNL     1      -1.630  14.235 131.270  0.00  0.00    +0.000 HD
ATOM     53  H   UNL     1      -2.209  12.712 131.171  0.00  0.00    +0.000 HD
ENDBRANCH  50  51
ENDBRANCH  49  50
ENDBRANCH  48  49
ENDBRANCH  47  48
ENDBRANCH  41  47
ENDBRANCH  11  41
ENDBRANCH   8   9
ENDBRANCH   1   2
BRANCH   1  56
ATOM     54  C   UNL     1      -3.313   6.829 135.507  0.00  0.00    +0.000 C 
ATOM     55  O   UNL     1      -2.638   6.749 136.536  0.00  0.00    +0.000 OA
ATOM     56  N   UNL     1      -2.761   6.975 134.230  0.00  0.00    +0.000 N 
ATOM     57  H   UNL     1      -3.312   7.331 133.456  0.00  0.00    +0.000 HD
BRANCH  54  58
ATOM     58  C   UNL     1      -4.862   6.780 135.657  0.00  0.00    +0.000 C 
BRANCH  58  61
ATOM     59  C   UNL     1      -6.775   5.292 134.679  0.00  0.00    +0.000 C 
ATOM     60  O   UNL     1      -7.703   5.998 135.078  0.00  0.00    +0.000 OA
ATOM     61  N   UNL     1      -5.440   5.642 134.819  0.00  0.00    +0.000 N 
ATOM     62  H   UNL     1      -4.730   5.159 134.268  0.00  0.00    +0.000 HD
BRANCH  59  63
ATOM     63  C   UNL     1      -7.236   4.081 133.865  0.00  0.00    +0.000 C 
BRANCH  63  66
ATOM     64  C   UNL     1      -8.904   4.839 132.071  0.00  0.00    +0.000 C 
ATOM     65  O   UNL     1      -9.853   4.806 132.857  0.00  0.00    +0.000 OA
ATOM     66  N   UNL     1      -7.611   4.580 132.489  0.00  0.00    +0.000 N 
ATOM     67  H   UNL     1      -6.816   4.737 131.869  0.00  0.00    +0.000 HD
BRANCH  64  68
ATOM     68  C   UNL     1      -9.176   5.168 130.578  0.00  0.00    +0.000 C 
BRANCH  68  71
ATOM     69  C   UNL     1      -7.537   4.043 128.926  0.00  0.00    +0.000 C 
ATOM     70  O   UNL     1      -6.650   4.888 129.066  0.00  0.00    +0.000 OA
ATOM     71  N   UNL     1      -8.643   4.003 129.757  0.00  0.00    +0.000 N 
ATOM     72  H   UNL     1      -8.899   3.095 130.142  0.00  0.00    +0.000 HD
BRANCH  69  73
ATOM     73  C   UNL     1      -7.160   2.892 127.997  0.00  0.00    +0.000 C 
BRANCH  73  75
ATOM     74  C   UNL     1      -8.084   4.526 126.238  0.00  0.00    +0.000 C 
ATOM     75  N   UNL     1      -7.093   3.512 126.659  0.00  0.00    +0.000 N 
ATOM     76  C   UNL     1      -5.983   3.162 125.943  0.00  0.00    +0.000 C 
ATOM     77  O   UNL     1      -5.079   2.477 126.421  0.00  0.00    +0.000 OA
BRANCH  76  78
ATOM     78  C   UNL     1      -5.872   3.664 124.557  0.00  0.00    +0.000 C 
BRANCH  78  79
ATOM     79  C   UNL     1      -6.584   2.631 123.707  0.00  0.00    +0.000 C 
BRANCH  79  80
ATOM     80  C   UNL     1      -6.947   3.193 122.383  0.00  0.00    +0.000 A 
ATOM     81  C   UNL     1      -5.927   3.625 121.531  0.00  0.00    +0.000 A 
ATOM     82  C   UNL     1      -6.243   4.092 120.266  0.00  0.00    +0.000 A 
ATOM     83  C   UNL     1      -7.579   4.132 119.875  0.00  0.00    +0.000 A 
ATOM     84  C   UNL     1      -8.600   3.743 120.734  0.00  0.00    +0.000 A 
ATOM     85  C   UNL     1      -8.285   3.267 121.994  0.00  0.00    +0.000 A 
BRANCH  83  86
ATOM     86  O   UNL     1      -7.946   4.548 118.631  0.00  0.00    +0.000 OA
ATOM     87  H   UNL     1      -7.829   3.808 118.015  0.00  0.00    +0.000 HD
ENDBRANCH  83  86
ENDBRANCH  79  80
ENDBRANCH  78  79
ENDBRANCH  76  78
ENDBRANCH  73  75
BRANCH  73  88
ATOM     88  C   UNL     1      -8.369   1.839 128.110  0.00  0.00    +0.000 C 
BRANCH  88  89
ATOM     89  C   UNL     1      -8.393   0.748 127.074  0.00  0.00    +0.000 A 
ATOM     90  C   UNL     1      -7.616  -0.405 127.217  0.00  0.00    +0.000 A 
ATOM     91  C   UNL     1      -7.687  -1.427 126.284  0.00  0.00    +0.000 A 
ATOM     92  C   UNL     1      -8.524  -1.284 125.185  0.00  0.00    +0.000 A 
ATOM     93  C   UNL     1      -9.286  -0.135 125.004  0.00  0.00    +0.000 A 
ATOM     94  C   UNL     1      -9.227   0.884 125.951  0.00  0.00    +0.000 A 
BRANCH  92  95
ATOM     95  O   UNL     1      -8.664  -2.294 124.281  0.00  0.00    +0.000 OA
ATOM     96  H   UNL     1      -8.148  -2.055 123.494  0.00  0.00    +0.000 HD
ENDBRANCH  92  95
ENDBRANCH  88  89
ENDBRANCH  73  88
ENDBRANCH  69  73
ENDBRANCH  68  71
BRANCH  68  97
ATOM     97  C   UNL     1     -10.714   5.326 130.459  0.00  0.00    +0.000 C 
BRANCH  97  98
ATOM     98  C   UNL     1     -11.225   6.498 129.660  0.00  0.00    +0.000 A 
ATOM     99  C   UNL     1     -10.518   7.062 128.612  0.00  0.00    +0.000 A 
ATOM    100  C   UNL     1     -10.888   8.323 128.118  0.00  0.00    +0.000 A 
ATOM    101  C   UNL     1     -11.940   9.034 128.691  0.00  0.00    +0.000 A 
ATOM    102  C   UNL     1     -12.700   8.420 129.655  0.00  0.00    +0.000 A 
ATOM    103  C   UNL     1     -12.435   7.093 129.958  0.00  0.00    +0.000 A 
ENDBRANCH  97  98
ENDBRANCH  68  97
ENDBRANCH  64  68
ENDBRANCH  63  66
BRANCH  63 104
ATOM    104  C   UNL     1      -5.979   3.228 133.797  0.00  0.00    +0.000 C 
BRANCH 104 105
ATOM    105  C   UNL     1      -6.301   1.765 133.962  0.00  0.00    +0.000 C 
BRANCH 105 106
ATOM    106  C   UNL     1      -6.906   1.072 132.792  0.00  0.00    +0.000 C 
ATOM    107  N   UNL     1      -6.399   1.374 131.571  0.00  0.00    +0.000 N 
ATOM    108  O   UNL     1      -7.864   0.317 132.923  0.00  0.00    +0.000 OA
ATOM    109  H   UNL     1      -5.639   2.019 131.412  0.00  0.00    +0.000 HD
ATOM    110  H   UNL     1      -6.840   0.948 130.772  0.00  0.00    +0.000 HD
ENDBRANCH 105 106
ENDBRANCH 104 105
ENDBRANCH  63 104
ENDBRANCH  59  63
ENDBRANCH  58  61
BRANCH  58 111
ATOM    111  C   UNL     1      -5.063   6.566 137.150  0.00  0.00    +0.000 C 
BRANCH 111 112
ATOM    112  C   UNL     1      -6.392   6.983 137.704  0.00  0.00    +0.000 C 
ATOM    113  N   UNL     1      -7.086   6.058 138.418  0.00  0.00    +0.000 N 
ATOM    114  O   UNL     1      -6.866   8.095 137.502  0.00  0.00    +0.000 OA
ATOM    115  H   UNL     1      -6.501   5.432 138.976  0.00  0.00    +0.000 HD
ATOM    116  H   UNL     1      -7.603   6.551 139.145  0.00  0.00    +0.000 HD
ENDBRANCH 111 112
ENDBRANCH  58 111
ENDBRANCH  54  58
ENDBRANCH   1  56
BRANCH   1 117
ATOM    117  C   UNL     1      -1.110   6.320 132.516  0.00  0.00    +0.000 C 
BRANCH 117 118
ATOM    118  C   UNL     1      -2.361   5.993 131.752  0.00  0.00    +0.000 C 
BRANCH 118 119
ATOM    119  C   UNL     1      -2.753   7.082 130.798  0.00  0.00    +0.000 C 
BRANCH 119 120
ATOM    120  N   UNL     1      -3.705   6.478 129.877  0.00  0.00    +0.000 NA
ATOM    121  C   UNL     1      -3.278   6.255 128.692  0.00  0.00    +0.000 C 
ATOM    122  N   UNL     1      -2.050   6.529 128.222  0.00  0.00    +0.000 N 
ATOM    123  N   UNL     1      -4.117   5.759 127.770  0.00  0.00    +0.000 N 
ATOM    124  H   UNL     1      -1.352   6.891 128.855  0.00  0.00    +0.000 HD
ATOM    125  H   UNL     1      -1.741   6.250 127.309  0.00  0.00    +0.000 HD
ATOM    126  H   UNL     1      -5.016   5.440 128.111  0.00  0.00    +0.000 HD
ATOM    127  H   UNL     1      -3.802   5.400 126.885  0.00  0.00    +0.000 HD
ENDBRANCH 119 120
ENDBRANCH 118 119
ENDBRANCH 117 118
ENDBRANCH   1 117
TORSDOF 39
ENDMDL
MODEL 5
REMARK VINA RESULT:      -9.4      2.558      5.069
REMARK  Name = CHEMBL412210
REMARK  40 active torsions:
REMARK  status: ('A' for Active; 'I' for Inactive)
REMARK    1  A    between atoms: C_1  and  N_2
REMARK    2  A    between atoms: N_2  and  C_14
REMARK    3  A    between atoms: C_3  and  C_5
REMARK    4  A    between atoms: C_5  and  C_6
REMARK    5  A    between atoms: C_6  and  C_7
REMARK    6  A    between atoms: C_10  and  O_11
REMARK    7  A    between atoms: C_14  and  C_15
REMARK    8  A    between atoms: C_14  and  C_23
REMARK    9  A    between atoms: C_15  and  C_16
REMARK   10  A    between atoms: C_19  and  O_20
REMARK   11  A    between atoms: N_25  and  C_26
REMARK   12  A    between atoms: C_26  and  C_27
REMARK   13  A    between atoms: C_26  and  C_34
REMARK   14  A    between atoms: C_27  and  C_28
REMARK   15  A    between atoms: N_36  and  C_37
REMARK   16  A    between atoms: C_37  and  C_38
REMARK   17  A    between atoms: C_37  and  C_43
REMARK   18  A    between atoms: C_38  and  C_39
REMARK   19  A    between atoms: C_39  and  C_40
REMARK   20  A    between atoms: N_45  and  C_46
REMARK   21  A    between atoms: C_46  and  C_47
REMARK   22  A    between atoms: C_46  and  C_51
REMARK   23  A    between atoms: C_47  and  C_48
REMARK   24  A    between atoms: N_53  and  C_54
REMARK   25  A    between atoms: C_54  and  C_55
REMARK   26  A    between atoms: C_54  and  C_62
REMARK   27  A    between atoms: C_55  and  C_56
REMARK   28  A    between atoms: C_56  and  C_57
REMARK   29  A    between atoms: C_57  and  N_58
REMARK   30  A    between atoms: C_68  and  C_69
REMARK   31  A    between atoms: N_71  and  C_99
REMARK   32  A    between atoms: C_72  and  C_74
REMARK   33  A    between atoms: C_87  and  O_88
REMARK   34  A    between atoms: C_94  and  O_95
REMARK   35  A    between atoms: C_99  and  C_100
REMARK   36  A    between atoms: C_99  and  C_105
REMARK   37  A    between atoms: C_100  and  C_101
REMARK   38  A    between atoms: C_101  and  C_102
REMARK   39  A    between atoms: C_102  and  C_103
REMARK   40  A    between atoms: C_103  and  N_104
REMARK                            x       y       z     vdW  Elec       q    Type
REMARK                         _______ _______ _______ _____ _____    ______ ____
ROOT
ATOM      1  C   UNL     1      -3.393   7.278 131.687  0.00  0.00    +0.000 C 
ENDROOT
BRANCH   1   2
ATOM      2  C   UNL     1      -2.506   8.542 132.133  0.00  0.00    +0.000 C 
ATOM      3  O   UNL     1      -2.922   9.682 131.898  0.00  0.00    +0.000 OA
ATOM      4  N   UNL     1      -1.364   8.378 132.912  0.00  0.00    +0.000 N 
ATOM      5  C   UNL     1      -0.261   7.429 132.696  0.00  0.00    +0.000 C 
ATOM      6  C   UNL     1      -0.027   6.970 134.061  0.00  0.00    +0.000 C 
ATOM      7  C   UNL     1       0.110   8.278 134.751  0.00  0.00    +0.000 C 
ATOM      8  C   UNL     1      -1.062   9.157 134.163  0.00  0.00    +0.000 C 
BRANCH   8   9
ATOM      9  C   UNL     1      -0.387  10.522 134.066  0.00  0.00    +0.000 C 
ATOM     10  O   UNL     1       0.415  10.627 133.127  0.00  0.00    +0.000 OA
ATOM     11  N   UNL     1      -0.513  11.526 135.128  0.00  0.00    +0.000 N 
ATOM     12  C   UNL     1      -1.095  11.419 136.445  0.00  0.00    +0.000 C 
ATOM     13  O   UNL     1      -0.705  11.929 137.492  0.00  0.00    +0.000 OA
BRANCH  12  14
ATOM     14  C   UNL     1      -1.848  10.312 136.942  0.00  0.00    +0.000 A 
ATOM     15  C   UNL     1      -1.425   9.000 137.193  0.00  0.00    +0.000 A 
ATOM     16  C   UNL     1      -2.386   7.998 137.390  0.00  0.00    +0.000 A 
ATOM     17  C   UNL     1      -3.675   8.448 137.558  0.00  0.00    +0.000 A 
ATOM     18  C   UNL     1      -3.993   9.749 137.185  0.00  0.00    +0.000 A 
ATOM     19  C   UNL     1      -3.101  10.444 136.470  0.00  0.00    +0.000 A 
ATOM     20  C   UNL     1      -5.424   9.910 137.355  0.00  0.00    +0.000 C 
ATOM     21  O   UNL     1      -6.242  10.229 138.210  0.00  0.00    +0.000 OA
ATOM     22  O   UNL     1      -5.284   8.656 137.019  0.00  0.00    +0.000 OA
ATOM     23  C   UNL     1      -4.888   7.950 138.256  0.00  0.00    +0.000 C 
ATOM     24  C   UNL     1      -6.463   7.587 138.193  0.00  0.00    +0.000 A 
ATOM     25  C   UNL     1      -7.368   7.881 137.052  0.00  0.00    +0.000 A 
ATOM     26  C   UNL     1      -8.551   8.613 137.245  0.00  0.00    +0.000 A 
ATOM     27  C   UNL     1      -9.008   8.789 138.540  0.00  0.00    +0.000 A 
ATOM     28  C   UNL     1      -8.292   8.279 139.627  0.00  0.00    +0.000 A 
ATOM     29  C   UNL     1      -7.039   7.670 139.460  0.00  0.00    +0.000 A 
ATOM     30  O   UNL     1      -6.341   7.282 140.580  0.00  0.00    +0.000 OA
ATOM     31  C   UNL     1      -5.103   7.841 140.768  0.00  0.00    +0.000 A 
ATOM     32  C   UNL     1      -4.404   7.515 141.940  0.00  0.00    +0.000 A 
ATOM     33  C   UNL     1      -3.186   8.107 142.263  0.00  0.00    +0.000 A 
ATOM     34  C   UNL     1      -2.708   9.135 141.483  0.00  0.00    +0.000 A 
ATOM     35  C   UNL     1      -3.371   9.409 140.262  0.00  0.00    +0.000 A 
ATOM     36  C   UNL     1      -4.519   8.632 139.806  0.00  0.00    +0.000 A 
BRANCH  33  37
ATOM     37  O   UNL     1      -2.441   7.704 143.332  0.00  0.00    +0.000 OA
ATOM     38  H   UNL     1      -2.390   6.733 143.346  0.00  0.00    +0.000 HD
ENDBRANCH  33  37
BRANCH  27  39
ATOM     39  O   UNL     1     -10.141   9.506 138.800  0.00  0.00    +0.000 OA
ATOM     40  H   UNL     1      -9.908  10.292 139.322  0.00  0.00    +0.000 HD
ENDBRANCH  27  39
ENDBRANCH  12  14
BRANCH  11  41
ATOM     41  C   UNL     1       0.262  12.809 134.793  0.00  0.00    +0.000 C 
BRANCH  41  42
ATOM     42  C   UNL     1       1.759  13.157 135.232  0.00  0.00    +0.000 C 
ATOM     43  N   UNL     1       2.289  14.363 134.954  0.00  0.00    +0.000 N 
ATOM     44  O   UNL     1       2.493  12.340 135.789  0.00  0.00    +0.000 OA
ATOM     45  H   UNL     1       1.694  15.120 134.671  0.00  0.00    +0.000 HD
ATOM     46  H   UNL     1       3.215  14.690 135.165  0.00  0.00    +0.000 HD
ENDBRANCH  41  42
BRANCH  41  47
ATOM     47  C   UNL     1      -0.566  14.064 135.235  0.00  0.00    +0.000 C 
BRANCH  47  48
ATOM     48  C   UNL     1      -1.873  14.276 134.480  0.00  0.00    +0.000 C 
BRANCH  48  49
ATOM     49  C   UNL     1      -2.514  15.630 134.634  0.00  0.00    +0.000 C 
BRANCH  49  50
ATOM     50  C   UNL     1      -3.050  16.075 133.271  0.00  0.00    +0.000 C 
BRANCH  50  51
ATOM     51  N   UNL     1      -3.736  14.953 132.652  0.00  0.00    +0.000 NA
ATOM     52  H   UNL     1      -4.686  15.243 132.421  0.00  0.00    +0.000 HD
ATOM     53  H   UNL     1      -3.820  14.198 133.328  0.00  0.00    +0.000 HD
ENDBRANCH  50  51
ENDBRANCH  49  50
ENDBRANCH  48  49
ENDBRANCH  47  48
ENDBRANCH  41  47
ENDBRANCH  11  41
ENDBRANCH   8   9
ENDBRANCH   1   2
BRANCH   1  56
ATOM     54  C   UNL     1      -4.457   5.404 133.059  0.00  0.00    +0.000 C 
ATOM     55  O   UNL     1      -3.784   4.509 132.544  0.00  0.00    +0.000 OA
ATOM     56  N   UNL     1      -4.270   6.764 132.789  0.00  0.00    +0.000 N 
ATOM     57  H   UNL     1      -4.612   7.478 133.423  0.00  0.00    +0.000 HD
BRANCH  54  58
ATOM     58  C   UNL     1      -5.559   4.983 134.075  0.00  0.00    +0.000 C 
BRANCH  58  61
ATOM     59  C   UNL     1      -6.818   2.713 133.769  0.00  0.00    +0.000 C 
ATOM     60  O   UNL     1      -7.807   3.189 133.207  0.00  0.00    +0.000 OA
ATOM     61  N   UNL     1      -5.700   3.462 134.104  0.00  0.00    +0.000 N 
ATOM     62  H   UNL     1      -4.826   2.990 134.338  0.00  0.00    +0.000 HD
BRANCH  59  63
ATOM     63  C   UNL     1      -6.869   1.189 133.905  0.00  0.00    +0.000 C 
BRANCH  63  66
ATOM     64  C   UNL     1      -8.068   0.136 131.899  0.00  0.00    +0.000 C 
ATOM     65  O   UNL     1      -9.179   0.271 132.417  0.00  0.00    +0.000 OA
ATOM     66  N   UNL     1      -6.923   0.614 132.510  0.00  0.00    +0.000 N 
ATOM     67  H   UNL     1      -6.028   0.618 132.019  0.00  0.00    +0.000 HD
BRANCH  64  68
ATOM     68  C   UNL     1      -7.961  -0.601 130.536  0.00  0.00    +0.000 C 
BRANCH  68  71
ATOM     69  C   UNL     1      -7.598   1.664 129.347  0.00  0.00    +0.000 C 
ATOM     70  O   UNL     1      -6.513   1.895 129.888  0.00  0.00    +0.000 OA
ATOM     71  N   UNL     1      -8.214   0.430 129.446  0.00  0.00    +0.000 N 
ATOM     72  H   UNL     1      -8.563   0.017 128.582  0.00  0.00    +0.000 HD
BRANCH  69  73
ATOM     73  C   UNL     1      -8.023   2.721 128.331  0.00  0.00    +0.000 C 
BRANCH  73  75
ATOM     74  C   UNL     1      -5.943   2.489 126.835  0.00  0.00    +0.000 C 
ATOM     75  N   UNL     1      -7.389   2.288 127.069  0.00  0.00    +0.000 N 
ATOM     76  C   UNL     1      -8.223   1.587 126.244  0.00  0.00    +0.000 C 
ATOM     77  O   UNL     1      -9.363   1.263 126.579  0.00  0.00    +0.000 OA
BRANCH  76  78
ATOM     78  C   UNL     1      -7.704   1.187 124.919  0.00  0.00    +0.000 C 
BRANCH  78  79
ATOM     79  C   UNL     1      -8.293  -0.186 124.665  0.00  0.00    +0.000 C 
BRANCH  79  80
ATOM     80  C   UNL     1      -7.231  -1.166 124.334  0.00  0.00    +0.000 A 
ATOM     81  C   UNL     1      -6.914  -1.390 122.992  0.00  0.00    +0.000 A 
ATOM     82  C   UNL     1      -5.880  -2.254 122.667  0.00  0.00    +0.000 A 
ATOM     83  C   UNL     1      -5.185  -2.892 123.691  0.00  0.00    +0.000 A 
ATOM     84  C   UNL     1      -5.524  -2.704 125.026  0.00  0.00    +0.000 A 
ATOM     85  C   UNL     1      -6.550  -1.836 125.353  0.00  0.00    +0.000 A 
BRANCH  83  86
ATOM     86  O   UNL     1      -4.137  -3.723 123.432  0.00  0.00    +0.000 OA
ATOM     87  H   UNL     1      -3.695  -3.925 124.271  0.00  0.00    +0.000 HD
ENDBRANCH  83  86
ENDBRANCH  79  80
ENDBRANCH  78  79
ENDBRANCH  76  78
ENDBRANCH  73  75
BRANCH  73  88
ATOM     88  C   UNL     1      -7.405   4.103 128.868  0.00  0.00    +0.000 C 
BRANCH  88  89
ATOM     89  C   UNL     1      -8.138   4.756 130.009  0.00  0.00    +0.000 A 
ATOM     90  C   UNL     1      -7.518   5.710 130.819  0.00  0.00    +0.000 A 
ATOM     91  C   UNL     1      -8.219   6.342 131.833  0.00  0.00    +0.000 A 
ATOM     92  C   UNL     1      -9.546   6.001 132.053  0.00  0.00    +0.000 A 
ATOM     93  C   UNL     1     -10.180   5.034 131.280  0.00  0.00    +0.000 A 
ATOM     94  C   UNL     1      -9.479   4.411 130.251  0.00  0.00    +0.000 A 
BRANCH  92  95
ATOM     95  O   UNL     1     -10.283   6.646 133.001  0.00  0.00    +0.000 OA
ATOM     96  H   UNL     1     -11.190   6.724 132.663  0.00  0.00    +0.000 HD
ENDBRANCH  92  95
ENDBRANCH  88  89
ENDBRANCH  73  88
ENDBRANCH  69  73
ENDBRANCH  68  71
BRANCH  68  97
ATOM     97  C   UNL     1      -6.522  -1.179 130.487  0.00  0.00    +0.000 C 
BRANCH  97  98
ATOM     98  C   UNL     1      -6.333  -2.596 130.964  0.00  0.00    +0.000 A 
ATOM     99  C   UNL     1      -6.473  -2.972 132.289  0.00  0.00    +0.000 A 
ATOM    100  C   UNL     1      -5.987  -4.217 132.717  0.00  0.00    +0.000 A 
ATOM    101  C   UNL     1      -5.331  -5.071 131.833  0.00  0.00    +0.000 A 
ATOM    102  C   UNL     1      -5.295  -4.736 130.503  0.00  0.00    +0.000 A 
ATOM    103  C   UNL     1      -5.979  -3.604 130.088  0.00  0.00    +0.000 A 
ENDBRANCH  97  98
ENDBRANCH  68  97
ENDBRANCH  64  68
ENDBRANCH  63  66
BRANCH  63 104
ATOM    104  C   UNL     1      -5.535   0.870 134.562  0.00  0.00    +0.000 C 
BRANCH 104 105
ATOM    105  C   UNL     1      -4.637   0.100 133.628  0.00  0.00    +0.000 C 
BRANCH 105 106
ATOM    106  C   UNL     1      -3.705   0.895 132.782  0.00  0.00    +0.000 C 
ATOM    107  N   UNL     1      -2.747   1.605 133.425  0.00  0.00    +0.000 N 
ATOM    108  O   UNL     1      -3.844   0.956 131.564  0.00  0.00    +0.000 OA
ATOM    109  H   UNL     1      -2.620   1.616 134.427  0.00  0.00    +0.000 HD
ATOM    110  H   UNL     1      -2.147   2.186 132.862  0.00  0.00    +0.000 HD
ENDBRANCH 105 106
ENDBRANCH 104 105
ENDBRANCH  63 104
ENDBRANCH  59  63
ENDBRANCH  58  61
BRANCH  58 111
ATOM    111  C   UNL     1      -5.054   5.547 135.394  0.00  0.00    +0.000 C 
BRANCH 111 112
ATOM    112  C   UNL     1      -4.533   4.549 136.384  0.00  0.00    +0.000 C 
ATOM    113  N   UNL     1      -3.184   4.467 136.533  0.00  0.00    +0.000 N 
ATOM    114  O   UNL     1      -5.273   3.804 137.015  0.00  0.00    +0.000 OA
ATOM    115  H   UNL     1      -2.696   5.362 136.440  0.00  0.00    +0.000 HD
ATOM    116  H   UNL     1      -2.994   4.235 137.507  0.00  0.00    +0.000 HD
ENDBRANCH 111 112
ENDBRANCH  58 111
ENDBRANCH  54  58
ENDBRANCH   1  56
BRANCH   1 117
ATOM    117  C   UNL     1      -4.241   7.604 130.468  0.00  0.00    +0.000 C 
BRANCH 117 118
ATOM    118  C   UNL     1      -3.524   7.662 129.150  0.00  0.00    +0.000 C 
BRANCH 118 119
ATOM    119  C   UNL     1      -3.853   6.495 128.266  0.00  0.00    +0.000 C 
BRANCH 119 120
ATOM    120  N   UNL     1      -4.176   5.396 129.165  0.00  0.00    +0.000 NA
ATOM    121  C   UNL     1      -3.520   4.312 128.986  0.00  0.00    +0.000 C 
ATOM    122  N   UNL     1      -2.578   4.094 128.054  0.00  0.00    +0.000 N 
ATOM    123  N   UNL     1      -3.807   3.236 129.734  0.00  0.00    +0.000 N 
ATOM    124  H   UNL     1      -2.291   4.857 127.458  0.00  0.00    +0.000 HD
ATOM    125  H   UNL     1      -2.031   3.253 128.017  0.00  0.00    +0.000 HD
ATOM    126  H   UNL     1      -4.432   3.391 130.516  0.00  0.00    +0.000 HD
ATOM    127  H   UNL     1      -3.217   2.423 129.765  0.00  0.00    +0.000 HD
ENDBRANCH 119 120
ENDBRANCH 118 119
ENDBRANCH 117 118
ENDBRANCH   1 117
TORSDOF 39
ENDMDL
MODEL 6
REMARK VINA RESULT:      -9.3      3.791      7.916
REMARK  Name = CHEMBL412210
REMARK  40 active torsions:
REMARK  status: ('A' for Active; 'I' for Inactive)
REMARK    1  A    between atoms: C_1  and  N_2
REMARK    2  A    between atoms: N_2  and  C_14
REMARK    3  A    between atoms: C_3  and  C_5
REMARK    4  A    between atoms: C_5  and  C_6
REMARK    5  A    between atoms: C_6  and  C_7
REMARK    6  A    between atoms: C_10  and  O_11
REMARK    7  A    between atoms: C_14  and  C_15
REMARK    8  A    between atoms: C_14  and  C_23
REMARK    9  A    between atoms: C_15  and  C_16
REMARK   10  A    between atoms: C_19  and  O_20
REMARK   11  A    between atoms: N_25  and  C_26
REMARK   12  A    between atoms: C_26  and  C_27
REMARK   13  A    between atoms: C_26  and  C_34
REMARK   14  A    between atoms: C_27  and  C_28
REMARK   15  A    between atoms: N_36  and  C_37
REMARK   16  A    between atoms: C_37  and  C_38
REMARK   17  A    between atoms: C_37  and  C_43
REMARK   18  A    between atoms: C_38  and  C_39
REMARK   19  A    between atoms: C_39  and  C_40
REMARK   20  A    between atoms: N_45  and  C_46
REMARK   21  A    between atoms: C_46  and  C_47
REMARK   22  A    between atoms: C_46  and  C_51
REMARK   23  A    between atoms: C_47  and  C_48
REMARK   24  A    between atoms: N_53  and  C_54
REMARK   25  A    between atoms: C_54  and  C_55
REMARK   26  A    between atoms: C_54  and  C_62
REMARK   27  A    between atoms: C_55  and  C_56
REMARK   28  A    between atoms: C_56  and  C_57
REMARK   29  A    between atoms: C_57  and  N_58
REMARK   30  A    between atoms: C_68  and  C_69
REMARK   31  A    between atoms: N_71  and  C_99
REMARK   32  A    between atoms: C_72  and  C_74
REMARK   33  A    between atoms: C_87  and  O_88
REMARK   34  A    between atoms: C_94  and  O_95
REMARK   35  A    between atoms: C_99  and  C_100
REMARK   36  A    between atoms: C_99  and  C_105
REMARK   37  A    between atoms: C_100  and  C_101
REMARK   38  A    between atoms: C_101  and  C_102
REMARK   39  A    between atoms: C_102  and  C_103
REMARK   40  A    between atoms: C_103  and  N_104
REMARK                            x       y       z     vdW  Elec       q    Type
REMARK                         _______ _______ _______ _____ _____    ______ ____
ROOT
ATOM      1  C   UNL     1      -4.937   5.324 136.641  0.00  0.00    +0.000 C 
ENDROOT
BRANCH   1   2
ATOM      2  C   UNL     1      -3.735   6.307 136.228  0.00  0.00    +0.000 C 
ATOM      3  O   UNL     1      -3.835   6.979 135.196  0.00  0.00    +0.000 OA
ATOM      4  N   UNL     1      -2.662   6.528 137.087  0.00  0.00    +0.000 N 
ATOM      5  C   UNL     1      -1.859   5.521 137.796  0.00  0.00    +0.000 C 
ATOM      6  C   UNL     1      -1.728   6.151 139.106  0.00  0.00    +0.000 C 
ATOM      7  C   UNL     1      -1.230   7.490 138.697  0.00  0.00    +0.000 C 
ATOM      8  C   UNL     1      -2.136   7.886 137.466  0.00  0.00    +0.000 C 
BRANCH   8   9
ATOM      9  C   UNL     1      -1.122   8.588 136.568  0.00  0.00    +0.000 C 
ATOM     10  O   UNL     1      -0.228   7.847 136.135  0.00  0.00    +0.000 OA
ATOM     11  N   UNL     1      -1.091  10.048 136.428  0.00  0.00    +0.000 N 
ATOM     12  C   UNL     1      -1.813  11.067 137.151  0.00  0.00    +0.000 C 
ATOM     13  O   UNL     1      -1.414  12.173 137.509  0.00  0.00    +0.000 OA
BRANCH  12  14
ATOM     14  C   UNL     1      -2.877  10.845 138.078  0.00  0.00    +0.000 A 
ATOM     15  C   UNL     1      -2.834  10.826 139.478  0.00  0.00    +0.000 A 
ATOM     16  C   UNL     1      -3.921  10.293 140.187  0.00  0.00    +0.000 A 
ATOM     17  C   UNL     1      -5.048  10.053 139.436  0.00  0.00    +0.000 A 
ATOM     18  C   UNL     1      -4.943  10.005 138.051  0.00  0.00    +0.000 A 
ATOM     19  C   UNL     1      -3.723   9.970 137.504  0.00  0.00    +0.000 A 
ATOM     20  C   UNL     1      -6.241   9.619 137.531  0.00  0.00    +0.000 C 
ATOM     21  O   UNL     1      -7.302  10.119 137.177  0.00  0.00    +0.000 OA
ATOM     22  O   UNL     1      -6.161   8.998 138.677  0.00  0.00    +0.000 OA
ATOM     23  C   UNL     1      -6.509  10.003 139.704  0.00  0.00    +0.000 C 
ATOM     24  C   UNL     1      -7.906   9.196 139.588  0.00  0.00    +0.000 A 
ATOM     25  C   UNL     1      -8.109   7.938 138.824  0.00  0.00    +0.000 A 
ATOM     26  C   UNL     1      -9.112   7.849 137.843  0.00  0.00    +0.000 A 
ATOM     27  C   UNL     1     -10.088   8.830 137.815  0.00  0.00    +0.000 A 
ATOM     28  C   UNL     1     -10.057   9.898 138.718  0.00  0.00    +0.000 A 
ATOM     29  C   UNL     1      -8.987  10.075 139.607  0.00  0.00    +0.000 A 
ATOM     30  O   UNL     1      -8.967  11.202 140.396  0.00  0.00    +0.000 OA
ATOM     31  C   UNL     1      -7.891  12.040 140.260  0.00  0.00    +0.000 A 
ATOM     32  C   UNL     1      -7.885  13.231 141.003  0.00  0.00    +0.000 A 
ATOM     33  C   UNL     1      -6.884  14.188 140.857  0.00  0.00    +0.000 A 
ATOM     34  C   UNL     1      -5.940  14.031 139.868  0.00  0.00    +0.000 A 
ATOM     35  C   UNL     1      -5.900  12.797 139.175  0.00  0.00    +0.000 A 
ATOM     36  C   UNL     1      -6.807  11.697 139.486  0.00  0.00    +0.000 A 
BRANCH  33  37
ATOM     37  O   UNL     1      -6.802  15.285 141.663  0.00  0.00    +0.000 OA
ATOM     38  H   UNL     1      -6.793  16.089 141.117  0.00  0.00    +0.000 HD
ENDBRANCH  33  37
BRANCH  27  39
ATOM     39  O   UNL     1     -11.081   8.814 136.877  0.00  0.00    +0.000 OA
ATOM     40  H   UNL     1     -11.043   7.976 136.388  0.00  0.00    +0.000 HD
ENDBRANCH  27  39
ENDBRANCH  12  14
BRANCH  11  41
ATOM     41  C   UNL     1       0.023  10.504 135.473  0.00  0.00    +0.000 C 
BRANCH  41  42
ATOM     42  C   UNL     1       1.353  11.295 135.874  0.00  0.00    +0.000 C 
ATOM     43  N   UNL     1       1.312  12.619 136.117  0.00  0.00    +0.000 N 
ATOM     44  O   UNL     1       2.456  10.751 135.930  0.00  0.00    +0.000 OA
ATOM     45  H   UNL     1       0.430  13.076 136.263  0.00  0.00    +0.000 HD
ATOM     46  H   UNL     1       2.077  13.222 136.361  0.00  0.00    +0.000 HD
ENDBRANCH  41  42
BRANCH  41  47
ATOM     47  C   UNL     1      -0.589  11.353 134.306  0.00  0.00    +0.000 C 
BRANCH  47  48
ATOM     48  C   UNL     1       0.223  11.361 133.017  0.00  0.00    +0.000 C 
BRANCH  48  49
ATOM     49  C   UNL     1       0.669  12.713 132.525  0.00  0.00    +0.000 C 
BRANCH  49  50
ATOM     50  C   UNL     1       0.163  12.903 131.092  0.00  0.00    +0.000 C 
BRANCH  50  51
ATOM     51  N   UNL     1      -1.263  13.180 131.135  0.00  0.00    +0.000 NA
ATOM     52  H   UNL     1      -1.668  12.932 130.233  0.00  0.00    +0.000 HD
ATOM     53  H   UNL     1      -1.407  14.180 131.253  0.00  0.00    +0.000 HD
ENDBRANCH  50  51
ENDBRANCH  49  50
ENDBRANCH  48  49
ENDBRANCH  47  48
ENDBRANCH  41  47
ENDBRANCH  11  41
ENDBRANCH   8   9
ENDBRANCH   1   2
BRANCH   1  56
ATOM     54  C   UNL     1      -5.292   3.146 135.351  0.00  0.00    +0.000 C 
ATOM     55  O   UNL     1      -6.035   3.651 134.507  0.00  0.00    +0.000 OA
ATOM     56  N   UNL     1      -4.641   3.884 136.346  0.00  0.00    +0.000 N 
ATOM     57  H   UNL     1      -3.826   3.515 136.826  0.00  0.00    +0.000 HD
BRANCH  54  58
ATOM     58  C   UNL     1      -5.066   1.608 135.284  0.00  0.00    +0.000 C 
BRANCH  58  61
ATOM     59  C   UNL     1      -6.429  -0.310 134.147  0.00  0.00    +0.000 C 
ATOM     60  O   UNL     1      -6.361  -1.095 135.094  0.00  0.00    +0.000 OA
ATOM     61  N   UNL     1      -5.946   0.989 134.200  0.00  0.00    +0.000 N 
ATOM     62  H   UNL     1      -6.239   1.668 133.496  0.00  0.00    +0.000 HD
BRANCH  59  63
ATOM     63  C   UNL     1      -7.249  -0.844 132.969  0.00  0.00    +0.000 C 
BRANCH  63  66
ATOM     64  C   UNL     1      -8.154   0.771 131.195  0.00  0.00    +0.000 C 
ATOM     65  O   UNL     1      -9.311   0.668 131.609  0.00  0.00    +0.000 OA
ATOM     66  N   UNL     1      -7.100   0.141 131.834  0.00  0.00    +0.000 N 
ATOM     67  H   UNL     1      -6.133   0.334 131.569  0.00  0.00    +0.000 HD
BRANCH  64  68
ATOM     68  C   UNL     1      -7.883   1.617 129.922  0.00  0.00    +0.000 C 
BRANCH  68  71
ATOM     69  C   UNL     1      -9.090   3.894 130.103  0.00  0.00    +0.000 C 
ATOM     70  O   UNL     1     -10.219   3.430 129.927  0.00  0.00    +0.000 OA
ATOM     71  N   UNL     1      -7.993   3.081 130.323  0.00  0.00    +0.000 N 
ATOM     72  H   UNL     1      -7.383   3.327 131.101  0.00  0.00    +0.000 HD
BRANCH  69  73
ATOM     73  C   UNL     1      -9.071   5.397 130.372  0.00  0.00    +0.000 C 
BRANCH  73  75
ATOM     74  C   UNL     1      -8.247   5.378 132.809  0.00  0.00    +0.000 C 
ATOM     75  N   UNL     1      -7.993   5.575 131.365  0.00  0.00    +0.000 N 
ATOM     76  C   UNL     1      -6.762   5.794 130.812  0.00  0.00    +0.000 C 
ATOM     77  O   UNL     1      -6.566   5.740 129.598  0.00  0.00    +0.000 OA
BRANCH  76  78
ATOM     78  C   UNL     1      -5.636   6.070 131.728  0.00  0.00    +0.000 C 
BRANCH  78  79
ATOM     79  C   UNL     1      -4.678   6.927 130.925  0.00  0.00    +0.000 C 
BRANCH  79  80
ATOM     80  C   UNL     1      -3.353   7.004 131.586  0.00  0.00    +0.000 A 
ATOM     81  C   UNL     1      -2.538   5.869 131.596  0.00  0.00    +0.000 A 
ATOM     82  C   UNL     1      -1.270   5.941 132.152  0.00  0.00    +0.000 A 
ATOM     83  C   UNL     1      -0.841   7.146 132.702  0.00  0.00    +0.000 A 
ATOM     84  C   UNL     1      -1.664   8.266 132.731  0.00  0.00    +0.000 A 
ATOM     85  C   UNL     1      -2.926   8.199 132.168  0.00  0.00    +0.000 A 
BRANCH  83  86
ATOM     86  O   UNL     1       0.407   7.285 133.230  0.00  0.00    +0.000 OA
ATOM     87  H   UNL     1       0.411   8.072 133.797  0.00  0.00    +0.000 HD
ENDBRANCH  83  86
ENDBRANCH  79  80
ENDBRANCH  78  79
ENDBRANCH  76  78
ENDBRANCH  73  75
BRANCH  73  88
ATOM     88  C   UNL     1     -10.515   5.739 130.988  0.00  0.00    +0.000 C 
BRANCH  88  89
ATOM     89  C   UNL     1     -11.246   6.893 130.356  0.00  0.00    +0.000 A 
ATOM     90  C   UNL     1     -12.408   7.417 130.928  0.00  0.00    +0.000 A 
ATOM     91  C   UNL     1     -13.043   8.513 130.366  0.00  0.00    +0.000 A 
ATOM     92  C   UNL     1     -12.524   9.076 129.209  0.00  0.00    +0.000 A 
ATOM     93  C   UNL     1     -11.385   8.557 128.602  0.00  0.00    +0.000 A 
ATOM     94  C   UNL     1     -10.738   7.466 129.176  0.00  0.00    +0.000 A 
BRANCH  92  95
ATOM     95  O   UNL     1     -13.087  10.191 128.664  0.00  0.00    +0.000 OA
ATOM     96  H   UNL     1     -13.744   9.898 128.012  0.00  0.00    +0.000 HD
ENDBRANCH  92  95
ENDBRANCH  88  89
ENDBRANCH  73  88
ENDBRANCH  69  73
ENDBRANCH  68  71
BRANCH  68  97
ATOM     97  C   UNL     1      -6.452   1.232 129.461  0.00  0.00    +0.000 C 
BRANCH  97  98
ATOM     98  C   UNL     1      -5.549   2.353 129.014  0.00  0.00    +0.000 A 
ATOM     99  C   UNL     1      -5.634   2.936 127.761  0.00  0.00    +0.000 A 
ATOM    100  C   UNL     1      -4.584   3.742 127.293  0.00  0.00    +0.000 A 
ATOM    101  C   UNL     1      -3.438   3.938 128.060  0.00  0.00    +0.000 A 
ATOM    102  C   UNL     1      -3.412   3.445 129.341  0.00  0.00    +0.000 A 
ATOM    103  C   UNL     1      -4.557   2.843 129.840  0.00  0.00    +0.000 A 
ENDBRANCH  97  98
ENDBRANCH  68  97
ENDBRANCH  64  68
ENDBRANCH  63  66
BRANCH  63 104
ATOM    104  C   UNL     1      -6.542  -2.149 132.638  0.00  0.00    +0.000 C 
BRANCH 104 105
ATOM    105  C   UNL     1      -7.240  -2.880 131.519  0.00  0.00    +0.000 C 
BRANCH 105 106
ATOM    106  C   UNL     1      -6.386  -3.392 130.413  0.00  0.00    +0.000 C 
ATOM    107  N   UNL     1      -5.663  -4.510 130.664  0.00  0.00    +0.000 N 
ATOM    108  O   UNL     1      -6.292  -2.789 129.349  0.00  0.00    +0.000 OA
ATOM    109  H   UNL     1      -5.678  -5.016 131.537  0.00  0.00    +0.000 HD
ATOM    110  H   UNL     1      -5.043  -4.831 129.938  0.00  0.00    +0.000 HD
ENDBRANCH 105 106
ENDBRANCH 104 105
ENDBRANCH  63 104
ENDBRANCH  59  63
ENDBRANCH  58  61
BRANCH  58 111
ATOM    111  C   UNL     1      -3.582   1.485 134.971  0.00  0.00    +0.000 C 
BRANCH 111 112
ATOM    112  C   UNL     1      -3.205   1.554 133.522  0.00  0.00    +0.000 C 
ATOM    113  N   UNL     1      -2.621   2.702 133.085  0.00  0.00    +0.000 N 
ATOM    114  O   UNL     1      -3.436   0.640 132.740  0.00  0.00    +0.000 OA
ATOM    115  H   UNL     1      -2.007   3.148 133.770  0.00  0.00    +0.000 HD
ATOM    116  H   UNL     1      -1.958   2.453 132.352  0.00  0.00    +0.000 HD
ENDBRANCH 111 112
ENDBRANCH  58 111
ENDBRANCH  54  58
ENDBRANCH   1  56
BRANCH   1 117
ATOM    117  C   UNL     1      -5.297   5.480 138.110  0.00  0.00    +0.000 C 
BRANCH 117 118
ATOM    118  C   UNL     1      -5.237   4.237 138.950  0.00  0.00    +0.000 C 
BRANCH 118 119
ATOM    119  C   UNL     1      -5.442   4.519 140.409  0.00  0.00    +0.000 C 
BRANCH 119 120
ATOM    120  N   UNL     1      -6.655   3.806 140.783  0.00  0.00    +0.000 NA
ATOM    121  C   UNL     1      -7.347   4.329 141.724  0.00  0.00    +0.000 C 
ATOM    122  N   UNL     1      -7.059   5.457 142.393  0.00  0.00    +0.000 N 
ATOM    123  N   UNL     1      -8.444   3.696 142.166  0.00  0.00    +0.000 N 
ATOM    124  H   UNL     1      -6.259   6.004 142.113  0.00  0.00    +0.000 HD
ATOM    125  H   UNL     1      -7.686   5.870 143.060  0.00  0.00    +0.000 HD
ATOM    126  H   UNL     1      -8.752   2.902 141.617  0.00  0.00    +0.000 HD
ATOM    127  H   UNL     1      -9.119   4.134 142.768  0.00  0.00    +0.000 HD
ENDBRANCH 119 120
ENDBRANCH 118 119
ENDBRANCH 117 118
ENDBRANCH   1 117
TORSDOF 39
ENDMDL
MODEL 7
REMARK VINA RESULT:      -9.3      3.815     13.074
REMARK  Name = CHEMBL412210
REMARK  40 active torsions:
REMARK  status: ('A' for Active; 'I' for Inactive)
REMARK    1  A    between atoms: C_1  and  N_2
REMARK    2  A    between atoms: N_2  and  C_14
REMARK    3  A    between atoms: C_3  and  C_5
REMARK    4  A    between atoms: C_5  and  C_6
REMARK    5  A    between atoms: C_6  and  C_7
REMARK    6  A    between atoms: C_10  and  O_11
REMARK    7  A    between atoms: C_14  and  C_15
REMARK    8  A    between atoms: C_14  and  C_23
REMARK    9  A    between atoms: C_15  and  C_16
REMARK   10  A    between atoms: C_19  and  O_20
REMARK   11  A    between atoms: N_25  and  C_26
REMARK   12  A    between atoms: C_26  and  C_27
REMARK   13  A    between atoms: C_26  and  C_34
REMARK   14  A    between atoms: C_27  and  C_28
REMARK   15  A    between atoms: N_36  and  C_37
REMARK   16  A    between atoms: C_37  and  C_38
REMARK   17  A    between atoms: C_37  and  C_43
REMARK   18  A    between atoms: C_38  and  C_39
REMARK   19  A    between atoms: C_39  and  C_40
REMARK   20  A    between atoms: N_45  and  C_46
REMARK   21  A    between atoms: C_46  and  C_47
REMARK   22  A    between atoms: C_46  and  C_51
REMARK   23  A    between atoms: C_47  and  C_48
REMARK   24  A    between atoms: N_53  and  C_54
REMARK   25  A    between atoms: C_54  and  C_55
REMARK   26  A    between atoms: C_54  and  C_62
REMARK   27  A    between atoms: C_55  and  C_56
REMARK   28  A    between atoms: C_56  and  C_57
REMARK   29  A    between atoms: C_57  and  N_58
REMARK   30  A    between atoms: C_68  and  C_69
REMARK   31  A    between atoms: N_71  and  C_99
REMARK   32  A    between atoms: C_72  and  C_74
REMARK   33  A    between atoms: C_87  and  O_88
REMARK   34  A    between atoms: C_94  and  O_95
REMARK   35  A    between atoms: C_99  and  C_100
REMARK   36  A    between atoms: C_99  and  C_105
REMARK   37  A    between atoms: C_100  and  C_101
REMARK   38  A    between atoms: C_101  and  C_102
REMARK   39  A    between atoms: C_102  and  C_103
REMARK   40  A    between atoms: C_103  and  N_104
REMARK                            x       y       z     vdW  Elec       q    Type
REMARK                         _______ _______ _______ _____ _____    ______ ____
ROOT
ATOM      1  C   UNL     1      -5.445  -3.318 132.909  0.00  0.00    +0.000 C 
ENDROOT
BRANCH   1   2
ATOM      2  C   UNL     1      -5.557  -3.352 131.306  0.00  0.00    +0.000 C 
ATOM      3  O   UNL     1      -6.365  -4.124 130.776  0.00  0.00    +0.000 OA
ATOM      4  N   UNL     1      -4.880  -2.425 130.520  0.00  0.00    +0.000 N 
ATOM      5  C   UNL     1      -3.464  -2.037 130.611  0.00  0.00    +0.000 C 
ATOM      6  C   UNL     1      -3.568  -0.592 130.440  0.00  0.00    +0.000 C 
ATOM      7  C   UNL     1      -4.378  -0.538 129.196  0.00  0.00    +0.000 C 
ATOM      8  C   UNL     1      -5.509  -1.617 129.417  0.00  0.00    +0.000 C 
BRANCH   8   9
ATOM      9  C   UNL     1      -5.632  -2.207 128.015  0.00  0.00    +0.000 C 
ATOM     10  O   UNL     1      -4.747  -3.027 127.730  0.00  0.00    +0.000 OA
ATOM     11  N   UNL     1      -6.576  -1.672 127.030  0.00  0.00    +0.000 N 
ATOM     12  C   UNL     1      -7.402  -0.489 127.079  0.00  0.00    +0.000 C 
ATOM     13  O   UNL     1      -7.678   0.284 126.165  0.00  0.00    +0.000 OA
BRANCH  12  14
ATOM     14  C   UNL     1      -7.599   0.350 128.218  0.00  0.00    +0.000 A 
ATOM     15  C   UNL     1      -7.528   0.020 129.577  0.00  0.00    +0.000 A 
ATOM     16  C   UNL     1      -8.049   0.913 130.525  0.00  0.00    +0.000 A 
ATOM     17  C   UNL     1      -8.371   2.159 130.040  0.00  0.00    +0.000 A 
ATOM     18  C   UNL     1      -8.503   2.339 128.668  0.00  0.00    +0.000 A 
ATOM     19  C   UNL     1      -8.535   1.257 127.882  0.00  0.00    +0.000 A 
ATOM     20  C   UNL     1      -8.962   3.698 128.452  0.00  0.00    +0.000 C 
ATOM     21  O   UNL     1      -8.518   4.830 128.299  0.00  0.00    +0.000 OA
ATOM     22  O   UNL     1      -9.506   3.357 129.588  0.00  0.00    +0.000 OA
ATOM     23  C   UNL     1      -8.449   3.530 130.608  0.00  0.00    +0.000 C 
ATOM     24  C   UNL     1      -9.306   4.884 130.829  0.00  0.00    +0.000 A 
ATOM     25  C   UNL     1     -10.615   5.185 130.195  0.00  0.00    +0.000 A 
ATOM     26  C   UNL     1     -10.797   6.364 129.451  0.00  0.00    +0.000 A 
ATOM     27  C   UNL     1      -9.852   7.367 129.572  0.00  0.00    +0.000 A 
ATOM     28  C   UNL     1      -8.728   7.197 130.388  0.00  0.00    +0.000 A 
ATOM     29  C   UNL     1      -8.462   5.975 131.025  0.00  0.00    +0.000 A 
ATOM     30  O   UNL     1      -7.287   5.843 131.729  0.00  0.00    +0.000 OA
ATOM     31  C   UNL     1      -6.426   4.856 131.326  0.00  0.00    +0.000 A 
ATOM     32  C   UNL     1      -5.191   4.749 131.984  0.00  0.00    +0.000 A 
ATOM     33  C   UNL     1      -4.214   3.842 131.581  0.00  0.00    +0.000 A 
ATOM     34  C   UNL     1      -4.403   3.116 130.427  0.00  0.00    +0.000 A 
ATOM     35  C   UNL     1      -5.677   3.166 129.810  0.00  0.00    +0.000 A 
ATOM     36  C   UNL     1      -6.783   3.940 130.363  0.00  0.00    +0.000 A 
BRANCH  33  37
ATOM     37  O   UNL     1      -3.066   3.645 132.290  0.00  0.00    +0.000 OA
ATOM     38  H   UNL     1      -2.729   2.749 132.119  0.00  0.00    +0.000 HD
ENDBRANCH  33  37
BRANCH  27  39
ATOM     39  O   UNL     1      -9.957   8.529 128.864  0.00  0.00    +0.000 OA
ATOM     40  H   UNL     1     -10.719   8.468 128.264  0.00  0.00    +0.000 HD
ENDBRANCH  27  39
ENDBRANCH  12  14
BRANCH  11  41
ATOM     41  C   UNL     1      -6.503  -2.436 125.699  0.00  0.00    +0.000 C 
BRANCH  41  42
ATOM     42  C   UNL     1      -6.180  -1.812 124.263  0.00  0.00    +0.000 C 
ATOM     43  N   UNL     1      -5.717  -2.592 123.268  0.00  0.00    +0.000 N 
ATOM     44  O   UNL     1      -6.293  -0.609 124.022  0.00  0.00    +0.000 OA
ATOM     45  H   UNL     1      -5.776  -3.592 123.345  0.00  0.00    +0.000 HD
ATOM     46  H   UNL     1      -5.467  -2.315 122.335  0.00  0.00    +0.000 HD
ENDBRANCH  41  42
BRANCH  41  47
ATOM     47  C   UNL     1      -7.825  -3.246 125.474  0.00  0.00    +0.000 C 
BRANCH  47  48
ATOM     48  C   UNL     1      -8.982  -2.447 124.886  0.00  0.00    +0.000 C 
BRANCH  48  49
ATOM     49  C   UNL     1      -9.325  -2.738 123.449  0.00  0.00    +0.000 C 
BRANCH  49  50
ATOM     50  C   UNL     1      -9.568  -1.410 122.726  0.00  0.00    +0.000 C 
BRANCH  50  51
ATOM     51  N   UNL     1      -9.404  -0.325 123.679  0.00  0.00    +0.000 NA
ATOM     52  H   UNL     1      -8.731  -0.616 124.387  0.00  0.00    +0.000 HD
ATOM     53  H   UNL     1     -10.284  -0.167 124.163  0.00  0.00    +0.000 HD
ENDBRANCH  50  51
ENDBRANCH  49  50
ENDBRANCH  48  49
ENDBRANCH  47  48
ENDBRANCH  41  47
ENDBRANCH  11  41
ENDBRANCH   8   9
ENDBRANCH   1   2
BRANCH   1  56
ATOM     54  C   UNL     1      -3.322  -2.314 133.916  0.00  0.00    +0.000 C 
ATOM     55  O   UNL     1      -2.669  -3.356 133.828  0.00  0.00    +0.000 OA
ATOM     56  N   UNL     1      -4.619  -2.172 133.412  0.00  0.00    +0.000 N 
ATOM     57  H   UNL     1      -5.014  -1.255 133.228  0.00  0.00    +0.000 HD
BRANCH  54  58
ATOM     58  C   UNL     1      -2.648  -1.098 134.615  0.00  0.00    +0.000 C 
BRANCH  58  61
ATOM     59  C   UNL     1      -3.936   1.129 135.079  0.00  0.00    +0.000 C 
ATOM     60  O   UNL     1      -3.430   1.765 134.153  0.00  0.00    +0.000 OA
ATOM     61  N   UNL     1      -3.702  -0.222 135.290  0.00  0.00    +0.000 N 
ATOM     62  H   UNL     1      -4.320  -0.753 135.905  0.00  0.00    +0.000 HD
BRANCH  59  63
ATOM     63  C   UNL     1      -4.978   1.924 135.869  0.00  0.00    +0.000 C 
BRANCH  63  66
ATOM     64  C   UNL     1      -3.526   3.208 137.547  0.00  0.00    +0.000 C 
ATOM     65  O   UNL     1      -3.232   2.183 138.166  0.00  0.00    +0.000 OA
ATOM     66  N   UNL     1      -4.293   3.163 136.397  0.00  0.00    +0.000 N 
ATOM     67  H   UNL     1      -4.423   3.994 135.818  0.00  0.00    +0.000 HD
BRANCH  64  68
ATOM     68  C   UNL     1      -3.031   4.578 138.086  0.00  0.00    +0.000 C 
BRANCH  68  71
ATOM     69  C   UNL     1      -3.422   7.013 137.315  0.00  0.00    +0.000 C 
ATOM     70  O   UNL     1      -2.357   7.439 137.766  0.00  0.00    +0.000 OA
ATOM     71  N   UNL     1      -3.695   5.658 137.245  0.00  0.00    +0.000 N 
ATOM     72  H   UNL     1      -4.063   5.306 136.362  0.00  0.00    +0.000 HD
BRANCH  69  73
ATOM     73  C   UNL     1      -4.246   8.060 136.570  0.00  0.00    +0.000 C 
BRANCH  73  75
ATOM     74  C   UNL     1      -2.551   9.888 135.932  0.00  0.00    +0.000 C 
ATOM     75  N   UNL     1      -3.296   8.652 135.607  0.00  0.00    +0.000 N 
ATOM     76  C   UNL     1      -3.090   7.887 134.493  0.00  0.00    +0.000 C 
ATOM     77  O   UNL     1      -3.576   6.762 134.367  0.00  0.00    +0.000 OA
BRANCH  76  78
ATOM     78  C   UNL     1      -2.222   8.437 133.431  0.00  0.00    +0.000 C 
BRANCH  78  79
ATOM     79  C   UNL     1      -1.688   7.225 132.694  0.00  0.00    +0.000 C 
BRANCH  79  80
ATOM     80  C   UNL     1      -2.351   7.071 131.377  0.00  0.00    +0.000 A 
ATOM     81  C   UNL     1      -3.527   7.784 131.126  0.00  0.00    +0.000 A 
ATOM     82  C   UNL     1      -4.125   7.702 129.878  0.00  0.00    +0.000 A 
ATOM     83  C   UNL     1      -3.544   6.896 128.902  0.00  0.00    +0.000 A 
ATOM     84  C   UNL     1      -2.398   6.153 129.160  0.00  0.00    +0.000 A 
ATOM     85  C   UNL     1      -1.795   6.241 130.402  0.00  0.00    +0.000 A 
BRANCH  83  86
ATOM     86  O   UNL     1      -4.068   6.805 127.648  0.00  0.00    +0.000 OA
ATOM     87  H   UNL     1      -3.951   7.661 127.207  0.00  0.00    +0.000 HD
ENDBRANCH  83  86
ENDBRANCH  79  80
ENDBRANCH  78  79
ENDBRANCH  76  78
ENDBRANCH  73  75
BRANCH  73  88
ATOM     88  C   UNL     1      -4.701   9.120 137.689  0.00  0.00    +0.000 C 
BRANCH  88  89
ATOM     89  C   UNL     1      -6.182   9.220 137.941  0.00  0.00    +0.000 A 
ATOM     90  C   UNL     1      -7.066   8.247 137.467  0.00  0.00    +0.000 A 
ATOM     91  C   UNL     1      -8.420   8.322 137.750  0.00  0.00    +0.000 A 
ATOM     92  C   UNL     1      -8.898   9.392 138.494  0.00  0.00    +0.000 A 
ATOM     93  C   UNL     1      -8.044  10.390 138.954  0.00  0.00    +0.000 A 
ATOM     94  C   UNL     1      -6.681  10.305 138.682  0.00  0.00    +0.000 A 
BRANCH  92  95
ATOM     95  O   UNL     1     -10.213   9.466 138.843  0.00  0.00    +0.000 OA
ATOM     96  H   UNL     1     -10.511   8.566 139.052  0.00  0.00    +0.000 HD
ENDBRANCH  92  95
ENDBRANCH  88  89
ENDBRANCH  73  88
ENDBRANCH  69  73
ENDBRANCH  68  71
BRANCH  68  97
ATOM     97  C   UNL     1      -3.471   4.626 139.573  0.00  0.00    +0.000 C 
BRANCH  97  98
ATOM     98  C   UNL     1      -4.951   4.570 139.853  0.00  0.00    +0.000 A 
ATOM     99  C   UNL     1      -5.813   5.617 139.573  0.00  0.00    +0.000 A 
ATOM    100  C   UNL     1      -7.099   5.632 140.135  0.00  0.00    +0.000 A 
ATOM    101  C   UNL     1      -7.513   4.623 141.001  0.00  0.00    +0.000 A 
ATOM    102  C   UNL     1      -6.693   3.538 141.184  0.00  0.00    +0.000 A 
ATOM    103  C   UNL     1      -5.526   3.459 140.440  0.00  0.00    +0.000 A 
ENDBRANCH  97  98
ENDBRANCH  68  97
ENDBRANCH  64  68
ENDBRANCH  63  66
BRANCH  63 104
ATOM    104  C   UNL     1      -5.995   2.294 134.799  0.00  0.00    +0.000 C 
BRANCH 104 105
ATOM    105  C   UNL     1      -6.491   3.705 134.981  0.00  0.00    +0.000 C 
BRANCH 105 106
ATOM    106  C   UNL     1      -7.866   4.003 134.495  0.00  0.00    +0.000 C 
ATOM    107  N   UNL     1      -8.343   5.249 134.733  0.00  0.00    +0.000 N 
ATOM    108  O   UNL     1      -8.557   3.139 133.965  0.00  0.00    +0.000 OA
ATOM    109  H   UNL     1      -7.825   5.979 135.201  0.00  0.00    +0.000 HD
ATOM    110  H   UNL     1      -9.291   5.441 134.454  0.00  0.00    +0.000 HD
ENDBRANCH 105 106
ENDBRANCH 104 105
ENDBRANCH  63 104
ENDBRANCH  59  63
ENDBRANCH  58  61
BRANCH  58 111
ATOM    111  C   UNL     1      -1.702  -1.747 135.615  0.00  0.00    +0.000 C 
BRANCH 111 112
ATOM    112  C   UNL     1      -2.279  -2.061 136.962  0.00  0.00    +0.000 C 
ATOM    113  N   UNL     1      -2.679  -3.341 137.185  0.00  0.00    +0.000 N 
ATOM    114  O   UNL     1      -2.424  -1.206 137.828  0.00  0.00    +0.000 OA
ATOM    115  H   UNL     1      -2.099  -4.048 136.726  0.00  0.00    +0.000 HD
ATOM    116  H   UNL     1      -2.512  -3.551 138.168  0.00  0.00    +0.000 HD
ENDBRANCH 111 112
ENDBRANCH  58 111
ENDBRANCH  54  58
ENDBRANCH   1  56
BRANCH   1 117
ATOM    117  C   UNL     1      -6.820  -3.279 133.557  0.00  0.00    +0.000 C 
BRANCH 117 118
ATOM    118  C   UNL     1      -6.966  -2.398 134.764  0.00  0.00    +0.000 C 
BRANCH 118 119
ATOM    119  C   UNL     1      -7.048  -3.182 136.041  0.00  0.00    +0.000 C 
BRANCH 119 120
ATOM    120  N   UNL     1      -8.158  -2.609 136.788  0.00  0.00    +0.000 NA
ATOM    121  C   UNL     1      -9.203  -3.340 136.891  0.00  0.00    +0.000 C 
ATOM    122  N   UNL     1      -9.371  -4.569 136.377  0.00  0.00    +0.000 N 
ATOM    123  N   UNL     1     -10.289  -2.854 137.511  0.00  0.00    +0.000 N 
ATOM    124  H   UNL     1      -8.597  -5.015 135.908  0.00  0.00    +0.000 HD
ATOM    125  H   UNL     1     -10.179  -5.133 136.567  0.00  0.00    +0.000 HD
ATOM    126  H   UNL     1     -10.166  -1.977 138.004  0.00  0.00    +0.000 HD
ATOM    127  H   UNL     1     -11.067  -3.432 137.779  0.00  0.00    +0.000 HD
ENDBRANCH 119 120
ENDBRANCH 118 119
ENDBRANCH 117 118
ENDBRANCH   1 117
TORSDOF 39
ENDMDL
MODEL 8
REMARK VINA RESULT:      -9.3      2.847      5.342
REMARK  Name = CHEMBL412210
REMARK  40 active torsions:
REMARK  status: ('A' for Active; 'I' for Inactive)
REMARK    1  A    between atoms: C_1  and  N_2
REMARK    2  A    between atoms: N_2  and  C_14
REMARK    3  A    between atoms: C_3  and  C_5
REMARK    4  A    between atoms: C_5  and  C_6
REMARK    5  A    between atoms: C_6  and  C_7
REMARK    6  A    between atoms: C_10  and  O_11
REMARK    7  A    between atoms: C_14  and  C_15
REMARK    8  A    between atoms: C_14  and  C_23
REMARK    9  A    between atoms: C_15  and  C_16
REMARK   10  A    between atoms: C_19  and  O_20
REMARK   11  A    between atoms: N_25  and  C_26
REMARK   12  A    between atoms: C_26  and  C_27
REMARK   13  A    between atoms: C_26  and  C_34
REMARK   14  A    between atoms: C_27  and  C_28
REMARK   15  A    between atoms: N_36  and  C_37
REMARK   16  A    between atoms: C_37  and  C_38
REMARK   17  A    between atoms: C_37  and  C_43
REMARK   18  A    between atoms: C_38  and  C_39
REMARK   19  A    between atoms: C_39  and  C_40
REMARK   20  A    between atoms: N_45  and  C_46
REMARK   21  A    between atoms: C_46  and  C_47
REMARK   22  A    between atoms: C_46  and  C_51
REMARK   23  A    between atoms: C_47  and  C_48
REMARK   24  A    between atoms: N_53  and  C_54
REMARK   25  A    between atoms: C_54  and  C_55
REMARK   26  A    between atoms: C_54  and  C_62
REMARK   27  A    between atoms: C_55  and  C_56
REMARK   28  A    between atoms: C_56  and  C_57
REMARK   29  A    between atoms: C_57  and  N_58
REMARK   30  A    between atoms: C_68  and  C_69
REMARK   31  A    between atoms: N_71  and  C_99
REMARK   32  A    between atoms: C_72  and  C_74
REMARK   33  A    between atoms: C_87  and  O_88
REMARK   34  A    between atoms: C_94  and  O_95
REMARK   35  A    between atoms: C_99  and  C_100
REMARK   36  A    between atoms: C_99  and  C_105
REMARK   37  A    between atoms: C_100  and  C_101
REMARK   38  A    between atoms: C_101  and  C_102
REMARK   39  A    between atoms: C_102  and  C_103
REMARK   40  A    between atoms: C_103  and  N_104
REMARK                            x       y       z     vdW  Elec       q    Type
REMARK                         _______ _______ _______ _____ _____    ______ ____
ROOT
ATOM      1  C   UNL     1      -5.001   4.691 136.981  0.00  0.00    +0.000 C 
ENDROOT
BRANCH   1   2
ATOM      2  C   UNL     1      -3.757   5.594 136.514  0.00  0.00    +0.000 C 
ATOM      3  O   UNL     1      -3.788   6.132 135.401  0.00  0.00    +0.000 OA
ATOM      4  N   UNL     1      -2.725   5.904 137.395  0.00  0.00    +0.000 N 
ATOM      5  C   UNL     1      -1.982   4.981 138.266  0.00  0.00    +0.000 C 
ATOM      6  C   UNL     1      -1.904   5.769 139.491  0.00  0.00    +0.000 C 
ATOM      7  C   UNL     1      -1.355   7.037 138.946  0.00  0.00    +0.000 C 
ATOM      8  C   UNL     1      -2.187   7.290 137.628  0.00  0.00    +0.000 C 
BRANCH   8   9
ATOM      9  C   UNL     1      -1.113   7.856 136.705  0.00  0.00    +0.000 C 
ATOM     10  O   UNL     1      -0.279   7.022 136.324  0.00  0.00    +0.000 OA
ATOM     11  N   UNL     1      -0.960   9.298 136.486  0.00  0.00    +0.000 N 
ATOM     12  C   UNL     1      -1.602  10.412 137.144  0.00  0.00    +0.000 C 
ATOM     13  O   UNL     1      -1.116  11.499 137.446  0.00  0.00    +0.000 OA
BRANCH  12  14
ATOM     14  C   UNL     1      -2.687  10.328 138.069  0.00  0.00    +0.000 A 
ATOM     15  C   UNL     1      -2.656  10.382 139.469  0.00  0.00    +0.000 A 
ATOM     16  C   UNL     1      -3.788   9.980 140.193  0.00  0.00    +0.000 A 
ATOM     17  C   UNL     1      -4.926   9.793 139.443  0.00  0.00    +0.000 A 
ATOM     18  C   UNL     1      -4.815   9.662 138.063  0.00  0.00    +0.000 A 
ATOM     19  C   UNL     1      -3.598   9.496 137.533  0.00  0.00    +0.000 A 
ATOM     20  C   UNL     1      -6.137   9.355 137.550  0.00  0.00    +0.000 C 
ATOM     21  O   UNL     1      -7.151   9.922 137.158  0.00  0.00    +0.000 OA
ATOM     22  O   UNL     1      -6.117   8.794 138.729  0.00  0.00    +0.000 OA
ATOM     23  C   UNL     1      -6.388   9.879 139.696  0.00  0.00    +0.000 C 
ATOM     24  C   UNL     1      -7.846   9.184 139.607  0.00  0.00    +0.000 A 
ATOM     25  C   UNL     1      -8.147   7.907 138.909  0.00  0.00    +0.000 A 
ATOM     26  C   UNL     1      -9.147   7.848 137.924  0.00  0.00    +0.000 A 
ATOM     27  C   UNL     1     -10.039   8.903 137.831  0.00  0.00    +0.000 A 
ATOM     28  C   UNL     1      -9.925  10.012 138.676  0.00  0.00    +0.000 A 
ATOM     29  C   UNL     1      -8.850  10.149 139.567  0.00  0.00    +0.000 A 
ATOM     30  O   UNL     1      -8.743  11.312 140.295  0.00  0.00    +0.000 OA
ATOM     31  C   UNL     1      -7.600  12.049 140.126  0.00  0.00    +0.000 A 
ATOM     32  C   UNL     1      -7.500  13.274 140.803  0.00  0.00    +0.000 A 
ATOM     33  C   UNL     1      -6.423  14.137 140.618  0.00  0.00    +0.000 A 
ATOM     34  C   UNL     1      -5.488  13.849 139.650  0.00  0.00    +0.000 A 
ATOM     35  C   UNL     1      -5.546  12.580 139.025  0.00  0.00    +0.000 A 
ATOM     36  C   UNL     1      -6.543  11.577 139.384  0.00  0.00    +0.000 A 
BRANCH  33  37
ATOM     37  O   UNL     1      -6.256  15.266 141.365  0.00  0.00    +0.000 OA
ATOM     38  H   UNL     1      -6.781  15.989 140.982  0.00  0.00    +0.000 HD
ENDBRANCH  33  37
BRANCH  27  39
ATOM     39  O   UNL     1     -11.023   8.918 136.884  0.00  0.00    +0.000 OA
ATOM     40  H   UNL     1     -10.629   9.127 136.021  0.00  0.00    +0.000 HD
ENDBRANCH  27  39
ENDBRANCH  12  14
BRANCH  11  41
ATOM     41  C   UNL     1       0.193   9.609 135.521  0.00  0.00    +0.000 C 
BRANCH  41  42
ATOM     42  C   UNL     1       1.401  10.624 135.779  0.00  0.00    +0.000 C 
ATOM     43  N   UNL     1       2.266  10.412 136.789  0.00  0.00    +0.000 N 
ATOM     44  O   UNL     1       1.562  11.646 135.111  0.00  0.00    +0.000 OA
ATOM     45  H   UNL     1       2.296   9.519 137.247  0.00  0.00    +0.000 HD
ATOM     46  H   UNL     1       3.048  10.982 137.057  0.00  0.00    +0.000 HD
ENDBRANCH  41  42
BRANCH  41  47
ATOM     47  C   UNL     1      -0.378  10.042 134.127  0.00  0.00    +0.000 C 
BRANCH  47  48
ATOM     48  C   UNL     1      -0.907   8.905 133.262  0.00  0.00    +0.000 C 
BRANCH  48  49
ATOM     49  C   UNL     1      -2.402   8.721 133.253  0.00  0.00    +0.000 C 
BRANCH  49  50
ATOM     50  C   UNL     1      -2.785   7.890 132.025  0.00  0.00    +0.000 C 
BRANCH  50  51
ATOM     51  N   UNL     1      -3.404   6.654 132.474  0.00  0.00    +0.000 NA
ATOM     52  H   UNL     1      -3.956   6.854 133.307  0.00  0.00    +0.000 HD
ATOM     53  H   UNL     1      -2.679   6.000 132.756  0.00  0.00    +0.000 HD
ENDBRANCH  50  51
ENDBRANCH  49  50
ENDBRANCH  48  49
ENDBRANCH  47  48
ENDBRANCH  41  47
ENDBRANCH  11  41
ENDBRANCH   8   9
ENDBRANCH   1   2
BRANCH   1  56
ATOM     54  C   UNL     1      -6.951   5.450 135.514  0.00  0.00    +0.000 C 
ATOM     55  O   UNL     1      -6.921   6.619 135.906  0.00  0.00    +0.000 OA
ATOM     56  N   UNL     1      -6.013   4.484 135.893  0.00  0.00    +0.000 N 
ATOM     57  H   UNL     1      -5.877   3.640 135.347  0.00  0.00    +0.000 HD
BRANCH  54  58
ATOM     58  C   UNL     1      -8.092   5.049 134.535  0.00  0.00    +0.000 C 
BRANCH  58  61
ATOM     59  C   UNL     1      -8.885   5.998 132.232  0.00  0.00    +0.000 C 
ATOM     60  O   UNL     1     -10.089   5.825 132.430  0.00  0.00    +0.000 OA
ATOM     61  N   UNL     1      -7.915   5.760 133.195  0.00  0.00    +0.000 N 
ATOM     62  H   UNL     1      -6.977   6.143 133.073  0.00  0.00    +0.000 HD
BRANCH  59  63
ATOM     63  C   UNL     1      -8.577   6.661 130.888  0.00  0.00    +0.000 C 
BRANCH  63  66
ATOM     64  C   UNL     1      -6.751   5.154 129.904  0.00  0.00    +0.000 C 
ATOM     65  O   UNL     1      -5.912   5.540 130.721  0.00  0.00    +0.000 OA
ATOM     66  N   UNL     1      -8.064   5.584 129.961  0.00  0.00    +0.000 N 
ATOM     67  H   UNL     1      -8.782   5.163 129.369  0.00  0.00    +0.000 HD
BRANCH  64  68
ATOM     68  C   UNL     1      -6.312   4.175 128.782  0.00  0.00    +0.000 C 
BRANCH  68  71
ATOM     69  C   UNL     1      -5.466   1.734 128.853  0.00  0.00    +0.000 C 
ATOM     70  O   UNL     1      -4.639   1.883 127.951  0.00  0.00    +0.000 OA
ATOM     71  N   UNL     1      -6.122   2.809 129.426  0.00  0.00    +0.000 N 
ATOM     72  H   UNL     1      -6.154   2.842 130.445  0.00  0.00    +0.000 HD
BRANCH  69  73
ATOM     73  C   UNL     1      -5.462   0.341 129.478  0.00  0.00    +0.000 C 
BRANCH  73  75
ATOM     74  C   UNL     1      -7.671   0.074 128.186  0.00  0.00    +0.000 C 
ATOM     75  N   UNL     1      -6.354  -0.451 128.607  0.00  0.00    +0.000 N 
ATOM     76  C   UNL     1      -5.790  -1.606 128.143  0.00  0.00    +0.000 C 
ATOM     77  O   UNL     1      -4.612  -1.895 128.354  0.00  0.00    +0.000 OA
BRANCH  76  78
ATOM     78  C   UNL     1      -6.636  -2.508 127.334  0.00  0.00    +0.000 C 
BRANCH  78  79
ATOM     79  C   UNL     1      -6.063  -2.432 125.933  0.00  0.00    +0.000 C 
BRANCH  79  80
ATOM     80  C   UNL     1      -7.096  -1.999 124.961  0.00  0.00    +0.000 A 
ATOM     81  C   UNL     1      -8.034  -2.933 124.512  0.00  0.00    +0.000 A 
ATOM     82  C   UNL     1      -9.045  -2.530 123.655  0.00  0.00    +0.000 A 
ATOM     83  C   UNL     1      -9.096  -1.199 123.248  0.00  0.00    +0.000 A 
ATOM     84  C   UNL     1      -8.142  -0.276 123.659  0.00  0.00    +0.000 A 
ATOM     85  C   UNL     1      -7.137  -0.674 124.522  0.00  0.00    +0.000 A 
BRANCH  83  86
ATOM     86  O   UNL     1     -10.087  -0.739 122.435  0.00  0.00    +0.000 OA
ATOM     87  H   UNL     1     -10.671  -0.169 122.959  0.00  0.00    +0.000 HD
ENDBRANCH  83  86
ENDBRANCH  79  80
ENDBRANCH  78  79
ENDBRANCH  76  78
ENDBRANCH  73  75
BRANCH  73  88
ATOM     88  C   UNL     1      -6.078   0.532 130.950  0.00  0.00    +0.000 C 
BRANCH  88  89
ATOM     89  C   UNL     1      -6.343  -0.731 131.724  0.00  0.00    +0.000 A 
ATOM     90  C   UNL     1      -5.354  -1.704 131.888  0.00  0.00    +0.000 A 
ATOM     91  C   UNL     1      -5.594  -2.838 132.647  0.00  0.00    +0.000 A 
ATOM     92  C   UNL     1      -6.842  -3.012 133.228  0.00  0.00    +0.000 A 
ATOM     93  C   UNL     1      -7.855  -2.074 133.057  0.00  0.00    +0.000 A 
ATOM     94  C   UNL     1      -7.607  -0.927 132.307  0.00  0.00    +0.000 A 
BRANCH  92  95
ATOM     95  O   UNL     1      -7.093  -4.085 134.030  0.00  0.00    +0.000 OA
ATOM     96  H   UNL     1      -7.720  -3.798 134.714  0.00  0.00    +0.000 HD
ENDBRANCH  92  95
ENDBRANCH  88  89
ENDBRANCH  73  88
ENDBRANCH  69  73
ENDBRANCH  68  71
BRANCH  68  97
ATOM     97  C   UNL     1      -7.464   4.188 127.743  0.00  0.00    +0.000 C 
BRANCH  97  98
ATOM     98  C   UNL     1      -7.076   4.141 126.287  0.00  0.00    +0.000 A 
ATOM     99  C   UNL     1      -7.928   3.689 125.293  0.00  0.00    +0.000 A 
ATOM    100  C   UNL     1      -7.416   3.375 124.025  0.00  0.00    +0.000 A 
ATOM    101  C   UNL     1      -6.053   3.479 123.758  0.00  0.00    +0.000 A 
ATOM    102  C   UNL     1      -5.237   4.030 124.714  0.00  0.00    +0.000 A 
ATOM    103  C   UNL     1      -5.818   4.529 125.870  0.00  0.00    +0.000 A 
ENDBRANCH  97  98
ENDBRANCH  68  97
ENDBRANCH  64  68
ENDBRANCH  63  66
BRANCH  63 104
ATOM    104  C   UNL     1      -9.946   7.146 130.435  0.00  0.00    +0.000 C 
BRANCH 104 105
ATOM    105  C   UNL     1     -10.294   6.605 129.072  0.00  0.00    +0.000 C 
BRANCH 105 106
ATOM    106  C   UNL     1     -11.275   7.383 128.268  0.00  0.00    +0.000 C 
ATOM    107  N   UNL     1     -11.065   8.718 128.167  0.00  0.00    +0.000 N 
ATOM    108  O   UNL     1     -12.265   6.848 127.779  0.00  0.00    +0.000 OA
ATOM    109  H   UNL     1     -10.287   9.206 128.586  0.00  0.00    +0.000 HD
ATOM    110  H   UNL     1     -11.755   9.257 127.669  0.00  0.00    +0.000 HD
ENDBRANCH 105 106
ENDBRANCH 104 105
ENDBRANCH  63 104
ENDBRANCH  59  63
ENDBRANCH  58  61
BRANCH  58 111
ATOM    111  C   UNL     1      -7.939   3.539 134.418  0.00  0.00    +0.000 C 
BRANCH 111 112
ATOM    112  C   UNL     1      -8.345   2.933 133.109  0.00  0.00    +0.000 C 
ATOM    113  N   UNL     1      -9.652   2.583 132.965  0.00  0.00    +0.000 N 
ATOM    114  O   UNL     1      -7.543   2.721 132.208  0.00  0.00    +0.000 OA
ATOM    115  H   UNL     1     -10.309   3.209 133.437  0.00  0.00    +0.000 HD
ATOM    116  H   UNL     1      -9.904   2.727 131.988  0.00  0.00    +0.000 HD
ENDBRANCH 111 112
ENDBRANCH  58 111
ENDBRANCH  54  58
ENDBRANCH   1  56
BRANCH   1 117
ATOM    117  C   UNL     1      -4.537   3.343 137.508  0.00  0.00    +0.000 C 
BRANCH 117 118
ATOM    118  C   UNL     1      -4.824   2.150 136.642  0.00  0.00    +0.000 C 
BRANCH 118 119
ATOM    119  C   UNL     1      -3.818   1.985 135.540  0.00  0.00    +0.000 C 
BRANCH 119 120
ATOM    120  N   UNL     1      -4.521   2.319 134.310  0.00  0.00    +0.000 NA
ATOM    121  C   UNL     1      -3.941   3.161 133.541  0.00  0.00    +0.000 C 
ATOM    122  N   UNL     1      -2.761   3.763 133.763  0.00  0.00    +0.000 N 
ATOM    123  N   UNL     1      -4.558   3.565 132.420  0.00  0.00    +0.000 N 
ATOM    124  H   UNL     1      -2.224   3.504 134.578  0.00  0.00    +0.000 HD
ATOM    125  H   UNL     1      -2.310   4.346 133.083  0.00  0.00    +0.000 HD
ATOM    126  H   UNL     1      -5.395   3.056 132.164  0.00  0.00    +0.000 HD
ATOM    127  H   UNL     1      -4.087   4.078 131.696  0.00  0.00    +0.000 HD
ENDBRANCH 119 120
ENDBRANCH 118 119
ENDBRANCH 117 118
ENDBRANCH   1 117
TORSDOF 39
ENDMDL
MODEL 9
REMARK VINA RESULT:      -9.3      4.240      8.595
REMARK  Name = CHEMBL412210
REMARK  40 active torsions:
REMARK  status: ('A' for Active; 'I' for Inactive)
REMARK    1  A    between atoms: C_1  and  N_2
REMARK    2  A    between atoms: N_2  and  C_14
REMARK    3  A    between atoms: C_3  and  C_5
REMARK    4  A    between atoms: C_5  and  C_6
REMARK    5  A    between atoms: C_6  and  C_7
REMARK    6  A    between atoms: C_10  and  O_11
REMARK    7  A    between atoms: C_14  and  C_15
REMARK    8  A    between atoms: C_14  and  C_23
REMARK    9  A    between atoms: C_15  and  C_16
REMARK   10  A    between atoms: C_19  and  O_20
REMARK   11  A    between atoms: N_25  and  C_26
REMARK   12  A    between atoms: C_26  and  C_27
REMARK   13  A    between atoms: C_26  and  C_34
REMARK   14  A    between atoms: C_27  and  C_28
REMARK   15  A    between atoms: N_36  and  C_37
REMARK   16  A    between atoms: C_37  and  C_38
REMARK   17  A    between atoms: C_37  and  C_43
REMARK   18  A    between atoms: C_38  and  C_39
REMARK   19  A    between atoms: C_39  and  C_40
REMARK   20  A    between atoms: N_45  and  C_46
REMARK   21  A    between atoms: C_46  and  C_47
REMARK   22  A    between atoms: C_46  and  C_51
REMARK   23  A    between atoms: C_47  and  C_48
REMARK   24  A    between atoms: N_53  and  C_54
REMARK   25  A    between atoms: C_54  and  C_55
REMARK   26  A    between atoms: C_54  and  C_62
REMARK   27  A    between atoms: C_55  and  C_56
REMARK   28  A    between atoms: C_56  and  C_57
REMARK   29  A    between atoms: C_57  and  N_58
REMARK   30  A    between atoms: C_68  and  C_69
REMARK   31  A    between atoms: N_71  and  C_99
REMARK   32  A    between atoms: C_72  and  C_74
REMARK   33  A    between atoms: C_87  and  O_88
REMARK   34  A    between atoms: C_94  and  O_95
REMARK   35  A    between atoms: C_99  and  C_100
REMARK   36  A    between atoms: C_99  and  C_105
REMARK   37  A    between atoms: C_100  and  C_101
REMARK   38  A    between atoms: C_101  and  C_102
REMARK   39  A    between atoms: C_102  and  C_103
REMARK   40  A    between atoms: C_103  and  N_104
REMARK                            x       y       z     vdW  Elec       q    Type
REMARK                         _______ _______ _______ _____ _____    ______ ____
ROOT
ATOM      1  C   UNL     1      -5.137   1.966 136.537  0.00  0.00    +0.000 C 
ENDROOT
BRANCH   1   2
ATOM      2  C   UNL     1      -4.361   3.357 136.321  0.00  0.00    +0.000 C 
ATOM      3  O   UNL     1      -3.125   3.367 136.344  0.00  0.00    +0.000 OA
ATOM      4  N   UNL     1      -5.047   4.512 135.956  0.00  0.00    +0.000 N 
ATOM      5  C   UNL     1      -6.269   5.059 136.567  0.00  0.00    +0.000 C 
ATOM      6  C   UNL     1      -7.011   5.459 135.375  0.00  0.00    +0.000 C 
ATOM      7  C   UNL     1      -5.975   6.272 134.689  0.00  0.00    +0.000 C 
ATOM      8  C   UNL     1      -4.653   5.419 134.822  0.00  0.00    +0.000 C 
BRANCH   8   9
ATOM      9  C   UNL     1      -3.616   6.514 135.047  0.00  0.00    +0.000 C 
ATOM     10  O   UNL     1      -3.543   6.912 136.219  0.00  0.00    +0.000 OA
ATOM     11  N   UNL     1      -2.942   7.184 133.930  0.00  0.00    +0.000 N 
ATOM     12  C   UNL     1      -3.188   7.102 132.510  0.00  0.00    +0.000 C 
ATOM     13  O   UNL     1      -3.128   8.000 131.675  0.00  0.00    +0.000 OA
BRANCH  12  14
ATOM     14  C   UNL     1      -4.070   6.183 131.864  0.00  0.00    +0.000 A 
ATOM     15  C   UNL     1      -3.762   5.003 131.175  0.00  0.00    +0.000 A 
ATOM     16  C   UNL     1      -4.739   4.412 130.361  0.00  0.00    +0.000 A 
ATOM     17  C   UNL     1      -6.008   4.924 130.504  0.00  0.00    +0.000 A 
ATOM     18  C   UNL     1      -6.176   6.154 131.129  0.00  0.00    +0.000 A 
ATOM     19  C   UNL     1      -5.093   6.903 131.367  0.00  0.00    +0.000 A 
ATOM     20  C   UNL     1      -7.581   6.500 131.032  0.00  0.00    +0.000 C 
ATOM     21  O   UNL     1      -8.636   6.339 131.635  0.00  0.00    +0.000 OA
ATOM     22  O   UNL     1      -7.344   5.828 129.938  0.00  0.00    +0.000 OA
ATOM     23  C   UNL     1      -7.387   4.402 130.324  0.00  0.00    +0.000 C 
ATOM     24  C   UNL     1      -8.853   4.579 129.664  0.00  0.00    +0.000 A 
ATOM     25  C   UNL     1      -9.323   5.780 128.927  0.00  0.00    +0.000 A 
ATOM     26  C   UNL     1     -10.500   6.444 129.314  0.00  0.00    +0.000 A 
ATOM     27  C   UNL     1     -11.361   5.797 130.182  0.00  0.00    +0.000 A 
ATOM     28  C   UNL     1     -11.052   4.529 130.685  0.00  0.00    +0.000 A 
ATOM     29  C   UNL     1      -9.818   3.916 130.419  0.00  0.00    +0.000 A 
ATOM     30  O   UNL     1      -9.536   2.715 131.029  0.00  0.00    +0.000 OA
ATOM     31  C   UNL     1      -8.429   2.670 131.836  0.00  0.00    +0.000 A 
ATOM     32  C   UNL     1      -8.162   1.477 132.523  0.00  0.00    +0.000 A 
ATOM     33  C   UNL     1      -7.118   1.367 133.439  0.00  0.00    +0.000 A 
ATOM     34  C   UNL     1      -6.402   2.491 133.782  0.00  0.00    +0.000 A 
ATOM     35  C   UNL     1      -6.618   3.673 133.032  0.00  0.00    +0.000 A 
ATOM     36  C   UNL     1      -7.553   3.728 131.913  0.00  0.00    +0.000 A 
BRANCH  33  37
ATOM     37  O   UNL     1      -6.774   0.179 134.014  0.00  0.00    +0.000 OA
ATOM     38  H   UNL     1      -7.114  -0.554 133.473  0.00  0.00    +0.000 HD
ENDBRANCH  33  37
BRANCH  27  39
ATOM     39  O   UNL     1     -12.512   6.392 130.613  0.00  0.00    +0.000 OA
ATOM     40  H   UNL     1     -12.420   6.618 131.554  0.00  0.00    +0.000 HD
ENDBRANCH  27  39
ENDBRANCH  12  14
BRANCH  11  41
ATOM     41  C   UNL     1      -1.949   8.249 134.421  0.00  0.00    +0.000 C 
BRANCH  41  42
ATOM     42  C   UNL     1      -2.129   9.834 134.319  0.00  0.00    +0.000 C 
ATOM     43  N   UNL     1      -2.737  10.517 135.308  0.00  0.00    +0.000 N 
ATOM     44  O   UNL     1      -1.771  10.480 133.333  0.00  0.00    +0.000 OA
ATOM     45  H   UNL     1      -2.885  10.083 136.201  0.00  0.00    +0.000 HD
ATOM     46  H   UNL     1      -2.919  11.504 135.350  0.00  0.00    +0.000 HD
ENDBRANCH  41  42
BRANCH  41  47
ATOM     47  C   UNL     1      -0.533   7.985 133.803  0.00  0.00    +0.000 C 
BRANCH  47  48
ATOM     48  C   UNL     1       0.400   7.140 134.660  0.00  0.00    +0.000 C 
BRANCH  48  49
ATOM     49  C   UNL     1       1.098   7.859 135.785  0.00  0.00    +0.000 C 
BRANCH  49  50
ATOM     50  C   UNL     1       1.617   6.819 136.782  0.00  0.00    +0.000 C 
BRANCH  50  51
ATOM     51  N   UNL     1       2.988   6.484 136.434  0.00  0.00    +0.000 NA
ATOM     52  H   UNL     1       3.038   6.337 135.426  0.00  0.00    +0.000 HD
ATOM     53  H   UNL     1       3.237   5.599 136.869  0.00  0.00    +0.000 HD
ENDBRANCH  50  51
ENDBRANCH  49  50
ENDBRANCH  48  49
ENDBRANCH  47  48
ENDBRANCH  41  47
ENDBRANCH  11  41
ENDBRANCH   8   9
ENDBRANCH   1   2
BRANCH   1  56
ATOM     54  C   UNL     1      -4.769  -0.545 136.240  0.00  0.00    +0.000 C 
ATOM     55  O   UNL     1      -5.952  -0.841 136.423  0.00  0.00    +0.000 OA
ATOM     56  N   UNL     1      -4.304   0.773 136.175  0.00  0.00    +0.000 N 
ATOM     57  H   UNL     1      -3.415   0.996 135.739  0.00  0.00    +0.000 HD
BRANCH  54  58
ATOM     58  C   UNL     1      -3.755  -1.711 136.060  0.00  0.00    +0.000 C 
BRANCH  58  61
ATOM     59  C   UNL     1      -5.121  -3.856 135.455  0.00  0.00    +0.000 C 
ATOM     60  O   UNL     1      -5.637  -3.997 136.565  0.00  0.00    +0.000 OA
ATOM     61  N   UNL     1      -4.326  -2.770 135.119  0.00  0.00    +0.000 N 
ATOM     62  H   UNL     1      -4.126  -2.573 134.137  0.00  0.00    +0.000 HD
BRANCH  59  63
ATOM     63  C   UNL     1      -5.579  -4.899 134.433  0.00  0.00    +0.000 C 
BRANCH  63  66
ATOM     64  C   UNL     1      -5.853  -3.847 132.111  0.00  0.00    +0.000 C 
ATOM     65  O   UNL     1      -7.013  -3.497 132.343  0.00  0.00    +0.000 OA
ATOM     66  N   UNL     1      -5.075  -4.455 133.080  0.00  0.00    +0.000 N 
ATOM     67  H   UNL     1      -4.080  -4.621 132.927  0.00  0.00    +0.000 HD
BRANCH  64  68
ATOM     68  C   UNL     1      -5.266  -3.608 130.694  0.00  0.00    +0.000 C 
BRANCH  68  71
ATOM     69  C   UNL     1      -7.067  -2.883 128.989  0.00  0.00    +0.000 C 
ATOM     70  O   UNL     1      -7.520  -4.018 128.825  0.00  0.00    +0.000 OA
ATOM     71  N   UNL     1      -6.165  -2.596 129.998  0.00  0.00    +0.000 N 
ATOM     72  H   UNL     1      -6.356  -1.774 130.570  0.00  0.00    +0.000 HD
BRANCH  69  73
ATOM     73  C   UNL     1      -7.812  -1.798 128.215  0.00  0.00    +0.000 C 
BRANCH  73  75
ATOM     74  C   UNL     1      -5.800  -1.714 126.614  0.00  0.00    +0.000 C 
ATOM     75  N   UNL     1      -7.250  -1.875 126.851  0.00  0.00    +0.000 N 
ATOM     76  C   UNL     1      -8.162  -2.234 125.898  0.00  0.00    +0.000 C 
ATOM     77  O   UNL     1      -9.315  -2.563 126.180  0.00  0.00    +0.000 OA
BRANCH  76  78
ATOM     78  C   UNL     1      -7.714  -2.253 124.490  0.00  0.00    +0.000 C 
BRANCH  78  79
ATOM     79  C   UNL     1      -8.866  -1.662 123.704  0.00  0.00    +0.000 C 
BRANCH  79  80
ATOM     80  C   UNL     1      -8.636  -0.223 123.427  0.00  0.00    +0.000 A 
ATOM     81  C   UNL     1      -9.726   0.581 123.083  0.00  0.00    +0.000 A 
ATOM     82  C   UNL     1      -9.539   1.939 122.884  0.00  0.00    +0.000 A 
ATOM     83  C   UNL     1      -8.260   2.473 123.020  0.00  0.00    +0.000 A 
ATOM     84  C   UNL     1      -7.166   1.671 123.320  0.00  0.00    +0.000 A 
ATOM     85  C   UNL     1      -7.352   0.315 123.528  0.00  0.00    +0.000 A 
BRANCH  83  86
ATOM     86  O   UNL     1      -8.024   3.806 122.871  0.00  0.00    +0.000 OA
ATOM     87  H   UNL     1      -8.312   4.258 123.679  0.00  0.00    +0.000 HD
ENDBRANCH  83  86
ENDBRANCH  79  80
ENDBRANCH  78  79
ENDBRANCH  76  78
ENDBRANCH  73  75
BRANCH  73  88
ATOM     88  C   UNL     1      -7.430  -0.417 128.942  0.00  0.00    +0.000 C 
BRANCH  88  89
ATOM     89  C   UNL     1      -7.479   0.818 128.083  0.00  0.00    +0.000 A 
ATOM     90  C   UNL     1      -8.635   1.170 127.383  0.00  0.00    +0.000 A 
ATOM     91  C   UNL     1      -8.685   2.337 126.637  0.00  0.00    +0.000 A 
ATOM     92  C   UNL     1      -7.559   3.147 126.573  0.00  0.00    +0.000 A 
ATOM     93  C   UNL     1      -6.385   2.806 127.236  0.00  0.00    +0.000 A 
ATOM     94  C   UNL     1      -6.342   1.641 127.999  0.00  0.00    +0.000 A 
BRANCH  92  95
ATOM     95  O   UNL     1      -7.592   4.332 125.899  0.00  0.00    +0.000 OA
ATOM     96  H   UNL     1      -7.225   4.175 125.014  0.00  0.00    +0.000 HD
ENDBRANCH  92  95
ENDBRANCH  88  89
ENDBRANCH  73  88
ENDBRANCH  69  73
ENDBRANCH  68  71
BRANCH  68  97
ATOM     97  C   UNL     1      -3.829  -3.068 130.924  0.00  0.00    +0.000 C 
BRANCH  97  98
ATOM     98  C   UNL     1      -3.674  -1.578 131.097  0.00  0.00    +0.000 A 
ATOM     99  C   UNL     1      -3.517  -0.975 132.333  0.00  0.00    +0.000 A 
ATOM    100  C   UNL     1      -3.692   0.412 132.460  0.00  0.00    +0.000 A 
ATOM    101  C   UNL     1      -4.056   1.190 131.363  0.00  0.00    +0.000 A 
ATOM    102  C   UNL     1      -4.102   0.599 130.125  0.00  0.00    +0.000 A 
ATOM    103  C   UNL     1      -3.709  -0.725 130.011  0.00  0.00    +0.000 A 
ENDBRANCH  97  98
ENDBRANCH  68  97
ENDBRANCH  64  68
ENDBRANCH  63  66
BRANCH  63 104
ATOM    104  C   UNL     1      -4.848  -6.153 134.887  0.00  0.00    +0.000 C 
BRANCH 104 105
ATOM    105  C   UNL     1      -3.745  -6.520 133.929  0.00  0.00    +0.000 C 
BRANCH 105 106
ATOM    106  C   UNL     1      -2.429  -5.856 134.129  0.00  0.00    +0.000 C 
ATOM    107  N   UNL     1      -1.526  -6.504 134.905  0.00  0.00    +0.000 N 
ATOM    108  O   UNL     1      -2.200  -4.742 133.669  0.00  0.00    +0.000 OA
ATOM    109  H   UNL     1      -1.685  -7.403 135.337  0.00  0.00    +0.000 HD
ATOM    110  H   UNL     1      -0.654  -6.035 135.087  0.00  0.00    +0.000 HD
ENDBRANCH 105 106
ENDBRANCH 104 105
ENDBRANCH  63 104
ENDBRANCH  59  63
ENDBRANCH  58  61
BRANCH  58 111
ATOM    111  C   UNL     1      -2.526  -1.022 135.485  0.00  0.00    +0.000 C 
BRANCH 111 112
ATOM    112  C   UNL     1      -1.251  -1.808 135.518  0.00  0.00    +0.000 C 
ATOM    113  N   UNL     1      -0.185  -1.295 134.848  0.00  0.00    +0.000 N 
ATOM    114  O   UNL     1      -1.161  -2.888 136.091  0.00  0.00    +0.000 OA
ATOM    115  H   UNL     1      -0.129  -0.274 134.867  0.00  0.00    +0.000 HD
ATOM    116  H   UNL     1       0.657  -1.553 135.360  0.00  0.00    +0.000 HD
ENDBRANCH 111 112
ENDBRANCH  58 111
ENDBRANCH  54  58
ENDBRANCH   1  56
BRANCH   1 117
ATOM    117  C   UNL     1      -5.633   1.828 137.967  0.00  0.00    +0.000 C 
BRANCH 117 118
ATOM    118  C   UNL     1      -4.724   2.348 139.043  0.00  0.00    +0.000 C 
BRANCH 118 119
ATOM    119  C   UNL     1      -3.899   1.264 139.673  0.00  0.00    +0.000 C 
BRANCH 119 120
ATOM    120  N   UNL     1      -2.591   1.344 139.040  0.00  0.00    +0.000 NA
ATOM    121  C   UNL     1      -1.954   0.240 138.925  0.00  0.00    +0.000 C 
ATOM    122  N   UNL     1      -2.371  -0.969 139.333  0.00  0.00    +0.000 N 
ATOM    123  N   UNL     1      -0.715   0.244 138.409  0.00  0.00    +0.000 N 
ATOM    124  H   UNL     1      -3.300  -1.063 139.719  0.00  0.00    +0.000 HD
ATOM    125  H   UNL     1      -1.869  -1.815 139.136  0.00  0.00    +0.000 HD
ATOM    126  H   UNL     1      -0.408   1.115 137.992  0.00  0.00    +0.000 HD
ATOM    127  H   UNL     1      -0.239  -0.596 138.131  0.00  0.00    +0.000 HD
ENDBRANCH 119 120
ENDBRANCH 118 119
ENDBRANCH 117 118
ENDBRANCH   1 117
TORSDOF 39
ENDMDL
