MODEL 1
REMARK VINA RESULT:     -10.4      0.000      0.000
REMARK  Name = CHEMBL31213
REMARK  7 active torsions:
REMARK  status: ('A' for Active; 'I' for Inactive)
REMARK    1  A    between atoms: C_1  and  N_2
REMARK    2  A    between atoms: N_2  and  C_3
REMARK    3  A    between atoms: C_3  and  C_4
REMARK    4  A    between atoms: C_8  and  C_9
REMARK    5  A    between atoms: C_14  and  N_15
REMARK    6  A    between atoms: C_32  and  C_34
REMARK    7  A    between atoms: C_34  and  N_35
REMARK                            x       y       z     vdW  Elec       q    Type
REMARK                         _______ _______ _______ _____ _____    ______ ____
ROOT
ATOM      1  C   UNL     1      -9.285   4.195 132.464  0.00  0.00    +0.000 A 
ATOM      2  C   UNL     1      -9.669   3.145 131.652  0.00  0.00    +0.000 A 
ATOM      3  C   UNL     1      -8.822   2.052 131.948  0.00  0.00    +0.000 A 
ATOM      4  C   UNL     1      -8.666   0.745 131.446  0.00  0.00    +0.000 A 
ATOM      5  C   UNL     1      -7.697  -0.102 132.015  0.00  0.00    +0.000 A 
ATOM      6  C   UNL     1      -6.869   0.394 133.036  0.00  0.00    +0.000 A 
ATOM      7  C   UNL     1      -7.008   1.692 133.552  0.00  0.00    +0.000 A 
ATOM      8  C   UNL     1      -7.990   2.491 132.974  0.00  0.00    +0.000 A 
ATOM      9  O   UNL     1      -8.271   3.793 133.291  0.00  0.00    +0.000 OA
ENDROOT
BRANCH   5  10
ATOM     10  C   UNL     1      -7.537  -1.488 131.448  0.00  0.00    +0.000 C 
ATOM     11  O   UNL     1      -7.582  -2.470 132.184  0.00  0.00    +0.000 OA
ATOM     12  N   UNL     1      -7.405  -1.613 130.076  0.00  0.00    +0.000 N 
ATOM     13  C   UNL     1      -8.363  -2.412 129.316  0.00  0.00    +0.000 C 
ATOM     14  C   UNL     1      -7.662  -3.423 128.428  0.00  0.00    +0.000 C 
ATOM     15  C   UNL     1      -6.589  -2.748 127.546  0.00  0.00    +0.000 C 
ATOM     16  C   UNL     1      -5.604  -1.968 128.428  0.00  0.00    +0.000 C 
ATOM     17  C   UNL     1      -6.301  -0.990 129.358  0.00  0.00    +0.000 C 
BRANCH  15  18
ATOM     18  N   UNL     1      -7.177  -1.991 126.390  0.00  0.00    +0.000 N 
ATOM     19  C   UNL     1      -8.230  -1.083 126.500  0.00  0.00    +0.000 C 
ATOM     20  O   UNL     1      -8.373  -0.181 127.317  0.00  0.00    +0.000 OA
ATOM     21  O   UNL     1      -9.230  -1.313 125.615  0.00  0.00    +0.000 OA
ATOM     22  C   UNL     1      -8.799  -1.016 124.306  0.00  0.00    +0.000 C 
ATOM     23  C   UNL     1      -7.506  -1.705 124.005  0.00  0.00    +0.000 A 
ATOM     24  C   UNL     1      -7.088  -1.805 122.676  0.00  0.00    +0.000 A 
ATOM     25  C   UNL     1      -5.878  -2.415 122.379  0.00  0.00    +0.000 A 
ATOM     26  C   UNL     1      -5.084  -2.915 123.407  0.00  0.00    +0.000 A 
ATOM     27  C   UNL     1      -5.498  -2.817 124.739  0.00  0.00    +0.000 A 
ATOM     28  C   UNL     1      -6.717  -2.214 125.054  0.00  0.00    +0.000 A 
ENDBRANCH  15  18
ENDBRANCH   5  10
BRANCH   1  29
ATOM     29  C   UNL     1      -9.727   5.620 132.512  0.00  0.00    +0.000 C 
BRANCH  29  31
ATOM     30  C   UNL     1      -7.793   6.834 131.349  0.00  0.00    +0.000 C 
ATOM     31  N   UNL     1      -9.204   6.446 131.405  0.00  0.00    +0.000 N 
ATOM     32  C   UNL     1      -9.995   6.941 130.360  0.00  0.00    +0.000 C 
ATOM     33  O   UNL     1      -9.500   7.663 129.487  0.00  0.00    +0.000 OA
BRANCH  32  34
ATOM     34  C   UNL     1     -11.491   6.566 130.318  0.00  0.00    +0.000 C 
BRANCH  34  35
ATOM     35  N   UNL     1     -12.216   7.514 129.482  0.00  0.00    +0.000 N 
ATOM     36  C   UNL     1     -12.802   8.676 129.898  0.00  0.00    +0.000 C 
ATOM     37  O   UNL     1     -12.893   9.079 131.049  0.00  0.00    +0.000 OA
ATOM     38  C   UNL     1     -13.358   9.404 128.677  0.00  0.00    +0.000 C 
ATOM     39  N   UNL     1     -13.012   8.476 127.640  0.00  0.00    +0.000 N 
ATOM     40  C   UNL     1     -12.330   7.385 128.131  0.00  0.00    +0.000 C 
ATOM     41  O   UNL     1     -11.919   6.470 127.437  0.00  0.00    +0.000 OA
ATOM     42  H   UNL     1     -13.137   8.609 126.645  0.00  0.00    +0.000 HD
ENDBRANCH  34  35
ENDBRANCH  32  34
ENDBRANCH  29  31
ENDBRANCH   1  29
TORSDOF 6
ENDMDL
MODEL 2
REMARK VINA RESULT:     -10.3      0.796      1.389
REMARK  Name = CHEMBL31213
REMARK  7 active torsions:
REMARK  status: ('A' for Active; 'I' for Inactive)
REMARK    1  A    between atoms: C_1  and  N_2
REMARK    2  A    between atoms: N_2  and  C_3
REMARK    3  A    between atoms: C_3  and  C_4
REMARK    4  A    between atoms: C_8  and  C_9
REMARK    5  A    between atoms: C_14  and  N_15
REMARK    6  A    between atoms: C_32  and  C_34
REMARK    7  A    between atoms: C_34  and  N_35
REMARK                            x       y       z     vdW  Elec       q    Type
REMARK                         _______ _______ _______ _____ _____    ______ ____
ROOT
ATOM      1  C   UNL     1      -8.999   3.800 132.747  0.00  0.00    +0.000 A 
ATOM      2  C   UNL     1      -9.456   2.803 131.906  0.00  0.00    +0.000 A 
ATOM      3  C   UNL     1      -8.640   1.668 132.118  0.00  0.00    +0.000 A 
ATOM      4  C   UNL     1      -8.554   0.379 131.553  0.00  0.00    +0.000 A 
ATOM      5  C   UNL     1      -7.598  -0.527 132.043  0.00  0.00    +0.000 A 
ATOM      6  C   UNL     1      -6.712  -0.109 133.050  0.00  0.00    +0.000 A 
ATOM      7  C   UNL     1      -6.780   1.168 133.629  0.00  0.00    +0.000 A 
ATOM      8  C   UNL     1      -7.753   2.028 133.127  0.00  0.00    +0.000 A 
ATOM      9  O   UNL     1      -7.970   3.323 133.513  0.00  0.00    +0.000 OA
ENDROOT
BRANCH   5  10
ATOM     10  C   UNL     1      -7.513  -1.891 131.410  0.00  0.00    +0.000 C 
ATOM     11  O   UNL     1      -7.602  -2.903 132.098  0.00  0.00    +0.000 OA
ATOM     12  N   UNL     1      -7.399  -1.957 130.031  0.00  0.00    +0.000 N 
ATOM     13  C   UNL     1      -8.403  -2.669 129.245  0.00  0.00    +0.000 C 
ATOM     14  C   UNL     1      -7.763  -3.670 128.302  0.00  0.00    +0.000 C 
ATOM     15  C   UNL     1      -6.664  -3.009 127.442  0.00  0.00    +0.000 C 
ATOM     16  C   UNL     1      -5.633  -2.323 128.349  0.00  0.00    +0.000 C 
ATOM     17  C   UNL     1      -6.271  -1.357 129.332  0.00  0.00    +0.000 C 
BRANCH  15  18
ATOM     18  N   UNL     1      -7.222  -2.168 126.330  0.00  0.00    +0.000 N 
ATOM     19  C   UNL     1      -8.259  -1.248 126.485  0.00  0.00    +0.000 C 
ATOM     20  O   UNL     1      -8.395  -0.396 127.356  0.00  0.00    +0.000 OA
ATOM     21  O   UNL     1      -9.252  -1.401 125.576  0.00  0.00    +0.000 OA
ATOM     22  C   UNL     1      -8.798  -1.031 124.293  0.00  0.00    +0.000 C 
ATOM     23  C   UNL     1      -7.515  -1.725 123.964  0.00  0.00    +0.000 A 
ATOM     24  C   UNL     1      -7.082  -1.749 122.636  0.00  0.00    +0.000 A 
ATOM     25  C   UNL     1      -5.881  -2.363 122.315  0.00  0.00    +0.000 A 
ATOM     26  C   UNL     1      -5.110  -2.944 123.318  0.00  0.00    +0.000 A 
ATOM     27  C   UNL     1      -5.539  -2.922 124.649  0.00  0.00    +0.000 A 
ATOM     28  C   UNL     1      -6.750  -2.315 124.988  0.00  0.00    +0.000 A 
ENDBRANCH  15  18
ENDBRANCH   5  10
BRANCH   1  29
ATOM     29  C   UNL     1      -9.385   5.236 132.876  0.00  0.00    +0.000 C 
BRANCH  29  31
ATOM     30  C   UNL     1      -7.201   6.443 132.291  0.00  0.00    +0.000 C 
ATOM     31  N   UNL     1      -8.606   6.145 132.009  0.00  0.00    +0.000 N 
ATOM     32  C   UNL     1      -9.139   6.802 130.893  0.00  0.00    +0.000 C 
ATOM     33  O   UNL     1      -8.442   7.583 130.234  0.00  0.00    +0.000 OA
BRANCH  32  34
ATOM     34  C   UNL     1     -10.606   6.532 130.500  0.00  0.00    +0.000 C 
BRANCH  34  35
ATOM     35  N   UNL     1     -10.948   7.295 129.307  0.00  0.00    +0.000 N 
ATOM     36  C   UNL     1     -10.513   7.048 128.036  0.00  0.00    +0.000 C 
ATOM     37  O   UNL     1      -9.700   6.201 127.692  0.00  0.00    +0.000 OA
ATOM     38  C   UNL     1     -11.198   8.028 127.087  0.00  0.00    +0.000 C 
ATOM     39  N   UNL     1     -11.980   8.787 128.018  0.00  0.00    +0.000 N 
ATOM     40  C   UNL     1     -11.832   8.332 129.309  0.00  0.00    +0.000 C 
ATOM     41  O   UNL     1     -12.410   8.810 130.271  0.00  0.00    +0.000 OA
ATOM     42  H   UNL     1     -12.654   9.507 127.793  0.00  0.00    +0.000 HD
ENDBRANCH  34  35
ENDBRANCH  32  34
ENDBRANCH  29  31
ENDBRANCH   1  29
TORSDOF 6
ENDMDL
MODEL 3
REMARK VINA RESULT:      -9.8      1.660      2.004
REMARK  Name = CHEMBL31213
REMARK  7 active torsions:
REMARK  status: ('A' for Active; 'I' for Inactive)
REMARK    1  A    between atoms: C_1  and  N_2
REMARK    2  A    between atoms: N_2  and  C_3
REMARK    3  A    between atoms: C_3  and  C_4
REMARK    4  A    between atoms: C_8  and  C_9
REMARK    5  A    between atoms: C_14  and  N_15
REMARK    6  A    between atoms: C_32  and  C_34
REMARK    7  A    between atoms: C_34  and  N_35
REMARK                            x       y       z     vdW  Elec       q    Type
REMARK                         _______ _______ _______ _____ _____    ______ ____
ROOT
ATOM      1  C   UNL     1      -8.274   3.280 133.259  0.00  0.00    +0.000 A 
ATOM      2  C   UNL     1      -8.832   2.511 132.255  0.00  0.00    +0.000 A 
ATOM      3  C   UNL     1      -8.102   1.301 132.197  0.00  0.00    +0.000 A 
ATOM      4  C   UNL     1      -8.134   0.154 131.379  0.00  0.00    +0.000 A 
ATOM      5  C   UNL     1      -7.238  -0.900 131.632  0.00  0.00    +0.000 A 
ATOM      6  C   UNL     1      -6.292  -0.761 132.662  0.00  0.00    +0.000 A 
ATOM      7  C   UNL     1      -6.243   0.372 133.489  0.00  0.00    +0.000 A 
ATOM      8  C   UNL     1      -7.159   1.383 133.216  0.00  0.00    +0.000 A 
ATOM      9  O   UNL     1      -7.263   2.584 133.865  0.00  0.00    +0.000 OA
ENDROOT
BRANCH   5  10
ATOM     10  C   UNL     1      -7.279  -2.107 130.733  0.00  0.00    +0.000 C 
ATOM     11  O   UNL     1      -7.544  -3.215 131.191  0.00  0.00    +0.000 OA
ATOM     12  N   UNL     1      -7.074  -1.910 129.378  0.00  0.00    +0.000 N 
ATOM     13  C   UNL     1      -8.100  -2.305 128.416  0.00  0.00    +0.000 C 
ATOM     14  C   UNL     1      -7.523  -3.175 127.315  0.00  0.00    +0.000 C 
ATOM     15  C   UNL     1      -6.290  -2.513 126.662  0.00  0.00    +0.000 C 
ATOM     16  C   UNL     1      -5.250  -2.172 127.739  0.00  0.00    +0.000 C 
ATOM     17  C   UNL     1      -5.831  -1.344 128.871  0.00  0.00    +0.000 C 
BRANCH  15  18
ATOM     18  N   UNL     1      -6.655  -1.397 125.726  0.00  0.00    +0.000 N 
ATOM     19  C   UNL     1      -6.114  -0.113 125.784  0.00  0.00    +0.000 C 
ATOM     20  O   UNL     1      -4.937   0.210 125.900  0.00  0.00    +0.000 OA
ATOM     21  O   UNL     1      -7.051   0.865 125.780  0.00  0.00    +0.000 OA
ATOM     22  C   UNL     1      -7.680   0.932 124.520  0.00  0.00    +0.000 C 
ATOM     23  C   UNL     1      -8.161  -0.420 124.095  0.00  0.00    +0.000 A 
ATOM     24  C   UNL     1      -9.083  -0.509 123.051  0.00  0.00    +0.000 A 
ATOM     25  C   UNL     1      -9.520  -1.755 122.624  0.00  0.00    +0.000 A 
ATOM     26  C   UNL     1      -9.030  -2.907 123.232  0.00  0.00    +0.000 A 
ATOM     27  C   UNL     1      -8.106  -2.822 124.278  0.00  0.00    +0.000 A 
ATOM     28  C   UNL     1      -7.663  -1.575 124.726  0.00  0.00    +0.000 A 
ENDBRANCH  15  18
ENDBRANCH   5  10
BRANCH   1  29
ATOM     29  C   UNL     1      -8.541   4.682 133.693  0.00  0.00    +0.000 C 
BRANCH  29  31
ATOM     30  C   UNL     1      -6.958   6.091 132.251  0.00  0.00    +0.000 C 
ATOM     31  N   UNL     1      -8.312   5.689 132.636  0.00  0.00    +0.000 N 
ATOM     32  C   UNL     1      -9.342   6.349 131.953  0.00  0.00    +0.000 C 
ATOM     33  O   UNL     1      -9.079   7.213 131.108  0.00  0.00    +0.000 OA
BRANCH  32  34
ATOM     34  C   UNL     1     -10.804   5.976 132.271  0.00  0.00    +0.000 C 
BRANCH  34  35
ATOM     35  N   UNL     1     -11.646   6.239 131.112  0.00  0.00    +0.000 N 
ATOM     36  C   UNL     1     -12.570   7.238 130.992  0.00  0.00    +0.000 C 
ATOM     37  O   UNL     1     -12.909   8.030 131.861  0.00  0.00    +0.000 OA
ATOM     38  C   UNL     1     -13.144   7.205 129.578  0.00  0.00    +0.000 C 
ATOM     39  N   UNL     1     -12.435   6.082 129.036  0.00  0.00    +0.000 N 
ATOM     40  C   UNL     1     -11.552   5.542 129.945  0.00  0.00    +0.000 C 
ATOM     41  O   UNL     1     -10.827   4.590 129.708  0.00  0.00    +0.000 OA
ATOM     42  H   UNL     1     -12.465   5.754 128.080  0.00  0.00    +0.000 HD
ENDBRANCH  34  35
ENDBRANCH  32  34
ENDBRANCH  29  31
ENDBRANCH   1  29
TORSDOF 6
ENDMDL
MODEL 4
REMARK VINA RESULT:      -9.8      2.100      3.012
REMARK  Name = CHEMBL31213
REMARK  7 active torsions:
REMARK  status: ('A' for Active; 'I' for Inactive)
REMARK    1  A    between atoms: C_1  and  N_2
REMARK    2  A    between atoms: N_2  and  C_3
REMARK    3  A    between atoms: C_3  and  C_4
REMARK    4  A    between atoms: C_8  and  C_9
REMARK    5  A    between atoms: C_14  and  N_15
REMARK    6  A    between atoms: C_32  and  C_34
REMARK    7  A    between atoms: C_34  and  N_35
REMARK                            x       y       z     vdW  Elec       q    Type
REMARK                         _______ _______ _______ _____ _____    ______ ____
ROOT
ATOM      1  C   UNL     1      -9.032   2.260 132.735  0.00  0.00    +0.000 A 
ATOM      2  C   UNL     1      -9.303   1.609 131.546  0.00  0.00    +0.000 A 
ATOM      3  C   UNL     1      -8.240   0.707 131.310  0.00  0.00    +0.000 A 
ATOM      4  C   UNL     1      -7.901  -0.187 130.274  0.00  0.00    +0.000 A 
ATOM      5  C   UNL     1      -6.736  -0.966 130.389  0.00  0.00    +0.000 A 
ATOM      6  C   UNL     1      -5.906  -0.796 131.511  0.00  0.00    +0.000 A 
ATOM      7  C   UNL     1      -6.225   0.087 132.554  0.00  0.00    +0.000 A 
ATOM      8  C   UNL     1      -7.396   0.826 132.409  0.00  0.00    +0.000 A 
ATOM      9  O   UNL     1      -7.876   1.768 133.278  0.00  0.00    +0.000 OA
ENDROOT
BRANCH   5  10
ATOM     10  C   UNL     1      -6.384  -1.900 129.261  0.00  0.00    +0.000 C 
ATOM     11  O   UNL     1      -5.859  -2.985 129.492  0.00  0.00    +0.000 OA
ATOM     12  N   UNL     1      -6.732  -1.520 127.976  0.00  0.00    +0.000 N 
ATOM     13  C   UNL     1      -7.613  -2.365 127.174  0.00  0.00    +0.000 C 
ATOM     14  C   UNL     1      -7.017  -2.651 125.809  0.00  0.00    +0.000 C 
ATOM     15  C   UNL     1      -6.598  -1.347 125.095  0.00  0.00    +0.000 C 
ATOM     16  C   UNL     1      -5.641  -0.546 125.990  0.00  0.00    +0.000 C 
ATOM     17  C   UNL     1      -6.210  -0.299 127.376  0.00  0.00    +0.000 C 
BRANCH  15  18
ATOM     18  N   UNL     1      -7.765  -0.587 124.535  0.00  0.00    +0.000 N 
ATOM     19  C   UNL     1      -9.049  -1.115 124.390  0.00  0.00    +0.000 C 
ATOM     20  O   UNL     1      -9.704  -1.755 125.205  0.00  0.00    +0.000 OA
ATOM     21  O   UNL     1      -9.567  -0.932 123.151  0.00  0.00    +0.000 OA
ATOM     22  C   UNL     1      -9.847   0.433 122.937  0.00  0.00    +0.000 C 
ATOM     23  C   UNL     1      -8.656   1.277 123.266  0.00  0.00    +0.000 A 
ATOM     24  C   UNL     1      -8.621   2.598 122.816  0.00  0.00    +0.000 A 
ATOM     25  C   UNL     1      -7.539   3.405 123.134  0.00  0.00    +0.000 A 
ATOM     26  C   UNL     1      -6.499   2.896 123.907  0.00  0.00    +0.000 A 
ATOM     27  C   UNL     1      -6.530   1.574 124.360  0.00  0.00    +0.000 A 
ATOM     28  C   UNL     1      -7.608   0.746 124.041  0.00  0.00    +0.000 A 
ENDBRANCH  15  18
ENDBRANCH   5  10
BRANCH   1  29
ATOM     29  C   UNL     1      -9.723   3.391 133.421  0.00  0.00    +0.000 C 
BRANCH  29  31
ATOM     30  C   UNL     1      -8.078   5.247 134.070  0.00  0.00    +0.000 C 
ATOM     31  N   UNL     1      -9.103   4.709 133.173  0.00  0.00    +0.000 N 
ATOM     32  C   UNL     1      -9.454   5.546 132.106  0.00  0.00    +0.000 C 
ATOM     33  O   UNL     1      -8.925   6.657 131.981  0.00  0.00    +0.000 OA
BRANCH  32  34
ATOM     34  C   UNL     1     -10.508   5.057 131.092  0.00  0.00    +0.000 C 
BRANCH  34  35
ATOM     35  N   UNL     1     -11.018   6.185 130.323  0.00  0.00    +0.000 N 
ATOM     36  C   UNL     1     -10.580   6.592 129.095  0.00  0.00    +0.000 C 
ATOM     37  O   UNL     1      -9.635   6.134 128.467  0.00  0.00    +0.000 OA
ATOM     38  C   UNL     1     -11.460   7.745 128.621  0.00  0.00    +0.000 C 
ATOM     39  N   UNL     1     -12.343   7.876 129.743  0.00  0.00    +0.000 N 
ATOM     40  C   UNL     1     -12.077   6.944 130.721  0.00  0.00    +0.000 C 
ATOM     41  O   UNL     1     -12.706   6.850 131.762  0.00  0.00    +0.000 OA
ATOM     42  H   UNL     1     -13.143   8.491 129.812  0.00  0.00    +0.000 HD
ENDBRANCH  34  35
ENDBRANCH  32  34
ENDBRANCH  29  31
ENDBRANCH   1  29
TORSDOF 6
ENDMDL
MODEL 5
REMARK VINA RESULT:      -9.7      2.191      3.636
REMARK  Name = CHEMBL31213
REMARK  7 active torsions:
REMARK  status: ('A' for Active; 'I' for Inactive)
REMARK    1  A    between atoms: C_1  and  N_2
REMARK    2  A    between atoms: N_2  and  C_3
REMARK    3  A    between atoms: C_3  and  C_4
REMARK    4  A    between atoms: C_8  and  C_9
REMARK    5  A    between atoms: C_14  and  N_15
REMARK    6  A    between atoms: C_32  and  C_34
REMARK    7  A    between atoms: C_34  and  N_35
REMARK                            x       y       z     vdW  Elec       q    Type
REMARK                         _______ _______ _______ _____ _____    ______ ____
ROOT
ATOM      1  C   UNL     1      -8.384   3.938 133.299  0.00  0.00    +0.000 A 
ATOM      2  C   UNL     1      -8.944   2.995 132.458  0.00  0.00    +0.000 A 
ATOM      3  C   UNL     1      -8.188   1.808 132.594  0.00  0.00    +0.000 A 
ATOM      4  C   UNL     1      -8.210   0.535 131.991  0.00  0.00    +0.000 A 
ATOM      5  C   UNL     1      -7.284  -0.440 132.402  0.00  0.00    +0.000 A 
ATOM      6  C   UNL     1      -6.321  -0.105 133.368  0.00  0.00    +0.000 A 
ATOM      7  C   UNL     1      -6.281   1.157 133.983  0.00  0.00    +0.000 A 
ATOM      8  C   UNL     1      -7.226   2.086 133.561  0.00  0.00    +0.000 A 
ATOM      9  O   UNL     1      -7.344   3.380 133.992  0.00  0.00    +0.000 OA
ENDROOT
BRANCH   5  10
ATOM     10  C   UNL     1      -7.316  -1.786 131.728  0.00  0.00    +0.000 C 
ATOM     11  O   UNL     1      -7.484  -2.808 132.388  0.00  0.00    +0.000 OA
ATOM     12  N   UNL     1      -7.215  -1.821 130.348  0.00  0.00    +0.000 N 
ATOM     13  C   UNL     1      -8.279  -2.424 129.549  0.00  0.00    +0.000 C 
ATOM     14  C   UNL     1      -7.729  -3.446 128.573  0.00  0.00    +0.000 C 
ATOM     15  C   UNL     1      -6.583  -2.853 127.724  0.00  0.00    +0.000 C 
ATOM     16  C   UNL     1      -5.494  -2.282 128.642  0.00  0.00    +0.000 C 
ATOM     17  C   UNL     1      -6.045  -1.296 129.657  0.00  0.00    +0.000 C 
BRANCH  15  18
ATOM     18  N   UNL     1      -7.076  -1.937 126.641  0.00  0.00    +0.000 N 
ATOM     19  C   UNL     1      -7.990  -0.903 126.842  0.00  0.00    +0.000 C 
ATOM     20  O   UNL     1      -7.994  -0.053 127.726  0.00  0.00    +0.000 OA
ATOM     21  O   UNL     1      -9.025  -0.924 125.968  0.00  0.00    +0.000 OA
ATOM     22  C   UNL     1      -8.575  -0.592 124.673  0.00  0.00    +0.000 C 
ATOM     23  C   UNL     1      -7.395  -1.429 124.291  0.00  0.00    +0.000 A 
ATOM     24  C   UNL     1      -7.015  -1.485 122.949  0.00  0.00    +0.000 A 
ATOM     25  C   UNL     1      -5.907  -2.232 122.578  0.00  0.00    +0.000 A 
ATOM     26  C   UNL     1      -5.176  -2.914 123.547  0.00  0.00    +0.000 A 
ATOM     27  C   UNL     1      -5.553  -2.861 124.892  0.00  0.00    +0.000 A 
ATOM     28  C   UNL     1      -6.671  -2.120 125.281  0.00  0.00    +0.000 A 
ENDBRANCH  15  18
ENDBRANCH   5  10
BRANCH   1  29
ATOM     29  C   UNL     1      -8.675   5.390 133.488  0.00  0.00    +0.000 C 
BRANCH  29  31
ATOM     30  C   UNL     1     -10.260   6.356 131.720  0.00  0.00    +0.000 C 
ATOM     31  N   UNL     1      -8.906   6.123 132.226  0.00  0.00    +0.000 N 
ATOM     32  C   UNL     1      -7.877   6.617 131.414  0.00  0.00    +0.000 C 
ATOM     33  O   UNL     1      -8.140   7.186 130.347  0.00  0.00    +0.000 OA
BRANCH  32  34
ATOM     34  C   UNL     1      -6.416   6.443 131.875  0.00  0.00    +0.000 C 
BRANCH  34  35
ATOM     35  N   UNL     1      -5.580   6.065 130.742  0.00  0.00    +0.000 N 
ATOM     36  C   UNL     1      -4.836   6.910 129.968  0.00  0.00    +0.000 C 
ATOM     37  O   UNL     1      -4.806   8.131 130.038  0.00  0.00    +0.000 OA
ATOM     38  C   UNL     1      -4.041   6.078 128.965  0.00  0.00    +0.000 C 
ATOM     39  N   UNL     1      -4.491   4.760 129.306  0.00  0.00    +0.000 N 
ATOM     40  C   UNL     1      -5.378   4.773 130.359  0.00  0.00    +0.000 C 
ATOM     41  O   UNL     1      -5.885   3.772 130.836  0.00  0.00    +0.000 OA
ATOM     42  H   UNL     1      -4.149   3.889 128.923  0.00  0.00    +0.000 HD
ENDBRANCH  34  35
ENDBRANCH  32  34
ENDBRANCH  29  31
ENDBRANCH   1  29
TORSDOF 6
ENDMDL
MODEL 6
REMARK VINA RESULT:      -9.6      7.138     12.434
REMARK  Name = CHEMBL31213
REMARK  7 active torsions:
REMARK  status: ('A' for Active; 'I' for Inactive)
REMARK    1  A    between atoms: C_1  and  N_2
REMARK    2  A    between atoms: N_2  and  C_3
REMARK    3  A    between atoms: C_3  and  C_4
REMARK    4  A    between atoms: C_8  and  C_9
REMARK    5  A    between atoms: C_14  and  N_15
REMARK    6  A    between atoms: C_32  and  C_34
REMARK    7  A    between atoms: C_34  and  N_35
REMARK                            x       y       z     vdW  Elec       q    Type
REMARK                         _______ _______ _______ _____ _____    ______ ____
ROOT
ATOM      1  C   UNL     1      -5.190   4.319 127.750  0.00  0.00    +0.000 A 
ATOM      2  C   UNL     1      -5.041   4.086 129.104  0.00  0.00    +0.000 A 
ATOM      3  C   UNL     1      -3.956   4.875 129.550  0.00  0.00    +0.000 A 
ATOM      4  C   UNL     1      -3.283   5.046 130.776  0.00  0.00    +0.000 A 
ATOM      5  C   UNL     1      -2.220   5.962 130.858  0.00  0.00    +0.000 A 
ATOM      6  C   UNL     1      -1.816   6.648 129.700  0.00  0.00    +0.000 A 
ATOM      7  C   UNL     1      -2.472   6.493 128.468  0.00  0.00    +0.000 A 
ATOM      8  C   UNL     1      -3.531   5.591 128.435  0.00  0.00    +0.000 A 
ATOM      9  O   UNL     1      -4.280   5.256 127.340  0.00  0.00    +0.000 OA
ENDROOT
BRANCH   5  10
ATOM     10  C   UNL     1      -1.504   6.114 132.174  0.00  0.00    +0.000 C 
ATOM     11  O   UNL     1      -1.038   5.132 132.746  0.00  0.00    +0.000 OA
ATOM     12  N   UNL     1      -1.338   7.394 132.676  0.00  0.00    +0.000 N 
ATOM     13  C   UNL     1       0.003   7.910 132.939  0.00  0.00    +0.000 C 
ATOM     14  C   UNL     1       0.117   8.468 134.345  0.00  0.00    +0.000 C 
ATOM     15  C   UNL     1      -1.004   9.490 134.636  0.00  0.00    +0.000 C 
ATOM     16  C   UNL     1      -2.375   8.851 134.374  0.00  0.00    +0.000 C 
ATOM     17  C   UNL     1      -2.480   8.244 132.986  0.00  0.00    +0.000 C 
BRANCH  15  18
ATOM     18  N   UNL     1      -0.764  10.820 133.981  0.00  0.00    +0.000 N 
ATOM     19  C   UNL     1      -1.698  11.484 133.186  0.00  0.00    +0.000 C 
ATOM     20  O   UNL     1      -2.888  11.676 133.410  0.00  0.00    +0.000 OA
ATOM     21  O   UNL     1      -1.197  11.887 131.993  0.00  0.00    +0.000 OA
ATOM     22  C   UNL     1      -0.266  12.930 132.184  0.00  0.00    +0.000 C 
ATOM     23  C   UNL     1       0.752  12.550 133.212  0.00  0.00    +0.000 A 
ATOM     24  C   UNL     1       1.928  13.297 133.304  0.00  0.00    +0.000 A 
ATOM     25  C   UNL     1       2.872  12.978 134.270  0.00  0.00    +0.000 A 
ATOM     26  C   UNL     1       2.636  11.923 135.147  0.00  0.00    +0.000 A 
ATOM     27  C   UNL     1       1.460  11.173 135.059  0.00  0.00    +0.000 A 
ATOM     28  C   UNL     1       0.504  11.475 134.086  0.00  0.00    +0.000 A 
ENDBRANCH  15  18
ENDBRANCH   5  10
BRANCH   1  29
ATOM     29  C   UNL     1      -6.078   3.686 126.730  0.00  0.00    +0.000 C 
BRANCH  29  31
ATOM     30  C   UNL     1      -4.332   1.843 126.377  0.00  0.00    +0.000 C 
ATOM     31  N   UNL     1      -5.728   2.285 126.419  0.00  0.00    +0.000 N 
ATOM     32  C   UNL     1      -6.671   1.295 126.118  0.00  0.00    +0.000 C 
ATOM     33  O   UNL     1      -6.306   0.150 125.825  0.00  0.00    +0.000 OA
BRANCH  32  34
ATOM     34  C   UNL     1      -8.170   1.657 126.161  0.00  0.00    +0.000 C 
BRANCH  34  35
ATOM     35  N   UNL     1      -8.753   1.513 124.834  0.00  0.00    +0.000 N 
ATOM     36  C   UNL     1      -9.387   0.406 124.344  0.00  0.00    +0.000 C 
ATOM     37  O   UNL     1      -9.502  -0.677 124.900  0.00  0.00    +0.000 OA
ATOM     38  C   UNL     1      -9.928   0.730 122.954  0.00  0.00    +0.000 C 
ATOM     39  N   UNL     1      -9.474   2.082 122.806  0.00  0.00    +0.000 N 
ATOM     40  C   UNL     1      -8.802   2.526 123.923  0.00  0.00    +0.000 C 
ATOM     41  O   UNL     1      -8.337   3.647 124.038  0.00  0.00    +0.000 OA
ATOM     42  H   UNL     1      -9.685   2.709 122.041  0.00  0.00    +0.000 HD
ENDBRANCH  34  35
ENDBRANCH  32  34
ENDBRANCH  29  31
ENDBRANCH   1  29
TORSDOF 6
ENDMDL
MODEL 7
REMARK VINA RESULT:      -9.6      6.726     11.469
REMARK  Name = CHEMBL31213
REMARK  7 active torsions:
REMARK  status: ('A' for Active; 'I' for Inactive)
REMARK    1  A    between atoms: C_1  and  N_2
REMARK    2  A    between atoms: N_2  and  C_3
REMARK    3  A    between atoms: C_3  and  C_4
REMARK    4  A    between atoms: C_8  and  C_9
REMARK    5  A    between atoms: C_14  and  N_15
REMARK    6  A    between atoms: C_32  and  C_34
REMARK    7  A    between atoms: C_34  and  N_35
REMARK                            x       y       z     vdW  Elec       q    Type
REMARK                         _______ _______ _______ _____ _____    ______ ____
ROOT
ATOM      1  C   UNL     1      -6.982   4.929 129.745  0.00  0.00    +0.000 A 
ATOM      2  C   UNL     1      -6.556   4.933 131.059  0.00  0.00    +0.000 A 
ATOM      3  C   UNL     1      -5.198   5.329 131.060  0.00  0.00    +0.000 A 
ATOM      4  C   UNL     1      -4.202   5.478 132.046  0.00  0.00    +0.000 A 
ATOM      5  C   UNL     1      -2.922   5.924 131.672  0.00  0.00    +0.000 A 
ATOM      6  C   UNL     1      -2.650   6.161 130.314  0.00  0.00    +0.000 A 
ATOM      7  C   UNL     1      -3.627   6.022 129.316  0.00  0.00    +0.000 A 
ATOM      8  C   UNL     1      -4.885   5.595 129.731  0.00  0.00    +0.000 A 
ATOM      9  O   UNL     1      -5.968   5.354 128.929  0.00  0.00    +0.000 OA
ENDROOT
BRANCH   5  10
ATOM     10  C   UNL     1      -1.869   6.056 132.740  0.00  0.00    +0.000 C 
ATOM     11  O   UNL     1      -1.282   5.064 133.162  0.00  0.00    +0.000 OA
ATOM     12  N   UNL     1      -1.547   7.331 133.175  0.00  0.00    +0.000 N 
ATOM     13  C   UNL     1      -0.176   7.821 133.059  0.00  0.00    +0.000 C 
ATOM     14  C   UNL     1       0.332   8.371 134.378  0.00  0.00    +0.000 C 
ATOM     15  C   UNL     1      -0.646   9.412 134.966  0.00  0.00    +0.000 C 
ATOM     16  C   UNL     1      -2.048   8.799 135.093  0.00  0.00    +0.000 C 
ATOM     17  C   UNL     1      -2.542   8.200 133.788  0.00  0.00    +0.000 C 
BRANCH  15  18
ATOM     18  N   UNL     1      -0.570  10.740 134.270  0.00  0.00    +0.000 N 
ATOM     19  C   UNL     1      -1.619  11.310 133.548  0.00  0.00    +0.000 C 
ATOM     20  O   UNL     1      -2.797  11.414 133.873  0.00  0.00    +0.000 OA
ATOM     21  O   UNL     1      -1.257  11.721 132.309  0.00  0.00    +0.000 OA
ATOM     22  C   UNL     1      -0.399  12.837 132.398  0.00  0.00    +0.000 C 
ATOM     23  C   UNL     1       0.730  12.563 133.340  0.00  0.00    +0.000 A 
ATOM     24  C   UNL     1       1.847  13.401 133.314  0.00  0.00    +0.000 A 
ATOM     25  C   UNL     1       2.893  13.181 134.199  0.00  0.00    +0.000 A 
ATOM     26  C   UNL     1       2.820  12.133 135.111  0.00  0.00    +0.000 A 
ATOM     27  C   UNL     1       1.703  11.291 135.141  0.00  0.00    +0.000 A 
ATOM     28  C   UNL     1       0.646  11.494 134.251  0.00  0.00    +0.000 A 
ENDBRANCH  15  18
ENDBRANCH   5  10
BRANCH   1  29
ATOM     29  C   UNL     1      -8.265   4.485 129.124  0.00  0.00    +0.000 C 
BRANCH  29  31
ATOM     30  C   UNL     1      -9.827   3.217 130.710  0.00  0.00    +0.000 C 
ATOM     31  N   UNL     1      -9.406   4.460 130.062  0.00  0.00    +0.000 N 
ATOM     32  C   UNL     1     -10.178   5.584 130.379  0.00  0.00    +0.000 C 
ATOM     33  O   UNL     1     -11.148   5.484 131.140  0.00  0.00    +0.000 OA
BRANCH  32  34
ATOM     34  C   UNL     1      -9.797   6.947 129.764  0.00  0.00    +0.000 C 
BRANCH  34  35
ATOM     35  N   UNL     1     -10.746   7.301 128.717  0.00  0.00    +0.000 N 
ATOM     36  C   UNL     1     -10.653   6.970 127.394  0.00  0.00    +0.000 C 
ATOM     37  O   UNL     1      -9.722   6.395 126.848  0.00  0.00    +0.000 OA
ATOM     38  C   UNL     1     -11.911   7.457 126.681  0.00  0.00    +0.000 C 
ATOM     39  N   UNL     1     -12.606   8.076 127.771  0.00  0.00    +0.000 N 
ATOM     40  C   UNL     1     -11.914   7.960 128.957  0.00  0.00    +0.000 C 
ATOM     41  O   UNL     1     -12.312   8.396 130.024  0.00  0.00    +0.000 OA
ATOM     42  H   UNL     1     -13.537   8.470 127.748  0.00  0.00    +0.000 HD
ENDBRANCH  34  35
ENDBRANCH  32  34
ENDBRANCH  29  31
ENDBRANCH   1  29
TORSDOF 6
ENDMDL
MODEL 8
REMARK VINA RESULT:      -9.5      4.076      8.732
REMARK  Name = CHEMBL31213
REMARK  7 active torsions:
REMARK  status: ('A' for Active; 'I' for Inactive)
REMARK    1  A    between atoms: C_1  and  N_2
REMARK    2  A    between atoms: N_2  and  C_3
REMARK    3  A    between atoms: C_3  and  C_4
REMARK    4  A    between atoms: C_8  and  C_9
REMARK    5  A    between atoms: C_14  and  N_15
REMARK    6  A    between atoms: C_32  and  C_34
REMARK    7  A    between atoms: C_34  and  N_35
REMARK                            x       y       z     vdW  Elec       q    Type
REMARK                         _______ _______ _______ _____ _____    ______ ____
ROOT
ATOM      1  C   UNL     1      -7.019  -2.758 125.402  0.00  0.00    +0.000 A 
ATOM      2  C   UNL     1      -5.994  -2.084 126.039  0.00  0.00    +0.000 A 
ATOM      3  C   UNL     1      -6.316  -2.033 127.415  0.00  0.00    +0.000 A 
ATOM      4  C   UNL     1      -5.725  -1.457 128.558  0.00  0.00    +0.000 A 
ATOM      5  C   UNL     1      -6.337  -1.629 129.812  0.00  0.00    +0.000 A 
ATOM      6  C   UNL     1      -7.554  -2.328 129.890  0.00  0.00    +0.000 A 
ATOM      7  C   UNL     1      -8.158  -2.911 128.765  0.00  0.00    +0.000 A 
ATOM      8  C   UNL     1      -7.511  -2.732 127.546  0.00  0.00    +0.000 A 
ATOM      9  O   UNL     1      -7.940  -3.176 126.324  0.00  0.00    +0.000 OA
ENDROOT
BRANCH   5  10
ATOM     10  C   UNL     1      -5.697  -0.988 131.015  0.00  0.00    +0.000 C 
ATOM     11  O   UNL     1      -5.317  -1.676 131.958  0.00  0.00    +0.000 OA
ATOM     12  N   UNL     1      -5.497   0.382 130.987  0.00  0.00    +0.000 N 
ATOM     13  C   UNL     1      -4.151   0.929 131.129  0.00  0.00    +0.000 C 
ATOM     14  C   UNL     1      -4.096   1.994 132.209  0.00  0.00    +0.000 C 
ATOM     15  C   UNL     1      -5.179   3.073 131.990  0.00  0.00    +0.000 C 
ATOM     16  C   UNL     1      -6.562   2.413 131.895  0.00  0.00    +0.000 C 
ATOM     17  C   UNL     1      -6.611   1.310 130.852  0.00  0.00    +0.000 C 
BRANCH  15  18
ATOM     18  N   UNL     1      -4.832   4.032 130.888  0.00  0.00    +0.000 N 
ATOM     19  C   UNL     1      -5.597   4.215 129.736  0.00  0.00    +0.000 C 
ATOM     20  O   UNL     1      -6.811   4.365 129.646  0.00  0.00    +0.000 OA
ATOM     21  O   UNL     1      -4.873   4.138 128.594  0.00  0.00    +0.000 OA
ATOM     22  C   UNL     1      -4.015   5.252 128.486  0.00  0.00    +0.000 C 
ATOM     23  C   UNL     1      -3.218   5.430 129.739  0.00  0.00    +0.000 A 
ATOM     24  C   UNL     1      -2.095   6.259 129.712  0.00  0.00    +0.000 A 
ATOM     25  C   UNL     1      -1.359   6.460 130.870  0.00  0.00    +0.000 A 
ATOM     26  C   UNL     1      -1.750   5.842 132.055  0.00  0.00    +0.000 A 
ATOM     27  C   UNL     1      -2.874   5.011 132.087  0.00  0.00    +0.000 A 
ATOM     28  C   UNL     1      -3.621   4.792 130.927  0.00  0.00    +0.000 A 
ENDBRANCH  15  18
ENDBRANCH   5  10
BRANCH   1  29
ATOM     29  C   UNL     1      -7.286  -3.010 123.955  0.00  0.00    +0.000 C 
BRANCH  29  31
ATOM     30  C   UNL     1      -9.760  -3.276 123.340  0.00  0.00    +0.000 C 
ATOM     31  N   UNL     1      -8.564  -2.443 123.477  0.00  0.00    +0.000 N 
ATOM     32  C   UNL     1      -8.728  -1.105 123.095  0.00  0.00    +0.000 C 
ATOM     33  O   UNL     1      -9.816  -0.706 122.662  0.00  0.00    +0.000 OA
BRANCH  32  34
ATOM     34  C   UNL     1      -7.531  -0.141 123.227  0.00  0.00    +0.000 C 
BRANCH  34  35
ATOM     35  N   UNL     1      -7.958   1.095 123.868  0.00  0.00    +0.000 N 
ATOM     36  C   UNL     1      -8.374   1.234 125.162  0.00  0.00    +0.000 C 
ATOM     37  O   UNL     1      -8.539   0.337 125.978  0.00  0.00    +0.000 OA
ATOM     38  C   UNL     1      -8.626   2.714 125.436  0.00  0.00    +0.000 C 
ATOM     39  N   UNL     1      -8.322   3.272 124.152  0.00  0.00    +0.000 N 
ATOM     40  C   UNL     1      -7.917   2.310 123.253  0.00  0.00    +0.000 C 
ATOM     41  O   UNL     1      -7.592   2.547 122.102  0.00  0.00    +0.000 OA
ATOM     42  H   UNL     1      -8.290   4.255 123.913  0.00  0.00    +0.000 HD
ENDBRANCH  34  35
ENDBRANCH  32  34
ENDBRANCH  29  31
ENDBRANCH   1  29
TORSDOF 6
ENDMDL
MODEL 9
REMARK VINA RESULT:      -9.3      3.678      6.916
REMARK  Name = CHEMBL31213
REMARK  7 active torsions:
REMARK  status: ('A' for Active; 'I' for Inactive)
REMARK    1  A    between atoms: C_1  and  N_2
REMARK    2  A    between atoms: N_2  and  C_3
REMARK    3  A    between atoms: C_3  and  C_4
REMARK    4  A    between atoms: C_8  and  C_9
REMARK    5  A    between atoms: C_14  and  N_15
REMARK    6  A    between atoms: C_32  and  C_34
REMARK    7  A    between atoms: C_34  and  N_35
REMARK                            x       y       z     vdW  Elec       q    Type
REMARK                         _______ _______ _______ _____ _____    ______ ____
ROOT
ATOM      1  C   UNL     1      -9.511   3.283 131.397  0.00  0.00    +0.000 A 
ATOM      2  C   UNL     1      -9.459   2.181 132.230  0.00  0.00    +0.000 A 
ATOM      3  C   UNL     1      -8.859   1.129 131.500  0.00  0.00    +0.000 A 
ATOM      4  C   UNL     1      -8.573  -0.227 131.755  0.00  0.00    +0.000 A 
ATOM      5  C   UNL     1      -7.930  -0.994 130.768  0.00  0.00    +0.000 A 
ATOM      6  C   UNL     1      -7.635  -0.405 129.527  0.00  0.00    +0.000 A 
ATOM      7  C   UNL     1      -7.909   0.944 129.252  0.00  0.00    +0.000 A 
ATOM      8  C   UNL     1      -8.530   1.673 130.263  0.00  0.00    +0.000 A 
ATOM      9  O   UNL     1      -8.923   2.982 130.197  0.00  0.00    +0.000 OA
ENDROOT
BRANCH   5  10
ATOM     10  C   UNL     1      -7.653  -2.446 131.057  0.00  0.00    +0.000 C 
ATOM     11  O   UNL     1      -7.735  -3.285 130.165  0.00  0.00    +0.000 OA
ATOM     12  N   UNL     1      -7.242  -2.783 132.336  0.00  0.00    +0.000 N 
ATOM     13  C   UNL     1      -5.959  -3.450 132.542  0.00  0.00    +0.000 C 
ATOM     14  C   UNL     1      -6.113  -4.700 133.387  0.00  0.00    +0.000 C 
ATOM     15  C   UNL     1      -6.869  -4.402 134.700  0.00  0.00    +0.000 C 
ATOM     16  C   UNL     1      -8.220  -3.743 134.386  0.00  0.00    +0.000 C 
ATOM     17  C   UNL     1      -8.079  -2.519 133.498  0.00  0.00    +0.000 C 
BRANCH  15  18
ATOM     18  N   UNL     1      -6.016  -3.700 135.717  0.00  0.00    +0.000 N 
ATOM     19  C   UNL     1      -6.354  -2.490 136.325  0.00  0.00    +0.000 C 
ATOM     20  O   UNL     1      -7.426  -2.164 136.823  0.00  0.00    +0.000 OA
ATOM     21  O   UNL     1      -5.364  -1.568 136.270  0.00  0.00    +0.000 OA
ATOM     22  C   UNL     1      -4.290  -1.956 137.098  0.00  0.00    +0.000 C 
ATOM     23  C   UNL     1      -3.874  -3.362 136.802  0.00  0.00    +0.000 A 
ATOM     24  C   UNL     1      -2.640  -3.813 137.273  0.00  0.00    +0.000 A 
ATOM     25  C   UNL     1      -2.248  -5.122 137.033  0.00  0.00    +0.000 A 
ATOM     26  C   UNL     1      -3.092  -5.980 136.334  0.00  0.00    +0.000 A 
ATOM     27  C   UNL     1      -4.329  -5.533 135.860  0.00  0.00    +0.000 A 
ATOM     28  C   UNL     1      -4.734  -4.215 136.086  0.00  0.00    +0.000 A 
ENDBRANCH  15  18
ENDBRANCH   5  10
BRANCH   1  29
ATOM     29  C   UNL     1     -10.137   4.626 131.573  0.00  0.00    +0.000 C 
BRANCH  29  31
ATOM     30  C   UNL     1      -8.090   6.039 132.191  0.00  0.00    +0.000 C 
ATOM     31  N   UNL     1      -9.220   5.753 131.305  0.00  0.00    +0.000 N 
ATOM     32  C   UNL     1      -9.367   6.637 130.228  0.00  0.00    +0.000 C 
ATOM     33  O   UNL     1      -8.587   7.586 130.086  0.00  0.00    +0.000 OA
BRANCH  32  34
ATOM     34  C   UNL     1     -10.514   6.403 129.224  0.00  0.00    +0.000 C 
BRANCH  34  35
ATOM     35  N   UNL     1     -11.420   7.544 129.232  0.00  0.00    +0.000 N 
ATOM     36  C   UNL     1     -12.298   7.873 130.226  0.00  0.00    +0.000 C 
ATOM     37  O   UNL     1     -12.535   7.227 131.237  0.00  0.00    +0.000 OA
ATOM     38  C   UNL     1     -12.970   9.195 129.864  0.00  0.00    +0.000 C 
ATOM     39  N   UNL     1     -12.358   9.459 128.594  0.00  0.00    +0.000 N 
ATOM     40  C   UNL     1     -11.443   8.489 128.250  0.00  0.00    +0.000 C 
ATOM     41  O   UNL     1     -10.786   8.505 127.223  0.00  0.00    +0.000 OA
ATOM     42  H   UNL     1     -12.472  10.291 128.031  0.00  0.00    +0.000 HD
ENDBRANCH  34  35
ENDBRANCH  32  34
ENDBRANCH  29  31
ENDBRANCH   1  29
TORSDOF 6
ENDMDL
