MODEL 1
REMARK VINA RESULT:     -10.0      0.000      0.000
REMARK  Name = CHEMBL4210854
REMARK  2 active torsions:
REMARK  status: ('A' for Active; 'I' for Inactive)
REMARK    1  A    between atoms: C_2  and  C_3
REMARK    2  A    between atoms: C_6  and  C_7
REMARK                            x       y       z     vdW  Elec       q    Type
REMARK                         _______ _______ _______ _____ _____    ______ ____
ROOT
ATOM      1  O   UNL     1      -8.259   3.165 126.231  0.00  0.00    +0.000 OA
ATOM      2  C   UNL     1      -7.799   1.970 126.010  0.00  0.00    +0.000 C 
ATOM      3  N   UNL     1      -7.443   0.280 126.995  0.00  0.00    +0.000 N 
ATOM      4  C   UNL     1      -8.452   1.098 127.077  0.00  0.00    +0.000 C 
ATOM      5  C   UNL     1      -8.522   1.923 128.388  0.00  0.00    +0.000 C 
ATOM      6  C   UNL     1      -8.228   0.797 129.156  0.00  0.00    +0.000 C 
ATOM      7  C   UNL     1      -8.161   0.494 130.515  0.00  0.00    +0.000 C 
ATOM      8  C   UNL     1      -7.786  -0.888 130.110  0.00  0.00    +0.000 A 
ATOM      9  C   UNL     1      -7.751  -1.545 131.728  0.00  0.00    +0.000 A 
ATOM     10  C   UNL     1      -7.250  -2.721 132.167  0.00  0.00    +0.000 A 
ATOM     11  C   UNL     1      -6.980  -3.293 130.947  0.00  0.00    +0.000 A 
ATOM     12  C   UNL     1      -7.038  -2.542 129.291  0.00  0.00    +0.000 A 
ATOM     13  C   UNL     1      -7.426  -1.076 128.485  0.00  0.00    +0.000 A 
ENDROOT
BRANCH   2  14
ATOM     14  C   UNL     1      -8.045   1.941 124.322  0.00  0.00    +0.000 A 
ATOM     15  C   UNL     1      -6.886   1.590 123.693  0.00  0.00    +0.000 A 
ATOM     16  C   UNL     1      -6.473   2.441 122.702  0.00  0.00    +0.000 A 
ATOM     17  C   UNL     1      -7.378   3.141 121.911  0.00  0.00    +0.000 A 
ATOM     18  C   UNL     1      -8.725   3.062 122.258  0.00  0.00    +0.000 A 
ATOM     19  C   UNL     1      -9.098   2.375 123.443  0.00  0.00    +0.000 A 
BRANCH  17  20
ATOM     20  C   UNL     1      -6.886   3.892 120.760  0.00  0.00    +0.000 A 
ATOM     21  C   UNL     1      -5.625   4.507 120.761  0.00  0.00    +0.000 A 
ATOM     22  C   UNL     1      -5.248   5.343 119.709  0.00  0.00    +0.000 A 
ATOM     23  C   UNL     1      -6.037   5.429 118.569  0.00  0.00    +0.000 A 
ATOM     24  C   UNL     1      -7.279   4.813 118.552  0.00  0.00    +0.000 A 
ATOM     25  C   UNL     1      -7.701   4.059 119.643  0.00  0.00    +0.000 A 
ENDBRANCH  17  20
ENDBRANCH   2  14
TORSDOF 2
ENDMDL
MODEL 2
REMARK VINA RESULT:      -9.7      1.689      9.795
REMARK  Name = CHEMBL4210854
REMARK  2 active torsions:
REMARK  status: ('A' for Active; 'I' for Inactive)
REMARK    1  A    between atoms: C_2  and  C_3
REMARK    2  A    between atoms: C_6  and  C_7
REMARK                            x       y       z     vdW  Elec       q    Type
REMARK                         _______ _______ _______ _____ _____    ______ ____
ROOT
ATOM      1  O   UNL     1      -9.127   0.580 124.971  0.00  0.00    +0.000 OA
ATOM      2  C   UNL     1      -7.897   0.954 124.782  0.00  0.00    +0.000 C 
ATOM      3  N   UNL     1      -6.828   2.051 123.515  0.00  0.00    +0.000 N 
ATOM      4  C   UNL     1      -8.004   2.274 124.027  0.00  0.00    +0.000 C 
ATOM      5  C   UNL     1      -9.185   2.157 123.030  0.00  0.00    +0.000 C 
ATOM      6  C   UNL     1      -8.489   2.879 122.062  0.00  0.00    +0.000 C 
ATOM      7  C   UNL     1      -8.767   3.399 120.799  0.00  0.00    +0.000 C 
ATOM      8  C   UNL     1      -7.367   3.903 120.783  0.00  0.00    +0.000 A 
ATOM      9  C   UNL     1      -7.497   4.744 119.257  0.00  0.00    +0.000 A 
ATOM     10  C   UNL     1      -6.523   5.259 118.475  0.00  0.00    +0.000 A 
ATOM     11  C   UNL     1      -5.465   5.096 119.335  0.00  0.00    +0.000 A 
ATOM     12  C   UNL     1      -5.402   4.200 120.917  0.00  0.00    +0.000 A 
ATOM     13  C   UNL     1      -6.390   3.318 122.010  0.00  0.00    +0.000 A 
ENDROOT
BRANCH   2  14
ATOM     14  C   UNL     1      -7.331   0.683 126.368  0.00  0.00    +0.000 A 
ATOM     15  C   UNL     1      -6.025   0.289 126.331  0.00  0.00    +0.000 A 
ATOM     16  C   UNL     1      -5.740  -0.868 127.007  0.00  0.00    +0.000 A 
ATOM     17  C   UNL     1      -6.428  -1.233 128.160  0.00  0.00    +0.000 A 
ATOM     18  C   UNL     1      -7.524  -0.454 128.525  0.00  0.00    +0.000 A 
ATOM     19  C   UNL     1      -7.949   0.592 127.665  0.00  0.00    +0.000 A 
BRANCH  17  20
ATOM     20  C   UNL     1      -5.963  -2.381 128.933  0.00  0.00    +0.000 A 
ATOM     21  C   UNL     1      -6.835  -3.146 129.721  0.00  0.00    +0.000 A 
ATOM     22  C   UNL     1      -6.336  -4.138 130.567  0.00  0.00    +0.000 A 
ATOM     23  C   UNL     1      -4.996  -4.501 130.500  0.00  0.00    +0.000 A 
ATOM     24  C   UNL     1      -4.128  -3.760 129.713  0.00  0.00    +0.000 A 
ATOM     25  C   UNL     1      -4.608  -2.704 128.944  0.00  0.00    +0.000 A 
ENDBRANCH  17  20
ENDBRANCH   2  14
TORSDOF 2
ENDMDL
MODEL 3
REMARK VINA RESULT:      -9.5      1.387      2.275
REMARK  Name = CHEMBL4210854
REMARK  2 active torsions:
REMARK  status: ('A' for Active; 'I' for Inactive)
REMARK    1  A    between atoms: C_2  and  C_3
REMARK    2  A    between atoms: C_6  and  C_7
REMARK                            x       y       z     vdW  Elec       q    Type
REMARK                         _______ _______ _______ _____ _____    ______ ____
ROOT
ATOM      1  O   UNL     1      -7.516  -0.447 124.840  0.00  0.00    +0.000 OA
ATOM      2  C   UNL     1      -7.795   0.330 125.843  0.00  0.00    +0.000 C 
ATOM      3  N   UNL     1      -7.892   0.263 127.827  0.00  0.00    +0.000 N 
ATOM      4  C   UNL     1      -7.014  -0.251 127.016  0.00  0.00    +0.000 C 
ATOM      5  C   UNL     1      -7.057  -1.796 126.897  0.00  0.00    +0.000 C 
ATOM      6  C   UNL     1      -7.176  -1.937 128.279  0.00  0.00    +0.000 C 
ATOM      7  C   UNL     1      -7.188  -2.994 129.187  0.00  0.00    +0.000 C 
ATOM      8  C   UNL     1      -7.358  -1.973 130.256  0.00  0.00    +0.000 A 
ATOM      9  C   UNL     1      -7.285  -3.098 131.591  0.00  0.00    +0.000 A 
ATOM     10  C   UNL     1      -7.604  -2.911 132.890  0.00  0.00    +0.000 A 
ATOM     11  C   UNL     1      -7.795  -1.551 132.857  0.00  0.00    +0.000 A 
ATOM     12  C   UNL     1      -7.860  -0.437 131.420  0.00  0.00    +0.000 A 
ATOM     13  C   UNL     1      -7.699  -0.427 129.711  0.00  0.00    +0.000 A 
ENDROOT
BRANCH   2  14
ATOM     14  C   UNL     1      -7.560   1.821 125.047  0.00  0.00    +0.000 A 
ATOM     15  C   UNL     1      -8.736   2.241 124.498  0.00  0.00    +0.000 A 
ATOM     16  C   UNL     1      -8.683   2.559 123.166  0.00  0.00    +0.000 A 
ATOM     17  C   UNL     1      -7.540   3.102 122.586  0.00  0.00    +0.000 A 
ATOM     18  C   UNL     1      -6.395   3.173 123.376  0.00  0.00    +0.000 A 
ATOM     19  C   UNL     1      -6.410   2.602 124.676  0.00  0.00    +0.000 A 
BRANCH  17  20
ATOM     20  C   UNL     1      -7.601   3.585 121.210  0.00  0.00    +0.000 A 
ATOM     21  C   UNL     1      -6.449   3.966 120.507  0.00  0.00    +0.000 A 
ATOM     22  C   UNL     1      -6.554   4.567 119.252  0.00  0.00    +0.000 A 
ATOM     23  C   UNL     1      -7.785   4.626 118.609  0.00  0.00    +0.000 A 
ATOM     24  C   UNL     1      -8.929   4.238 119.289  0.00  0.00    +0.000 A 
ATOM     25  C   UNL     1      -8.835   3.730 120.582  0.00  0.00    +0.000 A 
ENDBRANCH  17  20
ENDBRANCH   2  14
TORSDOF 2
ENDMDL
MODEL 4
REMARK VINA RESULT:      -9.3      6.125      8.859
REMARK  Name = CHEMBL4210854
REMARK  2 active torsions:
REMARK  status: ('A' for Active; 'I' for Inactive)
REMARK    1  A    between atoms: C_2  and  C_3
REMARK    2  A    between atoms: C_6  and  C_7
REMARK                            x       y       z     vdW  Elec       q    Type
REMARK                         _______ _______ _______ _____ _____    ______ ____
ROOT
ATOM      1  O   UNL     1      -5.542   4.790 127.127  0.00  0.00    +0.000 OA
ATOM      2  C   UNL     1      -4.934   3.664 127.357  0.00  0.00    +0.000 C 
ATOM      3  N   UNL     1      -4.989   1.767 126.764  0.00  0.00    +0.000 N 
ATOM      4  C   UNL     1      -5.099   2.863 126.070  0.00  0.00    +0.000 C 
ATOM      5  C   UNL     1      -6.519   3.145 125.514  0.00  0.00    +0.000 C 
ATOM      6  C   UNL     1      -6.664   1.819 125.107  0.00  0.00    +0.000 C 
ATOM      7  C   UNL     1      -7.604   1.084 124.388  0.00  0.00    +0.000 C 
ATOM      8  C   UNL     1      -6.728  -0.100 124.602  0.00  0.00    +0.000 A 
ATOM      9  C   UNL     1      -7.683  -1.205 123.644  0.00  0.00    +0.000 A 
ATOM     10  C   UNL     1      -7.618  -2.553 123.568  0.00  0.00    +0.000 A 
ATOM     11  C   UNL     1      -6.470  -2.741 124.299  0.00  0.00    +0.000 A 
ATOM     12  C   UNL     1      -5.524  -1.535 125.279  0.00  0.00    +0.000 A 
ATOM     13  C   UNL     1      -5.487   0.128 125.703  0.00  0.00    +0.000 A 
ENDROOT
BRANCH   2  14
ATOM     14  C   UNL     1      -3.504   4.310 128.026  0.00  0.00    +0.000 A 
ATOM     15  C   UNL     1      -3.284   3.766 129.257  0.00  0.00    +0.000 A 
ATOM     16  C   UNL     1      -3.083   4.665 130.272  0.00  0.00    +0.000 A 
ATOM     17  C   UNL     1      -2.460   5.890 130.054  0.00  0.00    +0.000 A 
ATOM     18  C   UNL     1      -2.176   6.238 128.736  0.00  0.00    +0.000 A 
ATOM     19  C   UNL     1      -2.625   5.396 127.683  0.00  0.00    +0.000 A 
BRANCH  17  20
ATOM     20  C   UNL     1      -2.115   6.726 131.200  0.00  0.00    +0.000 A 
ATOM     21  C   UNL     1      -2.966   7.741 131.659  0.00  0.00    +0.000 A 
ATOM     22  C   UNL     1      -2.542   8.621 132.656  0.00  0.00    +0.000 A 
ATOM     23  C   UNL     1      -1.349   8.389 133.329  0.00  0.00    +0.000 A 
ATOM     24  C   UNL     1      -0.505   7.379 132.892  0.00  0.00    +0.000 A 
ATOM     25  C   UNL     1      -0.884   6.561 131.831  0.00  0.00    +0.000 A 
ENDBRANCH  17  20
ENDBRANCH   2  14
TORSDOF 2
ENDMDL
MODEL 5
REMARK VINA RESULT:      -9.0      4.840      7.185
REMARK  Name = CHEMBL4210854
REMARK  2 active torsions:
REMARK  status: ('A' for Active; 'I' for Inactive)
REMARK    1  A    between atoms: C_2  and  C_3
REMARK    2  A    between atoms: C_6  and  C_7
REMARK                            x       y       z     vdW  Elec       q    Type
REMARK                         _______ _______ _______ _____ _____    ______ ____
ROOT
ATOM      1  O   UNL     1      -7.232  -1.770 131.929  0.00  0.00    +0.000 OA
ATOM      2  C   UNL     1      -8.016  -1.201 131.063  0.00  0.00    +0.000 C 
ATOM      3  N   UNL     1      -8.890   0.554 130.738  0.00  0.00    +0.000 N 
ATOM      4  C   UNL     1      -7.688   0.284 131.156  0.00  0.00    +0.000 C 
ATOM      5  C   UNL     1      -7.422   0.620 132.647  0.00  0.00    +0.000 C 
ATOM      6  C   UNL     1      -8.062   1.853 132.522  0.00  0.00    +0.000 C 
ATOM      7  C   UNL     1      -8.261   2.970 133.330  0.00  0.00    +0.000 C 
ATOM      8  C   UNL     1      -9.015   3.563 132.192  0.00  0.00    +0.000 A 
ATOM      9  C   UNL     1      -9.298   5.110 132.953  0.00  0.00    +0.000 A 
ATOM     10  C   UNL     1     -10.139   6.104 132.590  0.00  0.00    +0.000 A 
ATOM     11  C   UNL     1     -10.524   5.607 131.369  0.00  0.00    +0.000 A 
ATOM     12  C   UNL     1     -10.190   3.975 130.638  0.00  0.00    +0.000 A 
ATOM     13  C   UNL     1      -9.359   2.503 130.942  0.00  0.00    +0.000 A 
ENDROOT
BRANCH   2  14
ATOM     14  C   UNL     1      -7.733  -2.270 129.764  0.00  0.00    +0.000 A 
ATOM     15  C   UNL     1      -6.759  -1.764 128.954  0.00  0.00    +0.000 A 
ATOM     16  C   UNL     1      -7.083  -1.681 127.625  0.00  0.00    +0.000 A 
ATOM     17  C   UNL     1      -7.927  -2.605 127.017  0.00  0.00    +0.000 A 
ATOM     18  C   UNL     1      -8.556  -3.536 127.840  0.00  0.00    +0.000 A 
ATOM     19  C   UNL     1      -8.398  -3.437 129.248  0.00  0.00    +0.000 A 
BRANCH  17  20
ATOM     20  C   UNL     1      -8.093  -2.571 125.567  0.00  0.00    +0.000 A 
ATOM     21  C   UNL     1      -7.210  -1.864 124.737  0.00  0.00    +0.000 A 
ATOM     22  C   UNL     1      -7.481  -1.723 123.375  0.00  0.00    +0.000 A 
ATOM     23  C   UNL     1      -8.526  -2.433 122.796  0.00  0.00    +0.000 A 
ATOM     24  C   UNL     1      -9.396  -3.147 123.605  0.00  0.00    +0.000 A 
ATOM     25  C   UNL     1      -9.184  -3.206 124.980  0.00  0.00    +0.000 A 
ENDBRANCH  17  20
ENDBRANCH   2  14
TORSDOF 2
ENDMDL
MODEL 6
REMARK VINA RESULT:      -9.0      6.477      7.892
REMARK  Name = CHEMBL4210854
REMARK  2 active torsions:
REMARK  status: ('A' for Active; 'I' for Inactive)
REMARK    1  A    between atoms: C_2  and  C_3
REMARK    2  A    between atoms: C_6  and  C_7
REMARK                            x       y       z     vdW  Elec       q    Type
REMARK                         _______ _______ _______ _____ _____    ______ ____
ROOT
ATOM      1  O   UNL     1      -7.167   3.851 133.800  0.00  0.00    +0.000 OA
ATOM      2  C   UNL     1      -7.332   3.743 132.515  0.00  0.00    +0.000 C 
ATOM      3  N   UNL     1      -7.512   2.331 131.127  0.00  0.00    +0.000 N 
ATOM      4  C   UNL     1      -8.021   2.397 132.323  0.00  0.00    +0.000 C 
ATOM      5  C   UNL     1      -7.416   1.402 133.348  0.00  0.00    +0.000 C 
ATOM      6  C   UNL     1      -7.461   0.362 132.421  0.00  0.00    +0.000 C 
ATOM      7  C   UNL     1      -7.210  -1.009 132.433  0.00  0.00    +0.000 C 
ATOM      8  C   UNL     1      -7.572  -1.010 130.990  0.00  0.00    +0.000 A 
ATOM      9  C   UNL     1      -7.438  -2.738 130.773  0.00  0.00    +0.000 A 
ATOM     10  C   UNL     1      -7.402  -3.461 129.632  0.00  0.00    +0.000 A 
ATOM     11  C   UNL     1      -7.702  -2.454 128.746  0.00  0.00    +0.000 A 
ATOM     12  C   UNL     1      -7.824  -0.663 129.045  0.00  0.00    +0.000 A 
ATOM     13  C   UNL     1      -7.724   0.507 130.297  0.00  0.00    +0.000 A 
ENDROOT
BRANCH   2  14
ATOM     14  C   UNL     1      -7.959   5.304 132.234  0.00  0.00    +0.000 A 
ATOM     15  C   UNL     1      -9.261   5.357 132.636  0.00  0.00    +0.000 A 
ATOM     16  C   UNL     1     -10.148   5.824 131.700  0.00  0.00    +0.000 A 
ATOM     17  C   UNL     1      -9.785   6.785 130.762  0.00  0.00    +0.000 A 
ATOM     18  C   UNL     1      -8.443   7.153 130.708  0.00  0.00    +0.000 A 
ATOM     19  C   UNL     1      -7.502   6.467 131.521  0.00  0.00    +0.000 A 
BRANCH  17  20
ATOM     20  C   UNL     1     -10.816   7.371 129.910  0.00  0.00    +0.000 A 
ATOM     21  C   UNL     1     -12.179   7.279 130.226  0.00  0.00    +0.000 A 
ATOM     22  C   UNL     1     -13.145   7.713 129.316  0.00  0.00    +0.000 A 
ATOM     23  C   UNL     1     -12.765   8.406 128.174  0.00  0.00    +0.000 A 
ATOM     24  C   UNL     1     -11.419   8.517 127.860  0.00  0.00    +0.000 A 
ATOM     25  C   UNL     1     -10.455   7.995 128.718  0.00  0.00    +0.000 A 
ENDBRANCH  17  20
ENDBRANCH   2  14
TORSDOF 2
ENDMDL
MODEL 7
REMARK VINA RESULT:      -8.6      5.189      7.742
REMARK  Name = CHEMBL4210854
REMARK  2 active torsions:
REMARK  status: ('A' for Active; 'I' for Inactive)
REMARK    1  A    between atoms: C_2  and  C_3
REMARK    2  A    between atoms: C_6  and  C_7
REMARK                            x       y       z     vdW  Elec       q    Type
REMARK                         _______ _______ _______ _____ _____    ______ ____
ROOT
ATOM      1  O   UNL     1      -5.325  -4.676 130.209  0.00  0.00    +0.000 OA
ATOM      2  C   UNL     1      -6.330  -4.008 130.691  0.00  0.00    +0.000 C 
ATOM      3  N   UNL     1      -7.237  -3.687 132.431  0.00  0.00    +0.000 N 
ATOM      4  C   UNL     1      -5.968  -3.761 132.151  0.00  0.00    +0.000 C 
ATOM      5  C   UNL     1      -5.253  -5.029 132.685  0.00  0.00    +0.000 C 
ATOM      6  C   UNL     1      -5.882  -4.909 133.923  0.00  0.00    +0.000 C 
ATOM      7  C   UNL     1      -5.809  -5.552 135.157  0.00  0.00    +0.000 C 
ATOM      8  C   UNL     1      -6.867  -4.615 135.622  0.00  0.00    +0.000 A 
ATOM      9  C   UNL     1      -6.881  -5.169 137.279  0.00  0.00    +0.000 A 
ATOM     10  C   UNL     1      -7.779  -4.925 138.259  0.00  0.00    +0.000 A 
ATOM     11  C   UNL     1      -8.528  -3.971 137.613  0.00  0.00    +0.000 A 
ATOM     12  C   UNL     1      -8.457  -3.442 135.873  0.00  0.00    +0.000 A 
ATOM     13  C   UNL     1      -7.593  -3.711 134.414  0.00  0.00    +0.000 A 
ENDROOT
BRANCH   2  14
ATOM     14  C   UNL     1      -6.474  -2.871 129.428  0.00  0.00    +0.000 A 
ATOM     15  C   UNL     1      -7.790  -2.685 129.122  0.00  0.00    +0.000 A 
ATOM     16  C   UNL     1      -8.115  -2.836 127.799  0.00  0.00    +0.000 A 
ATOM     17  C   UNL     1      -7.226  -2.499 126.783  0.00  0.00    +0.000 A 
ATOM     18  C   UNL     1      -5.932  -2.142 127.157  0.00  0.00    +0.000 A 
ATOM     19  C   UNL     1      -5.552  -2.239 128.522  0.00  0.00    +0.000 A 
BRANCH  17  20
ATOM     20  C   UNL     1      -7.689  -2.512 125.399  0.00  0.00    +0.000 A 
ATOM     21  C   UNL     1      -7.067  -1.746 124.402  0.00  0.00    +0.000 A 
ATOM     22  C   UNL     1      -7.626  -1.661 123.126  0.00  0.00    +0.000 A 
ATOM     23  C   UNL     1      -8.696  -2.475 122.778  0.00  0.00    +0.000 A 
ATOM     24  C   UNL     1      -9.310  -3.248 123.752  0.00  0.00    +0.000 A 
ATOM     25  C   UNL     1      -8.813  -3.258 125.053  0.00  0.00    +0.000 A 
ENDBRANCH  17  20
ENDBRANCH   2  14
TORSDOF 2
ENDMDL
MODEL 8
REMARK VINA RESULT:      -8.6      8.341     11.219
REMARK  Name = CHEMBL4210854
REMARK  2 active torsions:
REMARK  status: ('A' for Active; 'I' for Inactive)
REMARK    1  A    between atoms: C_2  and  C_3
REMARK    2  A    between atoms: C_6  and  C_7
REMARK                            x       y       z     vdW  Elec       q    Type
REMARK                         _______ _______ _______ _____ _____    ______ ____
ROOT
ATOM      1  O   UNL     1      -6.796   4.369 133.336  0.00  0.00    +0.000 OA
ATOM      2  C   UNL     1      -6.643   5.016 132.220  0.00  0.00    +0.000 C 
ATOM      3  N   UNL     1      -7.711   6.106 130.945  0.00  0.00    +0.000 N 
ATOM      4  C   UNL     1      -7.717   6.097 132.247  0.00  0.00    +0.000 C 
ATOM      5  C   UNL     1      -8.989   5.488 132.891  0.00  0.00    +0.000 C 
ATOM      6  C   UNL     1      -9.815   6.179 132.005  0.00  0.00    +0.000 C 
ATOM      7  C   UNL     1     -11.187   6.364 131.843  0.00  0.00    +0.000 C 
ATOM      8  C   UNL     1     -10.855   7.211 130.665  0.00  0.00    +0.000 A 
ATOM      9  C   UNL     1     -12.499   7.691 130.322  0.00  0.00    +0.000 A 
ATOM     10  C   UNL     1     -13.006   8.293 129.223  0.00  0.00    +0.000 A 
ATOM     11  C   UNL     1     -11.824   8.579 128.586  0.00  0.00    +0.000 A 
ATOM     12  C   UNL     1     -10.137   8.040 129.003  0.00  0.00    +0.000 A 
ATOM     13  C   UNL     1      -9.256   7.143 130.173  0.00  0.00    +0.000 A 
ENDROOT
BRANCH   2  14
ATOM     14  C   UNL     1      -4.949   5.203 132.295  0.00  0.00    +0.000 A 
ATOM     15  C   UNL     1      -4.584   5.599 133.548  0.00  0.00    +0.000 A 
ATOM     16  C   UNL     1      -3.797   6.719 133.606  0.00  0.00    +0.000 A 
ATOM     17  C   UNL     1      -2.878   7.023 132.606  0.00  0.00    +0.000 A 
ATOM     18  C   UNL     1      -2.889   6.225 131.464  0.00  0.00    +0.000 A 
ATOM     19  C   UNL     1      -3.887   5.226 131.324  0.00  0.00    +0.000 A 
BRANCH  17  20
ATOM     20  C   UNL     1      -1.946   8.128 132.808  0.00  0.00    +0.000 A 
ATOM     21  C   UNL     1      -0.587   7.911 133.075  0.00  0.00    +0.000 A 
ATOM     22  C   UNL     1       0.245   8.979 133.415  0.00  0.00    +0.000 A 
ATOM     23  C   UNL     1      -0.220  10.285 133.313  0.00  0.00    +0.000 A 
ATOM     24  C   UNL     1      -1.560  10.511 133.035  0.00  0.00    +0.000 A 
ATOM     25  C   UNL     1      -2.415   9.440 132.794  0.00  0.00    +0.000 A 
ENDBRANCH  17  20
ENDBRANCH   2  14
TORSDOF 2
ENDMDL
MODEL 9
REMARK VINA RESULT:      -8.5      4.945      8.034
REMARK  Name = CHEMBL4210854
REMARK  2 active torsions:
REMARK  status: ('A' for Active; 'I' for Inactive)
REMARK    1  A    between atoms: C_2  and  C_3
REMARK    2  A    between atoms: C_6  and  C_7
REMARK                            x       y       z     vdW  Elec       q    Type
REMARK                         _______ _______ _______ _____ _____    ______ ____
ROOT
ATOM      1  O   UNL     1      -4.901   4.048 125.566  0.00  0.00    +0.000 OA
ATOM      2  C   UNL     1      -4.876   3.325 126.645  0.00  0.00    +0.000 C 
ATOM      3  N   UNL     1      -4.177   3.408 128.504  0.00  0.00    +0.000 N 
ATOM      4  C   UNL     1      -4.746   4.330 127.784  0.00  0.00    +0.000 C 
ATOM      5  C   UNL     1      -3.802   5.466 127.310  0.00  0.00    +0.000 C 
ATOM      6  C   UNL     1      -3.220   5.560 128.574  0.00  0.00    +0.000 C 
ATOM      7  C   UNL     1      -2.295   6.396 129.197  0.00  0.00    +0.000 C 
ATOM      8  C   UNL     1      -2.480   5.563 130.416  0.00  0.00    +0.000 A 
ATOM      9  C   UNL     1      -1.449   6.526 131.448  0.00  0.00    +0.000 A 
ATOM     10  C   UNL     1      -0.946   6.238 132.668  0.00  0.00    +0.000 A 
ATOM     11  C   UNL     1      -1.649   5.083 132.909  0.00  0.00    +0.000 A 
ATOM     12  C   UNL     1      -2.709   4.129 131.779  0.00  0.00    +0.000 A 
ATOM     13  C   UNL     1      -3.339   4.145 130.182  0.00  0.00    +0.000 A 
ENDROOT
BRANCH   2  14
ATOM     14  C   UNL     1      -6.197   2.312 126.271  0.00  0.00    +0.000 A 
ATOM     15  C   UNL     1      -7.028   2.222 127.349  0.00  0.00    +0.000 A 
ATOM     16  C   UNL     1      -7.336   0.948 127.750  0.00  0.00    +0.000 A 
ATOM     17  C   UNL     1      -7.439  -0.102 126.843  0.00  0.00    +0.000 A 
ATOM     18  C   UNL     1      -7.070   0.153 125.524  0.00  0.00    +0.000 A 
ATOM     19  C   UNL     1      -6.514   1.416 125.191  0.00  0.00    +0.000 A 
BRANCH  17  20
ATOM     20  C   UNL     1      -7.942  -1.393 127.303  0.00  0.00    +0.000 A 
ATOM     21  C   UNL     1      -7.734  -1.845 128.614  0.00  0.00    +0.000 A 
ATOM     22  C   UNL     1      -8.092  -3.144 128.978  0.00  0.00    +0.000 A 
ATOM     23  C   UNL     1      -8.823  -3.937 128.102  0.00  0.00    +0.000 A 
ATOM     24  C   UNL     1      -9.047  -3.494 126.807  0.00  0.00    +0.000 A 
ATOM     25  C   UNL     1      -8.602  -2.235 126.411  0.00  0.00    +0.000 A 
ENDBRANCH  17  20
ENDBRANCH   2  14
TORSDOF 2
ENDMDL
