MODEL 1
REMARK VINA RESULT:     -10.3      0.000      0.000
REMARK  Name = CHEMBL372516
REMARK  14 active torsions:
REMARK  status: ('A' for Active; 'I' for Inactive)
REMARK    1  A    between atoms: CD1_1  and  CG_2
REMARK    2  A    between atoms: CG_2  and  CD2_3
REMARK    3  A    between atoms: CG_2  and  CB_4
REMARK    4  A    between atoms: CB_4  and  CA_5
REMARK    5  A    between atoms: C_9  and  C_10
REMARK    6  A    between atoms: N_21  and  C_22
REMARK    7  A    between atoms: C_22  and  C_23
REMARK    8  A    between atoms: C_22  and  C_30
REMARK    9  A    between atoms: N_25  and  C_26
REMARK   10  A    between atoms: C_26  and  C_27
REMARK   11  A    between atoms: C_26  and  C_28
REMARK   12  A    between atoms: C_26  and  C_29
REMARK   13  A    between atoms: C_33  and  O_34
REMARK   14  A    between atoms: O_34  and  C_35
REMARK                            x       y       z     vdW  Elec       q    Type
REMARK                         _______ _______ _______ _____ _____    ______ ____
ROOT
ATOM      1  CA  LEU A   2      -8.641   3.394 130.443  0.00  0.00    +0.000 C 
ATOM      2  C   LEU A   2      -8.678   4.248 129.153  0.00  0.00    +0.000 C 
ATOM      3  O   LEU A   2      -8.253   4.035 128.055  0.00  0.00    +0.000 OA
ATOM      4  N   UNK A   1      -9.325   5.405 129.380  0.00  0.00    +0.000 N 
ATOM      5  C   UNK A   1      -9.955   5.676 130.639  0.00  0.00    +0.000 C 
ATOM      6  C   UNK A   1      -8.979   5.394 131.822  0.00  0.00    +0.000 C 
ATOM      7  O   UNK A   1      -8.969   6.106 132.805  0.00  0.00    +0.000 OA
ATOM      8  N   LEU A   2      -8.202   4.227 131.632  0.00  0.00    +0.000 N 
ATOM      9  H   UNK A   1      -9.373   5.934 128.523  0.00  0.00    +0.000 HD
ENDROOT
BRANCH   5  10
ATOM     10  C   UNK A   1     -10.338   7.145 130.687  0.00  0.00    +0.000 C 
ATOM     11  C   UNK A   1     -11.867   7.285 130.785  0.00  0.00    +0.000 C 
ATOM     12  C   UNK A   1     -12.261   7.353 129.333  0.00  0.00    +0.000 A 
ATOM     13  C   UNK A   1     -13.470   6.977 128.774  0.00  0.00    +0.000 A 
ATOM     14  C   UNK A   1     -13.569   6.931 127.381  0.00  0.00    +0.000 A 
ATOM     15  C   UNK A   1     -12.460   7.220 126.569  0.00  0.00    +0.000 A 
ATOM     16  C   UNK A   1     -11.231   7.560 127.136  0.00  0.00    +0.000 A 
ATOM     17  C   UNK A   1     -11.149   7.645 128.519  0.00  0.00    +0.000 A 
ATOM     18  C   UNK A   1      -9.916   7.835 129.355  0.00  0.00    +0.000 C 
ENDBRANCH   5  10
BRANCH   1  19
ATOM     19  CB  LEU A   2      -7.597   2.458 130.056  0.00  0.00    +0.000 C 
BRANCH  19  21
ATOM     20  CD1 LEU A   2      -9.001  -0.024 131.800  0.00  0.00    +0.000 C 
ATOM     21  CG  LEU A   2      -7.898   0.762 130.451  0.00  0.00    +0.000 C 
ATOM     22  CD2 LEU A   2      -7.720  -0.037 129.045  0.00  0.00    +0.000 C 
ENDBRANCH  19  21
ENDBRANCH   1  19
BRANCH   8  23
ATOM     23  C   UNK A   0      -6.828   4.026 132.415  0.00  0.00    +0.000 C 
BRANCH  23  24
ATOM     24  C   UNK A   0      -5.682   4.813 131.730  0.00  0.00    +0.000 A 
ATOM     25  C   UNK A   0      -5.758   6.177 131.430  0.00  0.00    +0.000 A 
ATOM     26  C   UNK A   0      -4.812   6.788 130.615  0.00  0.00    +0.000 A 
ATOM     27  C   UNK A   0      -3.639   6.117 130.294  0.00  0.00    +0.000 A 
ATOM     28  C   UNK A   0      -3.495   4.789 130.667  0.00  0.00    +0.000 A 
ATOM     29  C   UNK A   0      -4.527   4.139 131.320  0.00  0.00    +0.000 A 
BRANCH  27  30
ATOM     30  O   UNK A   0      -2.700   6.861 129.646  0.00  0.00    +0.000 OA
BRANCH  30  31
ATOM     31  C   UNK A   0      -2.603   6.634 128.252  0.00  0.00    +0.000 C 
ATOM     32  F   UNK A   0      -2.124   5.398 127.981  0.00  0.00    +0.000 F 
ATOM     33  F   UNK A   0      -3.803   6.795 127.655  0.00  0.00    +0.000 F 
ATOM     34  F   UNK A   0      -1.747   7.536 127.727  0.00  0.00    +0.000 F 
ENDBRANCH  30  31
ENDBRANCH  27  30
ENDBRANCH  23  24
BRANCH  23  35
ATOM     35  C   UNK A   0      -6.529   4.127 134.119  0.00  0.00    +0.000 C 
ATOM     36  O   UNK A   0      -6.137   3.182 134.792  0.00  0.00    +0.000 OA
ATOM     37  N   UNK A   0      -6.792   5.268 134.833  0.00  0.00    +0.000 N 
ATOM     38  H   UNK A   0      -7.408   6.002 134.622  0.00  0.00    +0.000 HD
BRANCH  37  39
ATOM     39  C   UNK A   0      -6.028   5.932 135.847  0.00  0.00    +0.000 C 
ATOM     40  C   UNK A   0      -5.754   4.775 136.741  0.00  0.00    +0.000 C 
ATOM     41  C   UNK A   0      -4.550   6.566 134.963  0.00  0.00    +0.000 C 
ATOM     42  C   UNK A   0      -7.343   6.821 136.894  0.00  0.00    +0.000 C 
ENDBRANCH  37  39
ENDBRANCH  23  35
ENDBRANCH   8  23
TORSDOF 9
ENDMDL
MODEL 2
REMARK VINA RESULT:     -10.1      4.628      9.795
REMARK  Name = CHEMBL372516
REMARK  14 active torsions:
REMARK  status: ('A' for Active; 'I' for Inactive)
REMARK    1  A    between atoms: CD1_1  and  CG_2
REMARK    2  A    between atoms: CG_2  and  CD2_3
REMARK    3  A    between atoms: CG_2  and  CB_4
REMARK    4  A    between atoms: CB_4  and  CA_5
REMARK    5  A    between atoms: C_9  and  C_10
REMARK    6  A    between atoms: N_21  and  C_22
REMARK    7  A    between atoms: C_22  and  C_23
REMARK    8  A    between atoms: C_22  and  C_30
REMARK    9  A    between atoms: N_25  and  C_26
REMARK   10  A    between atoms: C_26  and  C_27
REMARK   11  A    between atoms: C_26  and  C_28
REMARK   12  A    between atoms: C_26  and  C_29
REMARK   13  A    between atoms: C_33  and  O_34
REMARK   14  A    between atoms: O_34  and  C_35
REMARK                            x       y       z     vdW  Elec       q    Type
REMARK                         _______ _______ _______ _____ _____    ______ ____
ROOT
ATOM      1  CA  LEU A   2      -7.777  -0.016 130.074  0.00  0.00    +0.000 C 
ATOM      2  C   LEU A   2      -6.371   0.094 130.710  0.00  0.00    +0.000 C 
ATOM      3  O   LEU A   2      -5.814   1.010 131.238  0.00  0.00    +0.000 OA
ATOM      4  N   UNK A   1      -5.731  -1.087 130.626  0.00  0.00    +0.000 N 
ATOM      5  C   UNK A   1      -6.379  -2.255 130.106  0.00  0.00    +0.000 C 
ATOM      6  C   UNK A   1      -7.067  -1.948 128.741  0.00  0.00    +0.000 C 
ATOM      7  O   UNK A   1      -7.069  -2.768 127.845  0.00  0.00    +0.000 OA
ATOM      8  N   LEU A   2      -7.709  -0.687 128.716  0.00  0.00    +0.000 N 
ATOM      9  H   UNK A   1      -4.831  -1.011 131.076  0.00  0.00    +0.000 HD
ENDROOT
BRANCH   5  10
ATOM     10  C   UNK A   1      -5.332  -3.331 129.872  0.00  0.00    +0.000 C 
ATOM     11  C   UNK A   1      -5.796  -4.658 130.496  0.00  0.00    +0.000 C 
ATOM     12  C   UNK A   1      -5.215  -4.563 131.883  0.00  0.00    +0.000 A 
ATOM     13  C   UNK A   1      -5.688  -5.167 133.034  0.00  0.00    +0.000 A 
ATOM     14  C   UNK A   1      -5.125  -4.794 134.257  0.00  0.00    +0.000 A 
ATOM     15  C   UNK A   1      -4.130  -3.804 134.321  0.00  0.00    +0.000 A 
ATOM     16  C   UNK A   1      -3.682  -3.168 133.163  0.00  0.00    +0.000 A 
ATOM     17  C   UNK A   1      -4.216  -3.571 131.947  0.00  0.00    +0.000 A 
ATOM     18  C   UNK A   1      -4.012  -2.937 130.601  0.00  0.00    +0.000 C 
ENDBRANCH   5  10
BRANCH   1  19
ATOM     19  CB  LEU A   2      -8.064   1.403 129.933  0.00  0.00    +0.000 C 
BRANCH  19  21
ATOM     20  CD1 LEU A   2      -8.923   2.392 133.009  0.00  0.00    +0.000 C 
ATOM     21  CG  LEU A   2      -9.162   2.091 131.135  0.00  0.00    +0.000 C 
ATOM     22  CD2 LEU A   2     -10.100   3.130 130.306  0.00  0.00    +0.000 C 
ENDBRANCH  19  21
ENDBRANCH   1  19
BRANCH   8  23
ATOM     23  C   UNK A   0      -8.016   0.044 127.333  0.00  0.00    +0.000 C 
BRANCH  23  24
ATOM     24  C   UNK A   0      -6.826   0.938 126.904  0.00  0.00    +0.000 A 
ATOM     25  C   UNK A   0      -5.558   0.436 126.593  0.00  0.00    +0.000 A 
ATOM     26  C   UNK A   0      -4.467   1.283 126.440  0.00  0.00    +0.000 A 
ATOM     27  C   UNK A   0      -4.663   2.654 126.341  0.00  0.00    +0.000 A 
ATOM     28  C   UNK A   0      -5.932   3.172 126.547  0.00  0.00    +0.000 A 
ATOM     29  C   UNK A   0      -6.977   2.329 126.882  0.00  0.00    +0.000 A 
BRANCH  27  30
ATOM     30  O   UNK A   0      -3.558   3.379 126.013  0.00  0.00    +0.000 OA
BRANCH  30  31
ATOM     31  C   UNK A   0      -2.579   3.487 127.030  0.00  0.00    +0.000 C 
ATOM     32  F   UNK A   0      -3.039   3.027 128.216  0.00  0.00    +0.000 F 
ATOM     33  F   UNK A   0      -1.458   2.816 126.689  0.00  0.00    +0.000 F 
ATOM     34  F   UNK A   0      -2.260   4.789 127.185  0.00  0.00    +0.000 F 
ENDBRANCH  30  31
ENDBRANCH  27  30
ENDBRANCH  23  24
BRANCH  23  35
ATOM     35  C   UNK A   0      -8.659  -0.633 125.872  0.00  0.00    +0.000 C 
ATOM     36  O   UNK A   0      -9.631  -0.171 125.287  0.00  0.00    +0.000 OA
ATOM     37  N   UNK A   0      -8.155  -1.784 125.324  0.00  0.00    +0.000 N 
ATOM     38  H   UNK A   0      -7.648  -2.505 125.757  0.00  0.00    +0.000 HD
BRANCH  37  39
ATOM     39  C   UNK A   0      -7.858  -2.119 123.963  0.00  0.00    +0.000 C 
ATOM     40  C   UNK A   0      -6.678  -2.999 124.182  0.00  0.00    +0.000 C 
ATOM     41  C   UNK A   0      -9.355  -3.002 123.374  0.00  0.00    +0.000 C 
ATOM     42  C   UNK A   0      -6.969  -0.575 123.300  0.00  0.00    +0.000 C 
ENDBRANCH  37  39
ENDBRANCH  23  35
ENDBRANCH   8  23
TORSDOF 9
ENDMDL
MODEL 3
REMARK VINA RESULT:     -10.1      1.894      2.657
REMARK  Name = CHEMBL372516
REMARK  14 active torsions:
REMARK  status: ('A' for Active; 'I' for Inactive)
REMARK    1  A    between atoms: CD1_1  and  CG_2
REMARK    2  A    between atoms: CG_2  and  CD2_3
REMARK    3  A    between atoms: CG_2  and  CB_4
REMARK    4  A    between atoms: CB_4  and  CA_5
REMARK    5  A    between atoms: C_9  and  C_10
REMARK    6  A    between atoms: N_21  and  C_22
REMARK    7  A    between atoms: C_22  and  C_23
REMARK    8  A    between atoms: C_22  and  C_30
REMARK    9  A    between atoms: N_25  and  C_26
REMARK   10  A    between atoms: C_26  and  C_27
REMARK   11  A    between atoms: C_26  and  C_28
REMARK   12  A    between atoms: C_26  and  C_29
REMARK   13  A    between atoms: C_33  and  O_34
REMARK   14  A    between atoms: O_34  and  C_35
REMARK                            x       y       z     vdW  Elec       q    Type
REMARK                         _______ _______ _______ _____ _____    ______ ____
ROOT
ATOM      1  CA  LEU A   2      -8.424   2.829 128.972  0.00  0.00    +0.000 C 
ATOM      2  C   LEU A   2      -8.497   4.213 128.283  0.00  0.00    +0.000 C 
ATOM      3  O   LEU A   2      -8.247   4.550 127.163  0.00  0.00    +0.000 OA
ATOM      4  N   UNK A   1      -8.937   5.141 129.152  0.00  0.00    +0.000 N 
ATOM      5  C   UNK A   1      -9.361   4.787 130.475  0.00  0.00    +0.000 C 
ATOM      6  C   UNK A   1      -8.296   3.891 131.179  0.00  0.00    +0.000 C 
ATOM      7  O   UNK A   1      -8.061   4.015 132.364  0.00  0.00    +0.000 OA
ATOM      8  N   LEU A   2      -7.726   2.927 130.314  0.00  0.00    +0.000 N 
ATOM      9  H   UNK A   1      -9.014   6.029 128.680  0.00  0.00    +0.000 HD
ENDROOT
BRANCH   5  10
ATOM     10  C   UNK A   1      -9.518   6.058 131.293  0.00  0.00    +0.000 C 
ATOM     11  C   UNK A   1     -10.989   6.233 131.710  0.00  0.00    +0.000 C 
ATOM     12  C   UNK A   1     -11.536   7.044 130.565  0.00  0.00    +0.000 A 
ATOM     13  C   UNK A   1     -12.844   7.081 130.114  0.00  0.00    +0.000 A 
ATOM     14  C   UNK A   1     -13.111   7.744 128.913  0.00  0.00    +0.000 A 
ATOM     15  C   UNK A   1     -12.074   8.325 128.164  0.00  0.00    +0.000 A 
ATOM     16  C   UNK A   1     -10.751   8.252 128.602  0.00  0.00    +0.000 A 
ATOM     17  C   UNK A   1     -10.497   7.628 129.815  0.00  0.00    +0.000 A 
ATOM     18  C   UNK A   1      -9.160   7.290 130.410  0.00  0.00    +0.000 C 
ENDBRANCH   5  10
BRANCH   1  19
ATOM     19  CB  LEU A   2      -7.582   2.147 128.002  0.00  0.00    +0.000 C 
BRANCH  19  21
ATOM     20  CD1 LEU A   2      -9.467   0.511 125.778  0.00  0.00    +0.000 C 
ATOM     21  CG  LEU A   2      -8.276   0.699 127.262  0.00  0.00    +0.000 C 
ATOM     22  CD2 LEU A   2      -7.178  -0.474 127.518  0.00  0.00    +0.000 C 
ENDBRANCH  19  21
ENDBRANCH   1  19
BRANCH   8  23
ATOM     23  C   UNK A   0      -6.308   2.275 130.642  0.00  0.00    +0.000 C 
BRANCH  23  24
ATOM     24  C   UNK A   0      -5.157   3.250 130.290  0.00  0.00    +0.000 A 
ATOM     25  C   UNK A   0      -4.971   4.483 130.922  0.00  0.00    +0.000 A 
ATOM     26  C   UNK A   0      -4.075   5.420 130.423  0.00  0.00    +0.000 A 
ATOM     27  C   UNK A   0      -3.165   5.052 129.440  0.00  0.00    +0.000 A 
ATOM     28  C   UNK A   0      -3.264   3.795 128.863  0.00  0.00    +0.000 A 
ATOM     29  C   UNK A   0      -4.281   2.938 129.244  0.00  0.00    +0.000 A 
BRANCH  27  30
ATOM     30  O   UNK A   0      -2.215   5.983 129.147  0.00  0.00    +0.000 OA
BRANCH  30  31
ATOM     31  C   UNK A   0      -2.629   7.020 128.277  0.00  0.00    +0.000 C 
ATOM     32  F   UNK A   0      -1.599   7.493 127.540  0.00  0.00    +0.000 F 
ATOM     33  F   UNK A   0      -3.613   6.594 127.457  0.00  0.00    +0.000 F 
ATOM     34  F   UNK A   0      -3.112   8.039 129.019  0.00  0.00    +0.000 F 
ENDBRANCH  30  31
ENDBRANCH  27  30
ENDBRANCH  23  24
BRANCH  23  35
ATOM     35  C   UNK A   0      -5.808   1.440 132.077  0.00  0.00    +0.000 C 
ATOM     36  O   UNK A   0      -5.396   0.286 132.075  0.00  0.00    +0.000 OA
ATOM     37  N   UNK A   0      -5.920   2.006 133.320  0.00  0.00    +0.000 N 
ATOM     38  H   UNK A   0      -6.514   2.729 133.620  0.00  0.00    +0.000 HD
BRANCH  37  39
ATOM     39  C   UNK A   0      -5.007   2.025 134.424  0.00  0.00    +0.000 C 
ATOM     40  C   UNK A   0      -5.421   3.306 135.058  0.00  0.00    +0.000 C 
ATOM     41  C   UNK A   0      -5.438   0.531 135.398  0.00  0.00    +0.000 C 
ATOM     42  C   UNK A   0      -3.367   2.586 133.645  0.00  0.00    +0.000 C 
ENDBRANCH  37  39
ENDBRANCH  23  35
ENDBRANCH   8  23
TORSDOF 9
ENDMDL
MODEL 4
REMARK VINA RESULT:      -9.8      2.360      3.692
REMARK  Name = CHEMBL372516
REMARK  14 active torsions:
REMARK  status: ('A' for Active; 'I' for Inactive)
REMARK    1  A    between atoms: CD1_1  and  CG_2
REMARK    2  A    between atoms: CG_2  and  CD2_3
REMARK    3  A    between atoms: CG_2  and  CB_4
REMARK    4  A    between atoms: CB_4  and  CA_5
REMARK    5  A    between atoms: C_9  and  C_10
REMARK    6  A    between atoms: N_21  and  C_22
REMARK    7  A    between atoms: C_22  and  C_23
REMARK    8  A    between atoms: C_22  and  C_30
REMARK    9  A    between atoms: N_25  and  C_26
REMARK   10  A    between atoms: C_26  and  C_27
REMARK   11  A    between atoms: C_26  and  C_28
REMARK   12  A    between atoms: C_26  and  C_29
REMARK   13  A    between atoms: C_33  and  O_34
REMARK   14  A    between atoms: O_34  and  C_35
REMARK                            x       y       z     vdW  Elec       q    Type
REMARK                         _______ _______ _______ _____ _____    ______ ____
ROOT
ATOM      1  CA  LEU A   2      -8.413   2.755 128.968  0.00  0.00    +0.000 C 
ATOM      2  C   LEU A   2      -8.141   4.147 128.350  0.00  0.00    +0.000 C 
ATOM      3  O   LEU A   2      -7.612   4.464 127.325  0.00  0.00    +0.000 OA
ATOM      4  N   UNK A   1      -8.619   5.114 129.153  0.00  0.00    +0.000 N 
ATOM      5  C   UNK A   1      -9.360   4.802 130.341  0.00  0.00    +0.000 C 
ATOM      6  C   UNK A   1      -8.608   3.744 131.205  0.00  0.00    +0.000 C 
ATOM      7  O   UNK A   1      -8.616   3.809 132.417  0.00  0.00    +0.000 OA
ATOM      8  N   LEU A   2      -8.010   2.722 130.430  0.00  0.00    +0.000 N 
ATOM      9  H   UNK A   1      -8.466   6.012 128.721  0.00  0.00    +0.000 HD
ENDROOT
BRANCH   5  10
ATOM     10  C   UNK A   1      -9.505   6.067 131.171  0.00  0.00    +0.000 C 
ATOM     11  C   UNK A   1     -10.977   6.259 131.577  0.00  0.00    +0.000 C 
ATOM     12  C   UNK A   1     -11.503   7.091 130.437  0.00  0.00    +0.000 A 
ATOM     13  C   UNK A   1     -12.806   7.152 129.975  0.00  0.00    +0.000 A 
ATOM     14  C   UNK A   1     -13.053   7.832 128.779  0.00  0.00    +0.000 A 
ATOM     15  C   UNK A   1     -12.002   8.405 128.044  0.00  0.00    +0.000 A 
ATOM     16  C   UNK A   1     -10.683   8.307 128.492  0.00  0.00    +0.000 A 
ATOM     17  C   UNK A   1     -10.449   7.667 129.701  0.00  0.00    +0.000 A 
ATOM     18  C   UNK A   1      -9.122   7.303 130.304  0.00  0.00    +0.000 C 
ENDBRANCH   5  10
BRANCH   1  19
ATOM     19  CB  LEU A   2      -7.491   1.973 128.162  0.00  0.00    +0.000 C 
BRANCH  19  21
ATOM     20  CD1 LEU A   2      -8.928  -0.027 125.901  0.00  0.00    +0.000 C 
ATOM     21  CG  LEU A   2      -8.106   0.426 127.567  0.00  0.00    +0.000 C 
ATOM     22  CD2 LEU A   2      -7.197  -0.703 128.306  0.00  0.00    +0.000 C 
ENDBRANCH  19  21
ENDBRANCH   1  19
BRANCH   8  23
ATOM     23  C   UNK A   0      -6.802   1.859 131.012  0.00  0.00    +0.000 C 
BRANCH  23  24
ATOM     24  C   UNK A   0      -5.521   2.720 131.143  0.00  0.00    +0.000 A 
ATOM     25  C   UNK A   0      -5.185   3.430 132.300  0.00  0.00    +0.000 A 
ATOM     26  C   UNK A   0      -4.158   4.366 132.297  0.00  0.00    +0.000 A 
ATOM     27  C   UNK A   0      -3.283   4.429 131.221  0.00  0.00    +0.000 A 
ATOM     28  C   UNK A   0      -3.536   3.659 130.096  0.00  0.00    +0.000 A 
ATOM     29  C   UNK A   0      -4.670   2.867 130.042  0.00  0.00    +0.000 A 
BRANCH  27  30
ATOM     30  O   UNK A   0      -2.208   5.248 131.390  0.00  0.00    +0.000 OA
BRANCH  30  31
ATOM     31  C   UNK A   0      -2.304   6.513 130.762  0.00  0.00    +0.000 C 
ATOM     32  F   UNK A   0      -3.567   6.772 130.354  0.00  0.00    +0.000 F 
ATOM     33  F   UNK A   0      -1.888   7.493 131.592  0.00  0.00    +0.000 F 
ATOM     34  F   UNK A   0      -1.507   6.516 129.674  0.00  0.00    +0.000 F 
ENDBRANCH  30  31
ENDBRANCH  27  30
ENDBRANCH  23  24
BRANCH  23  35
ATOM     35  C   UNK A   0      -6.800   0.783 132.371  0.00  0.00    +0.000 C 
ATOM     36  O   UNK A   0      -7.550   0.909 133.332  0.00  0.00    +0.000 OA
ATOM     37  N   UNK A   0      -5.894  -0.240 132.483  0.00  0.00    +0.000 N 
ATOM     38  H   UNK A   0      -5.012  -0.335 132.060  0.00  0.00    +0.000 HD
BRANCH  37  39
ATOM     39  C   UNK A   0      -6.066  -1.601 132.895  0.00  0.00    +0.000 C 
ATOM     40  C   UNK A   0      -4.899  -2.213 132.205  0.00  0.00    +0.000 C 
ATOM     41  C   UNK A   0      -5.915  -1.547 134.723  0.00  0.00    +0.000 C 
ATOM     42  C   UNK A   0      -7.457  -2.242 131.769  0.00  0.00    +0.000 C 
ENDBRANCH  37  39
ENDBRANCH  23  35
ENDBRANCH   8  23
TORSDOF 9
ENDMDL
MODEL 5
REMARK VINA RESULT:      -9.7      4.176      6.405
REMARK  Name = CHEMBL372516
REMARK  14 active torsions:
REMARK  status: ('A' for Active; 'I' for Inactive)
REMARK    1  A    between atoms: CD1_1  and  CG_2
REMARK    2  A    between atoms: CG_2  and  CD2_3
REMARK    3  A    between atoms: CG_2  and  CB_4
REMARK    4  A    between atoms: CB_4  and  CA_5
REMARK    5  A    between atoms: C_9  and  C_10
REMARK    6  A    between atoms: N_21  and  C_22
REMARK    7  A    between atoms: C_22  and  C_23
REMARK    8  A    between atoms: C_22  and  C_30
REMARK    9  A    between atoms: N_25  and  C_26
REMARK   10  A    between atoms: C_26  and  C_27
REMARK   11  A    between atoms: C_26  and  C_28
REMARK   12  A    between atoms: C_26  and  C_29
REMARK   13  A    between atoms: C_33  and  O_34
REMARK   14  A    between atoms: O_34  and  C_35
REMARK                            x       y       z     vdW  Elec       q    Type
REMARK                         _______ _______ _______ _____ _____    ______ ____
ROOT
ATOM      1  CA  LEU A   2      -8.094   2.803 128.621  0.00  0.00    +0.000 C 
ATOM      2  C   LEU A   2      -8.316   4.243 128.101  0.00  0.00    +0.000 C 
ATOM      3  O   LEU A   2      -8.276   4.696 126.995  0.00  0.00    +0.000 OA
ATOM      4  N   UNK A   1      -8.612   5.065 129.124  0.00  0.00    +0.000 N 
ATOM      5  C   UNK A   1      -8.786   4.568 130.458  0.00  0.00    +0.000 C 
ATOM      6  C   UNK A   1      -7.595   3.648 130.869  0.00  0.00    +0.000 C 
ATOM      7  O   UNK A   1      -7.156   3.665 132.000  0.00  0.00    +0.000 OA
ATOM      8  N   LEU A   2      -7.169   2.795 129.823  0.00  0.00    +0.000 N 
ATOM      9  H   UNK A   1      -8.789   5.991 128.767  0.00  0.00    +0.000 HD
ENDROOT
BRANCH   5  10
ATOM     10  C   UNK A   1      -8.820   5.746 131.417  0.00  0.00    +0.000 C 
ATOM     11  C   UNK A   1     -10.156   5.761 132.180  0.00  0.00    +0.000 C 
ATOM     12  C   UNK A   1     -11.010   6.618 131.285  0.00  0.00    +0.000 A 
ATOM     13  C   UNK A   1     -12.388   6.584 131.156  0.00  0.00    +0.000 A 
ATOM     14  C   UNK A   1     -12.975   7.323 130.125  0.00  0.00    +0.000 A 
ATOM     15  C   UNK A   1     -12.186   8.051 129.220  0.00  0.00    +0.000 A 
ATOM     16  C   UNK A   1     -10.794   8.052 129.327  0.00  0.00    +0.000 A 
ATOM     17  C   UNK A   1     -10.219   7.350 130.377  0.00  0.00    +0.000 A 
ATOM     18  C   UNK A   1      -8.760   7.076 130.607  0.00  0.00    +0.000 C 
ENDBRANCH   5  10
BRANCH   1  19
ATOM     19  CB  LEU A   2      -7.425   2.250 127.454  0.00  0.00    +0.000 C 
BRANCH  19  21
ATOM     20  CD1 LEU A   2      -9.761   0.603 125.719  0.00  0.00    +0.000 C 
ATOM     21  CG  LEU A   2      -8.165   0.805 126.753  0.00  0.00    +0.000 C 
ATOM     22  CD2 LEU A   2      -6.923  -0.201 126.451  0.00  0.00    +0.000 C 
ENDBRANCH  19  21
ENDBRANCH   1  19
BRANCH   8  23
ATOM     23  C   UNK A   0      -5.704   2.168 129.829  0.00  0.00    +0.000 C 
BRANCH  23  24
ATOM     24  C   UNK A   0      -5.733   0.700 130.323  0.00  0.00    +0.000 A 
ATOM     25  C   UNK A   0      -4.637   0.065 130.917  0.00  0.00    +0.000 A 
ATOM     26  C   UNK A   0      -4.631  -1.308 131.133  0.00  0.00    +0.000 A 
ATOM     27  C   UNK A   0      -5.807  -2.034 131.000  0.00  0.00    +0.000 A 
ATOM     28  C   UNK A   0      -6.940  -1.405 130.506  0.00  0.00    +0.000 A 
ATOM     29  C   UNK A   0      -6.880  -0.077 130.121  0.00  0.00    +0.000 A 
BRANCH  27  30
ATOM     30  O   UNK A   0      -5.740  -3.332 131.406  0.00  0.00    +0.000 OA
BRANCH  30  31
ATOM     31  C   UNK A   0      -5.696  -4.292 130.367  0.00  0.00    +0.000 C 
ATOM     32  F   UNK A   0      -6.865  -4.347 129.688  0.00  0.00    +0.000 F 
ATOM     33  F   UNK A   0      -4.688  -4.024 129.509  0.00  0.00    +0.000 F 
ATOM     34  F   UNK A   0      -5.474  -5.507 130.910  0.00  0.00    +0.000 F 
ENDBRANCH  30  31
ENDBRANCH  27  30
ENDBRANCH  23  24
BRANCH  23  35
ATOM     35  C   UNK A   0      -4.496   2.232 128.587  0.00  0.00    +0.000 C 
ATOM     36  O   UNK A   0      -4.366   1.368 127.728  0.00  0.00    +0.000 OA
ATOM     37  N   UNK A   0      -3.557   3.230 128.541  0.00  0.00    +0.000 N 
ATOM     38  H   UNK A   0      -3.231   3.807 129.267  0.00  0.00    +0.000 HD
BRANCH  37  39
ATOM     39  C   UNK A   0      -3.057   3.994 127.437  0.00  0.00    +0.000 C 
ATOM     40  C   UNK A   0      -2.643   5.225 128.163  0.00  0.00    +0.000 C 
ATOM     41  C   UNK A   0      -1.659   2.997 126.790  0.00  0.00    +0.000 C 
ATOM     42  C   UNK A   0      -4.628   4.650 126.593  0.00  0.00    +0.000 C 
ENDBRANCH  37  39
ENDBRANCH  23  35
ENDBRANCH   8  23
TORSDOF 9
ENDMDL
MODEL 6
REMARK VINA RESULT:      -9.6      3.385      7.428
REMARK  Name = CHEMBL372516
REMARK  14 active torsions:
REMARK  status: ('A' for Active; 'I' for Inactive)
REMARK    1  A    between atoms: CD1_1  and  CG_2
REMARK    2  A    between atoms: CG_2  and  CD2_3
REMARK    3  A    between atoms: CG_2  and  CB_4
REMARK    4  A    between atoms: CB_4  and  CA_5
REMARK    5  A    between atoms: C_9  and  C_10
REMARK    6  A    between atoms: N_21  and  C_22
REMARK    7  A    between atoms: C_22  and  C_23
REMARK    8  A    between atoms: C_22  and  C_30
REMARK    9  A    between atoms: N_25  and  C_26
REMARK   10  A    between atoms: C_26  and  C_27
REMARK   11  A    between atoms: C_26  and  C_28
REMARK   12  A    between atoms: C_26  and  C_29
REMARK   13  A    between atoms: C_33  and  O_34
REMARK   14  A    between atoms: O_34  and  C_35
REMARK                            x       y       z     vdW  Elec       q    Type
REMARK                         _______ _______ _______ _____ _____    ______ ____
ROOT
ATOM      1  CA  LEU A   2      -5.602   2.724 130.980  0.00  0.00    +0.000 C 
ATOM      2  C   LEU A   2      -6.218   2.112 129.699  0.00  0.00    +0.000 C 
ATOM      3  O   LEU A   2      -6.121   2.428 128.550  0.00  0.00    +0.000 OA
ATOM      4  N   UNK A   1      -6.966   1.039 130.011  0.00  0.00    +0.000 N 
ATOM      5  C   UNK A   1      -7.036   0.539 131.353  0.00  0.00    +0.000 C 
ATOM      6  C   UNK A   1      -7.346   1.689 132.360  0.00  0.00    +0.000 C 
ATOM      7  O   UNK A   1      -8.072   1.503 133.314  0.00  0.00    +0.000 OA
ATOM      8  N   LEU A   2      -6.651   2.886 132.063  0.00  0.00    +0.000 N 
ATOM      9  H   UNK A   1      -7.331   0.630 129.165  0.00  0.00    +0.000 HD
ENDROOT
BRANCH   5  10
ATOM     10  C   UNK A   1      -8.164  -0.475 131.438  0.00  0.00    +0.000 C 
ATOM     11  C   UNK A   1      -7.906  -1.449 132.600  0.00  0.00    +0.000 C 
ATOM     12  C   UNK A   1      -7.134  -2.545 131.914  0.00  0.00    +0.000 A 
ATOM     13  C   UNK A   1      -6.214  -3.407 132.486  0.00  0.00    +0.000 A 
ATOM     14  C   UNK A   1      -5.457  -4.223 131.640  0.00  0.00    +0.000 A 
ATOM     15  C   UNK A   1      -5.599  -4.145 130.245  0.00  0.00    +0.000 A 
ATOM     16  C   UNK A   1      -6.500  -3.246 129.670  0.00  0.00    +0.000 A 
ATOM     17  C   UNK A   1      -7.277  -2.467 130.515  0.00  0.00    +0.000 A 
ATOM     18  C   UNK A   1      -8.188  -1.334 130.139  0.00  0.00    +0.000 C 
ENDBRANCH   5  10
BRANCH   1  19
ATOM     19  CB  LEU A   2      -5.216   4.018 130.440  0.00  0.00    +0.000 C 
BRANCH  19  21
ATOM     20  CD1 LEU A   2      -2.496   4.210 132.374  0.00  0.00    +0.000 C 
ATOM     21  CG  LEU A   2      -3.585   4.567 130.843  0.00  0.00    +0.000 C 
ATOM     22  CD2 LEU A   2      -2.846   4.783 129.410  0.00  0.00    +0.000 C 
ENDBRANCH  19  21
ENDBRANCH   1  19
BRANCH   8  23
ATOM     23  C   UNK A   0      -7.176   4.289 132.607  0.00  0.00    +0.000 C 
BRANCH  23  24
ATOM     24  C   UNK A   0      -8.343   4.817 131.736  0.00  0.00    +0.000 A 
ATOM     25  C   UNK A   0      -9.411   4.019 131.312  0.00  0.00    +0.000 A 
ATOM     26  C   UNK A   0     -10.307   4.467 130.349  0.00  0.00    +0.000 A 
ATOM     27  C   UNK A   0     -10.311   5.805 129.977  0.00  0.00    +0.000 A 
ATOM     28  C   UNK A   0      -9.320   6.645 130.461  0.00  0.00    +0.000 A 
ATOM     29  C   UNK A   0      -8.323   6.139 131.277  0.00  0.00    +0.000 A 
BRANCH  27  30
ATOM     30  O   UNK A   0     -11.339   6.182 129.167  0.00  0.00    +0.000 OA
BRANCH  30  31
ATOM     31  C   UNK A   0     -12.357   6.941 129.793  0.00  0.00    +0.000 C 
ATOM     32  F   UNK A   0     -12.569   6.537 131.067  0.00  0.00    +0.000 F 
ATOM     33  F   UNK A   0     -12.051   8.256 129.781  0.00  0.00    +0.000 F 
ATOM     34  F   UNK A   0     -13.506   6.770 129.106  0.00  0.00    +0.000 F 
ENDBRANCH  30  31
ENDBRANCH  27  30
ENDBRANCH  23  24
BRANCH  23  35
ATOM     35  C   UNK A   0      -7.549   4.746 134.237  0.00  0.00    +0.000 C 
ATOM     36  O   UNK A   0      -8.493   4.284 134.867  0.00  0.00    +0.000 OA
ATOM     37  N   UNK A   0      -6.843   5.719 134.896  0.00  0.00    +0.000 N 
ATOM     38  H   UNK A   0      -6.307   6.453 134.525  0.00  0.00    +0.000 HD
BRANCH  37  39
ATOM     39  C   UNK A   0      -6.344   5.766 136.238  0.00  0.00    +0.000 C 
ATOM     40  C   UNK A   0      -5.194   6.687 136.037  0.00  0.00    +0.000 C 
ATOM     41  C   UNK A   0      -7.723   6.487 137.211  0.00  0.00    +0.000 C 
ATOM     42  C   UNK A   0      -5.397   4.129 136.426  0.00  0.00    +0.000 C 
ENDBRANCH  37  39
ENDBRANCH  23  35
ENDBRANCH   8  23
TORSDOF 9
ENDMDL
MODEL 7
REMARK VINA RESULT:      -9.6      3.599      7.234
REMARK  Name = CHEMBL372516
REMARK  14 active torsions:
REMARK  status: ('A' for Active; 'I' for Inactive)
REMARK    1  A    between atoms: CD1_1  and  CG_2
REMARK    2  A    between atoms: CG_2  and  CD2_3
REMARK    3  A    between atoms: CG_2  and  CB_4
REMARK    4  A    between atoms: CB_4  and  CA_5
REMARK    5  A    between atoms: C_9  and  C_10
REMARK    6  A    between atoms: N_21  and  C_22
REMARK    7  A    between atoms: C_22  and  C_23
REMARK    8  A    between atoms: C_22  and  C_30
REMARK    9  A    between atoms: N_25  and  C_26
REMARK   10  A    between atoms: C_26  and  C_27
REMARK   11  A    between atoms: C_26  and  C_28
REMARK   12  A    between atoms: C_26  and  C_29
REMARK   13  A    between atoms: C_33  and  O_34
REMARK   14  A    between atoms: O_34  and  C_35
REMARK                            x       y       z     vdW  Elec       q    Type
REMARK                         _______ _______ _______ _____ _____    ______ ____
ROOT
ATOM      1  CA  LEU A   2      -4.916   2.730 129.801  0.00  0.00    +0.000 C 
ATOM      2  C   LEU A   2      -6.220   2.211 129.149  0.00  0.00    +0.000 C 
ATOM      3  O   LEU A   2      -6.721   2.451 128.090  0.00  0.00    +0.000 OA
ATOM      4  N   UNK A   1      -6.833   1.338 129.969  0.00  0.00    +0.000 N 
ATOM      5  C   UNK A   1      -6.233   0.922 131.203  0.00  0.00    +0.000 C 
ATOM      6  C   UNK A   1      -5.755   2.153 132.032  0.00  0.00    +0.000 C 
ATOM      7  O   UNK A   1      -5.858   2.168 133.242  0.00  0.00    +0.000 OA
ATOM      8  N   LEU A   2      -5.159   3.159 131.235  0.00  0.00    +0.000 N 
ATOM      9  H   UNK A   1      -7.661   0.982 129.517  0.00  0.00    +0.000 HD
ENDROOT
BRANCH   5  10
ATOM     10  C   UNK A   1      -7.274   0.179 132.024  0.00  0.00    +0.000 C 
ATOM     11  C   UNK A   1      -6.629  -1.041 132.705  0.00  0.00    +0.000 C 
ATOM     12  C   UNK A   1      -6.849  -2.117 131.674  0.00  0.00    +0.000 A 
ATOM     13  C   UNK A   1      -6.085  -3.253 131.472  0.00  0.00    +0.000 A 
ATOM     14  C   UNK A   1      -6.337  -4.027 130.336  0.00  0.00    +0.000 A 
ATOM     15  C   UNK A   1      -7.313  -3.641 129.402  0.00  0.00    +0.000 A 
ATOM     16  C   UNK A   1      -8.054  -2.473 129.588  0.00  0.00    +0.000 A 
ATOM     17  C   UNK A   1      -7.829  -1.731 130.739  0.00  0.00    +0.000 A 
ATOM     18  C   UNK A   1      -8.381  -0.376 131.079  0.00  0.00    +0.000 C 
ENDBRANCH   5  10
BRANCH   1  19
ATOM     19  CB  LEU A   2      -4.691   3.887 128.949  0.00  0.00    +0.000 C 
BRANCH  19  21
ATOM     20  CD1 LEU A   2      -2.057   3.401 126.948  0.00  0.00    +0.000 C 
ATOM     21  CG  LEU A   2      -3.023   4.144 128.422  0.00  0.00    +0.000 C 
ATOM     22  CD2 LEU A   2      -2.660   5.659 128.891  0.00  0.00    +0.000 C 
ENDBRANCH  19  21
ENDBRANCH   1  19
BRANCH   8  23
ATOM     23  C   UNK A   0      -5.071   4.664 131.753  0.00  0.00    +0.000 C 
BRANCH  23  24
ATOM     24  C   UNK A   0      -6.484   5.282 131.896  0.00  0.00    +0.000 A 
ATOM     25  C   UNK A   0      -7.405   4.881 132.870  0.00  0.00    +0.000 A 
ATOM     26  C   UNK A   0      -8.731   5.292 132.819  0.00  0.00    +0.000 A 
ATOM     27  C   UNK A   0      -9.108   6.308 131.951  0.00  0.00    +0.000 A 
ATOM     28  C   UNK A   0      -8.184   6.795 131.038  0.00  0.00    +0.000 A 
ATOM     29  C   UNK A   0      -6.916   6.245 130.978  0.00  0.00    +0.000 A 
BRANCH  27  30
ATOM     30  O   UNK A   0     -10.382   6.763 132.103  0.00  0.00    +0.000 OA
BRANCH  30  31
ATOM     31  C   UNK A   0     -11.262   6.470 131.033  0.00  0.00    +0.000 C 
ATOM     32  F   UNK A   0     -10.974   5.278 130.463  0.00  0.00    +0.000 F 
ATOM     33  F   UNK A   0     -12.545   6.471 131.454  0.00  0.00    +0.000 F 
ATOM     34  F   UNK A   0     -11.128   7.425 130.090  0.00  0.00    +0.000 F 
ENDBRANCH  30  31
ENDBRANCH  27  30
ENDBRANCH  23  24
BRANCH  23  35
ATOM     35  C   UNK A   0      -4.132   5.304 133.062  0.00  0.00    +0.000 C 
ATOM     36  O   UNK A   0      -3.884   4.675 134.083  0.00  0.00    +0.000 OA
ATOM     37  N   UNK A   0      -3.671   6.595 133.059  0.00  0.00    +0.000 N 
ATOM     38  H   UNK A   0      -4.010   7.373 132.563  0.00  0.00    +0.000 HD
BRANCH  37  39
ATOM     39  C   UNK A   0      -2.395   7.133 133.426  0.00  0.00    +0.000 C 
ATOM     40  C   UNK A   0      -2.375   8.332 132.545  0.00  0.00    +0.000 C 
ATOM     41  C   UNK A   0      -2.560   7.517 135.213  0.00  0.00    +0.000 C 
ATOM     42  C   UNK A   0      -1.155   6.042 132.485  0.00  0.00    +0.000 C 
ENDBRANCH  37  39
ENDBRANCH  23  35
ENDBRANCH   8  23
TORSDOF 9
ENDMDL
MODEL 8
REMARK VINA RESULT:      -9.6      3.062      6.251
REMARK  Name = CHEMBL372516
REMARK  14 active torsions:
REMARK  status: ('A' for Active; 'I' for Inactive)
REMARK    1  A    between atoms: CD1_1  and  CG_2
REMARK    2  A    between atoms: CG_2  and  CD2_3
REMARK    3  A    between atoms: CG_2  and  CB_4
REMARK    4  A    between atoms: CB_4  and  CA_5
REMARK    5  A    between atoms: C_9  and  C_10
REMARK    6  A    between atoms: N_21  and  C_22
REMARK    7  A    between atoms: C_22  and  C_23
REMARK    8  A    between atoms: C_22  and  C_30
REMARK    9  A    between atoms: N_25  and  C_26
REMARK   10  A    between atoms: C_26  and  C_27
REMARK   11  A    between atoms: C_26  and  C_28
REMARK   12  A    between atoms: C_26  and  C_29
REMARK   13  A    between atoms: C_33  and  O_34
REMARK   14  A    between atoms: O_34  and  C_35
REMARK                            x       y       z     vdW  Elec       q    Type
REMARK                         _______ _______ _______ _____ _____    ______ ____
ROOT
ATOM      1  CA  LEU A   2      -6.981  -0.080 130.204  0.00  0.00    +0.000 C 
ATOM      2  C   LEU A   2      -6.045  -0.549 129.065  0.00  0.00    +0.000 C 
ATOM      3  O   LEU A   2      -4.976  -1.084 129.094  0.00  0.00    +0.000 OA
ATOM      4  N   UNK A   1      -6.602  -0.288 127.869  0.00  0.00    +0.000 N 
ATOM      5  C   UNK A   1      -7.927   0.249 127.762  0.00  0.00    +0.000 C 
ATOM      6  C   UNK A   1      -8.101   1.491 128.689  0.00  0.00    +0.000 C 
ATOM      7  O   UNK A   1      -8.760   2.447 128.335  0.00  0.00    +0.000 OA
ATOM      8  N   LEU A   2      -7.480   1.330 129.951  0.00  0.00    +0.000 N 
ATOM      9  H   UNK A   1      -5.998  -0.632 127.138  0.00  0.00    +0.000 HD
ENDROOT
BRANCH   5  10
ATOM     10  C   UNK A   1      -8.156   0.699 126.328  0.00  0.00    +0.000 C 
ATOM     11  C   UNK A   1      -9.332  -0.082 125.716  0.00  0.00    +0.000 C 
ATOM     12  C   UNK A   1      -8.627  -1.265 125.106  0.00  0.00    +0.000 A 
ATOM     13  C   UNK A   1      -9.151  -2.525 124.874  0.00  0.00    +0.000 A 
ATOM     14  C   UNK A   1      -8.277  -3.543 124.483  0.00  0.00    +0.000 A 
ATOM     15  C   UNK A   1      -6.898  -3.304 124.364  0.00  0.00    +0.000 A 
ATOM     16  C   UNK A   1      -6.367  -2.042 124.636  0.00  0.00    +0.000 A 
ATOM     17  C   UNK A   1      -7.245  -1.025 124.985  0.00  0.00    +0.000 A 
ATOM     18  C   UNK A   1      -6.902   0.355 125.470  0.00  0.00    +0.000 C 
ENDBRANCH   5  10
BRANCH   1  19
ATOM     19  CB  LEU A   2      -6.021  -0.097 131.297  0.00  0.00    +0.000 C 
BRANCH  19  21
ATOM     20  CD1 LEU A   2      -7.215  -2.162 133.639  0.00  0.00    +0.000 C 
ATOM     21  CG  LEU A   2      -6.676  -0.487 132.892  0.00  0.00    +0.000 C 
ATOM     22  CD2 LEU A   2      -6.046   0.632 133.892  0.00  0.00    +0.000 C 
ENDBRANCH  19  21
ENDBRANCH   1  19
BRANCH   8  23
ATOM     23  C   UNK A   0      -7.087   2.598 130.833  0.00  0.00    +0.000 C 
BRANCH  23  24
ATOM     24  C   UNK A   0      -5.897   3.362 130.201  0.00  0.00    +0.000 A 
ATOM     25  C   UNK A   0      -5.962   3.991 128.953  0.00  0.00    +0.000 A 
ATOM     26  C   UNK A   0      -4.815   4.463 128.325  0.00  0.00    +0.000 A 
ATOM     27  C   UNK A   0      -3.624   4.548 129.033  0.00  0.00    +0.000 A 
ATOM     28  C   UNK A   0      -3.558   4.021 130.314  0.00  0.00    +0.000 A 
ATOM     29  C   UNK A   0      -4.662   3.388 130.858  0.00  0.00    +0.000 A 
BRANCH  27  30
ATOM     30  O   UNK A   0      -2.608   5.188 128.390  0.00  0.00    +0.000 OA
BRANCH  30  31
ATOM     31  C   UNK A   0      -2.333   6.500 128.846  0.00  0.00    +0.000 C 
ATOM     32  F   UNK A   0      -1.438   6.498 129.861  0.00  0.00    +0.000 F 
ATOM     33  F   UNK A   0      -1.870   7.271 127.839  0.00  0.00    +0.000 F 
ATOM     34  F   UNK A   0      -3.478   7.048 129.303  0.00  0.00    +0.000 F 
ENDBRANCH  30  31
ENDBRANCH  27  30
ENDBRANCH  23  24
BRANCH  23  35
ATOM     35  C   UNK A   0      -8.127   3.805 131.515  0.00  0.00    +0.000 C 
ATOM     36  O   UNK A   0      -8.223   4.009 132.719  0.00  0.00    +0.000 OA
ATOM     37  N   UNK A   0      -8.968   4.559 130.738  0.00  0.00    +0.000 N 
ATOM     38  H   UNK A   0      -9.329   4.362 129.846  0.00  0.00    +0.000 HD
BRANCH  37  39
ATOM     39  C   UNK A   0      -9.266   5.960 130.770  0.00  0.00    +0.000 C 
ATOM     40  C   UNK A   0      -9.526   6.185 129.323  0.00  0.00    +0.000 C 
ATOM     41  C   UNK A   0     -10.759   6.084 131.829  0.00  0.00    +0.000 C 
ATOM     42  C   UNK A   0      -7.558   6.783 130.906  0.00  0.00    +0.000 C 
ENDBRANCH  37  39
ENDBRANCH  23  35
ENDBRANCH   8  23
TORSDOF 9
ENDMDL
MODEL 9
REMARK VINA RESULT:      -9.6      4.244      8.313
REMARK  Name = CHEMBL372516
REMARK  14 active torsions:
REMARK  status: ('A' for Active; 'I' for Inactive)
REMARK    1  A    between atoms: CD1_1  and  CG_2
REMARK    2  A    between atoms: CG_2  and  CD2_3
REMARK    3  A    between atoms: CG_2  and  CB_4
REMARK    4  A    between atoms: CB_4  and  CA_5
REMARK    5  A    between atoms: C_9  and  C_10
REMARK    6  A    between atoms: N_21  and  C_22
REMARK    7  A    between atoms: C_22  and  C_23
REMARK    8  A    between atoms: C_22  and  C_30
REMARK    9  A    between atoms: N_25  and  C_26
REMARK   10  A    between atoms: C_26  and  C_27
REMARK   11  A    between atoms: C_26  and  C_28
REMARK   12  A    between atoms: C_26  and  C_29
REMARK   13  A    between atoms: C_33  and  O_34
REMARK   14  A    between atoms: O_34  and  C_35
REMARK                            x       y       z     vdW  Elec       q    Type
REMARK                         _______ _______ _______ _____ _____    ______ ____
ROOT
ATOM      1  CA  LEU A   2      -6.531   1.514 132.210  0.00  0.00    +0.000 C 
ATOM      2  C   LEU A   2      -5.632   0.976 133.347  0.00  0.00    +0.000 C 
ATOM      3  O   LEU A   2      -5.617   1.212 134.519  0.00  0.00    +0.000 OA
ATOM      4  N   UNK A   1      -4.749   0.086 132.859  0.00  0.00    +0.000 N 
ATOM      5  C   UNK A   1      -4.783  -0.328 131.486  0.00  0.00    +0.000 C 
ATOM      6  C   UNK A   1      -4.845   0.907 130.535  0.00  0.00    +0.000 C 
ATOM      7  O   UNK A   1      -4.244   0.912 129.481  0.00  0.00    +0.000 OA
ATOM      8  N   LEU A   2      -5.701   1.929 131.010  0.00  0.00    +0.000 N 
ATOM      9  H   UNK A   1      -4.194  -0.283 133.616  0.00  0.00    +0.000 HD
ENDROOT
BRANCH   5  10
ATOM     10  C   UNK A   1      -3.510  -1.095 131.176  0.00  0.00    +0.000 C 
ATOM     11  C   UNK A   1      -3.766  -2.096 130.035  0.00  0.00    +0.000 C 
ATOM     12  C   UNK A   1      -4.180  -3.327 130.797  0.00  0.00    +0.000 A 
ATOM     13  C   UNK A   1      -4.998  -4.352 130.353  0.00  0.00    +0.000 A 
ATOM     14  C   UNK A   1      -5.424  -5.308 131.280  0.00  0.00    +0.000 A 
ATOM     15  C   UNK A   1      -5.064  -5.209 132.634  0.00  0.00    +0.000 A 
ATOM     16  C   UNK A   1      -4.273  -4.152 133.086  0.00  0.00    +0.000 A 
ATOM     17  C   UNK A   1      -3.819  -3.230 132.155  0.00  0.00    +0.000 A 
ATOM     18  C   UNK A   1      -3.097  -1.939 132.419  0.00  0.00    +0.000 C 
ENDBRANCH   5  10
BRANCH   1  19
ATOM     19  CB  LEU A   2      -7.070   2.681 132.891  0.00  0.00    +0.000 C 
BRANCH  19  21
ATOM     20  CD1 LEU A   2     -10.150   1.871 131.874  0.00  0.00    +0.000 C 
ATOM     21  CG  LEU A   2      -8.806   2.953 132.698  0.00  0.00    +0.000 C 
ATOM     22  CD2 LEU A   2      -9.234   3.869 133.973  0.00  0.00    +0.000 C 
ENDBRANCH  19  21
ENDBRANCH   1  19
BRANCH   8  23
ATOM     23  C   UNK A   0      -5.533   3.432 130.507  0.00  0.00    +0.000 C 
BRANCH  23  24
ATOM     24  C   UNK A   0      -4.516   4.199 131.387  0.00  0.00    +0.000 A 
ATOM     25  C   UNK A   0      -4.733   5.497 131.862  0.00  0.00    +0.000 A 
ATOM     26  C   UNK A   0      -3.707   6.230 132.448  0.00  0.00    +0.000 A 
ATOM     27  C   UNK A   0      -2.523   5.599 132.804  0.00  0.00    +0.000 A 
ATOM     28  C   UNK A   0      -2.321   4.278 132.432  0.00  0.00    +0.000 A 
ATOM     29  C   UNK A   0      -3.279   3.616 131.686  0.00  0.00    +0.000 A 
BRANCH  27  30
ATOM     30  O   UNK A   0      -1.655   6.355 133.532  0.00  0.00    +0.000 OA
BRANCH  30  31
ATOM     31  C   UNK A   0      -0.742   7.129 132.776  0.00  0.00    +0.000 C 
ATOM     32  F   UNK A   0       0.479   7.168 133.358  0.00  0.00    +0.000 F 
ATOM     33  F   UNK A   0      -0.629   6.645 131.521  0.00  0.00    +0.000 F 
ATOM     34  F   UNK A   0      -1.208   8.393 132.700  0.00  0.00    +0.000 F 
ENDBRANCH  30  31
ENDBRANCH  27  30
ENDBRANCH  23  24
BRANCH  23  35
ATOM     35  C   UNK A   0      -5.301   4.010 128.889  0.00  0.00    +0.000 C 
ATOM     36  O   UNK A   0      -6.020   4.853 128.365  0.00  0.00    +0.000 OA
ATOM     37  N   UNK A   0      -4.332   3.495 128.068  0.00  0.00    +0.000 N 
ATOM     38  H   UNK A   0      -3.885   2.621 128.110  0.00  0.00    +0.000 HD
BRANCH  37  39
ATOM     39  C   UNK A   0      -3.414   4.146 127.181  0.00  0.00    +0.000 C 
ATOM     40  C   UNK A   0      -2.279   3.187 127.260  0.00  0.00    +0.000 C 
ATOM     41  C   UNK A   0      -4.276   4.159 125.562  0.00  0.00    +0.000 C 
ATOM     42  C   UNK A   0      -2.695   5.558 128.232  0.00  0.00    +0.000 C 
ENDBRANCH  37  39
ENDBRANCH  23  35
ENDBRANCH   8  23
TORSDOF 9
ENDMDL
