MODEL 1
REMARK VINA RESULT:     -10.5      0.000      0.000
REMARK  Name = CHEMBL104237
REMARK  8 active torsions:
REMARK  status: ('A' for Active; 'I' for Inactive)
REMARK    1  A    between atoms: C_1  and  O_2
REMARK    2  A    between atoms: O_2  and  C_3
REMARK    3  A    between atoms: C_5  and  O_6
REMARK    4  A    between atoms: O_6  and  C_7
REMARK    5  A    between atoms: C_7  and  C_8
REMARK    6  A    between atoms: C_7  and  C_9
REMARK    7  A    between atoms: C_18  and  C_19
REMARK    8  A    between atoms: C_24  and  N_25
REMARK                            x       y       z     vdW  Elec       q    Type
REMARK                         _______ _______ _______ _____ _____    ______ ____
ROOT
ATOM      1  C   UNL     1      -6.769   3.398 129.342  0.00  0.00    +0.000 C 
ATOM      2  O   UNL     1      -6.065   2.745 130.115  0.00  0.00    +0.000 OA
ATOM      3  N   UNL     1      -6.490   3.378 127.979  0.00  0.00    +0.000 N 
ATOM      4  C   UNL     1      -6.830   2.173 127.237  0.00  0.00    +0.000 C 
ATOM      5  C   UNL     1      -5.785   1.898 126.170  0.00  0.00    +0.000 C 
ATOM      6  C   UNL     1      -5.576   3.114 125.240  0.00  0.00    +0.000 C 
ATOM      7  C   UNL     1      -5.226   4.358 126.086  0.00  0.00    +0.000 C 
ATOM      8  C   UNL     1      -6.226   4.581 127.200  0.00  0.00    +0.000 C 
ENDROOT
BRANCH   6   9
ATOM      9  N   UNL     1      -6.686   3.240 124.230  0.00  0.00    +0.000 N 
ATOM     10  C   UNL     1      -8.017   2.953 124.496  0.00  0.00    +0.000 C 
ATOM     11  O   UNL     1      -8.692   3.367 125.417  0.00  0.00    +0.000 OA
ATOM     12  O   UNL     1      -8.600   2.123 123.601  0.00  0.00    +0.000 OA
ATOM     13  C   UNL     1      -8.800   2.830 122.402  0.00  0.00    +0.000 C 
ATOM     14  C   UNL     1      -7.493   3.401 121.947  0.00  0.00    +0.000 A 
ATOM     15  C   UNL     1      -7.353   3.763 120.611  0.00  0.00    +0.000 A 
ATOM     16  C   UNL     1      -6.152   4.302 120.176  0.00  0.00    +0.000 A 
ATOM     17  C   UNL     1      -5.107   4.499 121.077  0.00  0.00    +0.000 A 
ATOM     18  C   UNL     1      -5.246   4.147 122.421  0.00  0.00    +0.000 A 
ATOM     19  C   UNL     1      -6.435   3.580 122.868  0.00  0.00    +0.000 A 
ENDBRANCH   6   9
BRANCH   1  26
ATOM     20  C   UNL     1      -7.947   5.433 130.393  0.00  0.00    +0.000 A 
ATOM     21  C   UNL     1      -9.124   6.058 130.799  0.00  0.00    +0.000 A 
ATOM     22  C   UNL     1     -10.347   5.418 130.800  0.00  0.00    +0.000 A 
ATOM     23  C   UNL     1     -10.385   4.124 130.282  0.00  0.00    +0.000 A 
ATOM     24  F   UNL     1     -11.553   3.471 130.198  0.00  0.00    +0.000 F 
ATOM     25  C   UNL     1      -9.219   3.488 129.819  0.00  0.00    +0.000 A 
ATOM     26  C   UNL     1      -7.964   4.132 129.885  0.00  0.00    +0.000 A 
BRANCH  20  28
ATOM     27  C   UNL     1      -6.245   6.350 131.720  0.00  0.00    +0.000 C 
ATOM     28  O   UNL     1      -6.844   6.227 130.416  0.00  0.00    +0.000 OA
ENDBRANCH  20  28
BRANCH  22  29
ATOM     29  O   UNL     1     -11.507   6.000 131.240  0.00  0.00    +0.000 OA
BRANCH  29  30
ATOM     30  C   UNL     1     -11.816   7.345 130.813  0.00  0.00    +0.000 C 
ATOM     31  C   UNL     1     -13.071   7.802 131.550  0.00  0.00    +0.000 C 
BRANCH  30  32
ATOM     32  C   UNL     1     -11.904   7.418 129.298  0.00  0.00    +0.000 A 
ATOM     33  C   UNL     1     -12.999   6.856 128.629  0.00  0.00    +0.000 A 
ATOM     34  C   UNL     1     -13.027   6.869 127.245  0.00  0.00    +0.000 A 
ATOM     35  N   UNL     1     -12.044   7.383 126.479  0.00  0.00    +0.000 NA
ATOM     36  C   UNL     1     -10.995   7.918 127.131  0.00  0.00    +0.000 A 
ATOM     37  C   UNL     1     -10.882   7.962 128.512  0.00  0.00    +0.000 A 
ENDBRANCH  30  32
ENDBRANCH  29  30
ENDBRANCH  22  29
ENDBRANCH   1  26
TORSDOF 6
ENDMDL
MODEL 2
REMARK VINA RESULT:     -10.4      1.776      2.367
REMARK  Name = CHEMBL104237
REMARK  8 active torsions:
REMARK  status: ('A' for Active; 'I' for Inactive)
REMARK    1  A    between atoms: C_1  and  O_2
REMARK    2  A    between atoms: O_2  and  C_3
REMARK    3  A    between atoms: C_5  and  O_6
REMARK    4  A    between atoms: O_6  and  C_7
REMARK    5  A    between atoms: C_7  and  C_8
REMARK    6  A    between atoms: C_7  and  C_9
REMARK    7  A    between atoms: C_18  and  C_19
REMARK    8  A    between atoms: C_24  and  N_25
REMARK                            x       y       z     vdW  Elec       q    Type
REMARK                         _______ _______ _______ _____ _____    ______ ____
ROOT
ATOM      1  C   UNL     1      -6.836   3.227 129.426  0.00  0.00    +0.000 C 
ATOM      2  O   UNL     1      -5.962   2.874 130.221  0.00  0.00    +0.000 OA
ATOM      3  N   UNL     1      -6.751   2.832 128.095  0.00  0.00    +0.000 N 
ATOM      4  C   UNL     1      -7.056   1.443 127.782  0.00  0.00    +0.000 C 
ATOM      5  C   UNL     1      -6.147   0.941 126.673  0.00  0.00    +0.000 C 
ATOM      6  C   UNL     1      -6.208   1.847 125.423  0.00  0.00    +0.000 C 
ATOM      7  C   UNL     1      -5.883   3.303 125.822  0.00  0.00    +0.000 C 
ATOM      8  C   UNL     1      -6.734   3.772 126.981  0.00  0.00    +0.000 C 
ENDROOT
BRANCH   6   9
ATOM      9  N   UNL     1      -7.455   1.600 124.617  0.00  0.00    +0.000 N 
ATOM     10  C   UNL     1      -8.493   2.512 124.490  0.00  0.00    +0.000 C 
ATOM     11  O   UNL     1      -8.415   3.682 124.171  0.00  0.00    +0.000 OA
ATOM     12  O   UNL     1      -9.719   2.003 124.748  0.00  0.00    +0.000 OA
ATOM     13  C   UNL     1     -10.086   1.159 123.685  0.00  0.00    +0.000 C 
ATOM     14  C   UNL     1      -9.021   0.124 123.494  0.00  0.00    +0.000 A 
ATOM     15  C   UNL     1      -9.343  -1.045 122.811  0.00  0.00    +0.000 A 
ATOM     16  C   UNL     1      -8.366  -2.009 122.618  0.00  0.00    +0.000 A 
ATOM     17  C   UNL     1      -7.069  -1.793 123.083  0.00  0.00    +0.000 A 
ATOM     18  C   UNL     1      -6.738  -0.617 123.759  0.00  0.00    +0.000 A 
ATOM     19  C   UNL     1      -7.714   0.348 123.985  0.00  0.00    +0.000 A 
ENDBRANCH   6   9
BRANCH   1  26
ATOM     20  C   UNL     1      -7.978   5.331 130.377  0.00  0.00    +0.000 A 
ATOM     21  C   UNL     1      -9.143   5.994 130.756  0.00  0.00    +0.000 A 
ATOM     22  C   UNL     1     -10.375   5.373 130.796  0.00  0.00    +0.000 A 
ATOM     23  C   UNL     1     -10.435   4.055 130.346  0.00  0.00    +0.000 A 
ATOM     24  F   UNL     1     -11.613   3.416 130.301  0.00  0.00    +0.000 F 
ATOM     25  C   UNL     1      -9.282   3.378 129.911  0.00  0.00    +0.000 A 
ATOM     26  C   UNL     1      -8.016   4.006 129.937  0.00  0.00    +0.000 A 
BRANCH  20  28
ATOM     27  C   UNL     1      -6.275   6.320 131.651  0.00  0.00    +0.000 C 
ATOM     28  O   UNL     1      -6.863   6.109 130.353  0.00  0.00    +0.000 OA
ENDBRANCH  20  28
BRANCH  22  29
ATOM     29  O   UNL     1     -11.523   5.995 131.211  0.00  0.00    +0.000 OA
BRANCH  29  30
ATOM     30  C   UNL     1     -11.774   7.352 130.783  0.00  0.00    +0.000 C 
ATOM     31  C   UNL     1     -13.007   7.864 131.522  0.00  0.00    +0.000 C 
BRANCH  30  32
ATOM     32  C   UNL     1     -11.862   7.427 129.268  0.00  0.00    +0.000 A 
ATOM     33  C   UNL     1     -12.913   6.793 128.592  0.00  0.00    +0.000 A 
ATOM     34  C   UNL     1     -12.938   6.812 127.208  0.00  0.00    +0.000 A 
ATOM     35  N   UNL     1     -11.990   7.396 126.448  0.00  0.00    +0.000 NA
ATOM     36  C   UNL     1     -10.982   7.999 127.107  0.00  0.00    +0.000 A 
ATOM     37  C   UNL     1     -10.877   8.044 128.488  0.00  0.00    +0.000 A 
ENDBRANCH  30  32
ENDBRANCH  29  30
ENDBRANCH  22  29
ENDBRANCH   1  26
TORSDOF 6
ENDMDL
MODEL 3
REMARK VINA RESULT:      -9.5      3.890      4.854
REMARK  Name = CHEMBL104237
REMARK  8 active torsions:
REMARK  status: ('A' for Active; 'I' for Inactive)
REMARK    1  A    between atoms: C_1  and  O_2
REMARK    2  A    between atoms: O_2  and  C_3
REMARK    3  A    between atoms: C_5  and  O_6
REMARK    4  A    between atoms: O_6  and  C_7
REMARK    5  A    between atoms: C_7  and  C_8
REMARK    6  A    between atoms: C_7  and  C_9
REMARK    7  A    between atoms: C_18  and  C_19
REMARK    8  A    between atoms: C_24  and  N_25
REMARK                            x       y       z     vdW  Elec       q    Type
REMARK                         _______ _______ _______ _____ _____    ______ ____
ROOT
ATOM      1  C   UNL     1      -7.760  -0.732 131.675  0.00  0.00    +0.000 C 
ATOM      2  O   UNL     1      -7.799  -1.556 132.590  0.00  0.00    +0.000 OA
ATOM      3  N   UNL     1      -7.353  -1.135 130.408  0.00  0.00    +0.000 N 
ATOM      4  C   UNL     1      -8.282  -1.933 129.621  0.00  0.00    +0.000 C 
ATOM      5  C   UNL     1      -7.529  -2.976 128.814  0.00  0.00    +0.000 C 
ATOM      6  C   UNL     1      -6.424  -2.341 127.940  0.00  0.00    +0.000 C 
ATOM      7  C   UNL     1      -5.478  -1.504 128.830  0.00  0.00    +0.000 C 
ATOM      8  C   UNL     1      -6.239  -0.523 129.693  0.00  0.00    +0.000 C 
ENDROOT
BRANCH   6   9
ATOM      9  N   UNL     1      -6.993  -1.687 126.709  0.00  0.00    +0.000 N 
ATOM     10  C   UNL     1      -8.041  -0.778 126.724  0.00  0.00    +0.000 C 
ATOM     11  O   UNL     1      -8.142   0.222 127.407  0.00  0.00    +0.000 OA
ATOM     12  O   UNL     1      -9.042  -1.063 125.861  0.00  0.00    +0.000 OA
ATOM     13  C   UNL     1      -8.592  -0.803 124.554  0.00  0.00    +0.000 C 
ATOM     14  C   UNL     1      -7.332  -1.574 124.309  0.00  0.00    +0.000 A 
ATOM     15  C   UNL     1      -6.942  -1.813 122.994  0.00  0.00    +0.000 A 
ATOM     16  C   UNL     1      -5.774  -2.517 122.750  0.00  0.00    +0.000 A 
ATOM     17  C   UNL     1      -4.988  -2.958 123.814  0.00  0.00    +0.000 A 
ATOM     18  C   UNL     1      -5.369  -2.712 125.134  0.00  0.00    +0.000 A 
ATOM     19  C   UNL     1      -6.553  -2.030 125.396  0.00  0.00    +0.000 A 
ENDBRANCH   6   9
BRANCH   1  26
ATOM     20  C   UNL     1      -7.783   1.498 132.965  0.00  0.00    +0.000 A 
ATOM     21  C   UNL     1      -8.226   2.814 133.074  0.00  0.00    +0.000 A 
ATOM     22  C   UNL     1      -9.181   3.352 132.234  0.00  0.00    +0.000 A 
ATOM     23  C   UNL     1      -9.632   2.546 131.190  0.00  0.00    +0.000 A 
ATOM     24  F   UNL     1     -10.514   3.032 130.304  0.00  0.00    +0.000 F 
ATOM     25  C   UNL     1      -9.165   1.231 131.028  0.00  0.00    +0.000 A 
ATOM     26  C   UNL     1      -8.236   0.672 131.934  0.00  0.00    +0.000 A 
BRANCH  20  28
ATOM     27  C   UNL     1      -6.070   2.273 134.367  0.00  0.00    +0.000 C 
ATOM     28  O   UNL     1      -6.808   1.151 133.846  0.00  0.00    +0.000 OA
ENDBRANCH  20  28
BRANCH  22  29
ATOM     29  O   UNL     1      -9.663   4.629 132.356  0.00  0.00    +0.000 OA
BRANCH  29  30
ATOM     30  C   UNL     1      -9.283   5.614 131.370  0.00  0.00    +0.000 C 
ATOM     31  C   UNL     1      -8.107   6.413 131.924  0.00  0.00    +0.000 C 
BRANCH  30  32
ATOM     32  C   UNL     1     -10.484   6.449 130.958  0.00  0.00    +0.000 A 
ATOM     33  C   UNL     1     -10.406   7.290 129.840  0.00  0.00    +0.000 A 
ATOM     34  C   UNL     1     -11.486   8.096 129.522  0.00  0.00    +0.000 A 
ATOM     35  N   UNL     1     -12.626   8.141 130.239  0.00  0.00    +0.000 NA
ATOM     36  C   UNL     1     -12.690   7.331 131.313  0.00  0.00    +0.000 A 
ATOM     37  C   UNL     1     -11.668   6.481 131.704  0.00  0.00    +0.000 A 
ENDBRANCH  30  32
ENDBRANCH  29  30
ENDBRANCH  22  29
ENDBRANCH   1  26
TORSDOF 6
ENDMDL
MODEL 4
REMARK VINA RESULT:      -9.3      4.063      5.279
REMARK  Name = CHEMBL104237
REMARK  8 active torsions:
REMARK  status: ('A' for Active; 'I' for Inactive)
REMARK    1  A    between atoms: C_1  and  O_2
REMARK    2  A    between atoms: O_2  and  C_3
REMARK    3  A    between atoms: C_5  and  O_6
REMARK    4  A    between atoms: O_6  and  C_7
REMARK    5  A    between atoms: C_7  and  C_8
REMARK    6  A    between atoms: C_7  and  C_9
REMARK    7  A    between atoms: C_18  and  C_19
REMARK    8  A    between atoms: C_24  and  N_25
REMARK                            x       y       z     vdW  Elec       q    Type
REMARK                         _______ _______ _______ _____ _____    ______ ____
ROOT
ATOM      1  C   UNL     1      -7.434  -1.275 131.656  0.00  0.00    +0.000 C 
ATOM      2  O   UNL     1      -7.497  -2.244 132.415  0.00  0.00    +0.000 OA
ATOM      3  N   UNL     1      -7.037  -1.462 130.337  0.00  0.00    +0.000 N 
ATOM      4  C   UNL     1      -7.987  -2.086 129.427  0.00  0.00    +0.000 C 
ATOM      5  C   UNL     1      -7.261  -2.993 128.448  0.00  0.00    +0.000 C 
ATOM      6  C   UNL     1      -6.137  -2.247 127.694  0.00  0.00    +0.000 C 
ATOM      7  C   UNL     1      -5.170  -1.604 128.712  0.00  0.00    +0.000 C 
ATOM      8  C   UNL     1      -5.905  -0.766 129.736  0.00  0.00    +0.000 C 
ENDROOT
BRANCH   6   9
ATOM      9  N   UNL     1      -6.687  -1.373 126.598  0.00  0.00    +0.000 N 
ATOM     10  C   UNL     1      -6.506   0.000 126.532  0.00  0.00    +0.000 C 
ATOM     11  O   UNL     1      -5.461   0.613 126.613  0.00  0.00    +0.000 OA
ATOM     12  O   UNL     1      -7.645   0.706 126.345  0.00  0.00    +0.000 OA
ATOM     13  C   UNL     1      -8.077   0.514 125.020  0.00  0.00    +0.000 C 
ATOM     14  C   UNL     1      -8.215  -0.954 124.759  0.00  0.00    +0.000 A 
ATOM     15  C   UNL     1      -9.013  -1.370 123.697  0.00  0.00    +0.000 A 
ATOM     16  C   UNL     1      -9.144  -2.724 123.437  0.00  0.00    +0.000 A 
ATOM     17  C   UNL     1      -8.462  -3.656 124.219  0.00  0.00    +0.000 A 
ATOM     18  C   UNL     1      -7.653  -3.244 125.279  0.00  0.00    +0.000 A 
ATOM     19  C   UNL     1      -7.532  -1.889 125.570  0.00  0.00    +0.000 A 
ENDBRANCH   6   9
BRANCH   1  26
ATOM     20  C   UNL     1      -7.111   0.916 132.972  0.00  0.00    +0.000 A 
ATOM     21  C   UNL     1      -7.571   2.185 133.317  0.00  0.00    +0.000 A 
ATOM     22  C   UNL     1      -8.816   2.654 132.949  0.00  0.00    +0.000 A 
ATOM     23  C   UNL     1      -9.582   1.832 132.123  0.00  0.00    +0.000 A 
ATOM     24  F   UNL     1     -10.775   2.256 131.680  0.00  0.00    +0.000 F 
ATOM     25  C   UNL     1      -9.121   0.568 131.719  0.00  0.00    +0.000 A 
ATOM     26  C   UNL     1      -7.871   0.075 132.157  0.00  0.00    +0.000 A 
BRANCH  20  28
ATOM     27  C   UNL     1      -5.743   0.329 134.784  0.00  0.00    +0.000 C 
ATOM     28  O   UNL     1      -5.845   0.639 133.381  0.00  0.00    +0.000 OA
ENDBRANCH  20  28
BRANCH  22  29
ATOM     29  O   UNL     1      -9.304   3.880 133.319  0.00  0.00    +0.000 OA
BRANCH  29  30
ATOM     30  C   UNL     1      -8.568   5.064 132.942  0.00  0.00    +0.000 C 
ATOM     31  C   UNL     1      -8.111   5.767 134.217  0.00  0.00    +0.000 C 
BRANCH  30  32
ATOM     32  C   UNL     1      -9.391   5.926 131.998  0.00  0.00    +0.000 A 
ATOM     33  C   UNL     1     -10.783   5.996 132.144  0.00  0.00    +0.000 A 
ATOM     34  C   UNL     1     -11.523   6.730 131.232  0.00  0.00    +0.000 A 
ATOM     35  N   UNL     1     -10.987   7.382 130.181  0.00  0.00    +0.000 NA
ATOM     36  C   UNL     1      -9.649   7.306 130.049  0.00  0.00    +0.000 A 
ATOM     37  C   UNL     1      -8.823   6.607 130.916  0.00  0.00    +0.000 A 
ENDBRANCH  30  32
ENDBRANCH  29  30
ENDBRANCH  22  29
ENDBRANCH   1  26
TORSDOF 6
ENDMDL
MODEL 5
REMARK VINA RESULT:      -9.2      5.333      8.565
REMARK  Name = CHEMBL104237
REMARK  8 active torsions:
REMARK  status: ('A' for Active; 'I' for Inactive)
REMARK    1  A    between atoms: C_1  and  O_2
REMARK    2  A    between atoms: O_2  and  C_3
REMARK    3  A    between atoms: C_5  and  O_6
REMARK    4  A    between atoms: O_6  and  C_7
REMARK    5  A    between atoms: C_7  and  C_8
REMARK    6  A    between atoms: C_7  and  C_9
REMARK    7  A    between atoms: C_18  and  C_19
REMARK    8  A    between atoms: C_24  and  N_25
REMARK                            x       y       z     vdW  Elec       q    Type
REMARK                         _______ _______ _______ _____ _____    ______ ____
ROOT
ATOM      1  C   UNL     1      -7.008   4.109 133.441  0.00  0.00    +0.000 C 
ATOM      2  O   UNL     1      -6.599   2.947 133.438  0.00  0.00    +0.000 OA
ATOM      3  N   UNL     1      -7.860   4.538 132.429  0.00  0.00    +0.000 N 
ATOM      4  C   UNL     1      -9.240   4.076 132.465  0.00  0.00    +0.000 C 
ATOM      5  C   UNL     1      -9.748   3.822 131.057  0.00  0.00    +0.000 C 
ATOM      6  C   UNL     1      -9.574   5.061 130.149  0.00  0.00    +0.000 C 
ATOM      7  C   UNL     1      -8.095   5.506 130.159  0.00  0.00    +0.000 C 
ATOM      8  C   UNL     1      -7.568   5.677 131.567  0.00  0.00    +0.000 C 
ENDROOT
BRANCH   6   9
ATOM      9  N   UNL     1     -10.624   6.104 130.424  0.00  0.00    +0.000 N 
ATOM     10  C   UNL     1     -11.145   6.373 131.681  0.00  0.00    +0.000 C 
ATOM     11  O   UNL     1     -10.530   6.600 132.703  0.00  0.00    +0.000 OA
ATOM     12  O   UNL     1     -12.497   6.385 131.735  0.00  0.00    +0.000 OA
ATOM     13  C   UNL     1     -12.959   7.547 131.093  0.00  0.00    +0.000 C 
ATOM     14  C   UNL     1     -12.401   7.593 129.704  0.00  0.00    +0.000 A 
ATOM     15  C   UNL     1     -13.034   8.393 128.757  0.00  0.00    +0.000 A 
ATOM     16  C   UNL     1     -12.524   8.453 127.470  0.00  0.00    +0.000 A 
ATOM     17  C   UNL     1     -11.375   7.737 127.139  0.00  0.00    +0.000 A 
ATOM     18  C   UNL     1     -10.730   6.941 128.087  0.00  0.00    +0.000 A 
ATOM     19  C   UNL     1     -11.245   6.848 129.377  0.00  0.00    +0.000 A 
ENDBRANCH   6   9
BRANCH   1  26
ATOM     20  C   UNL     1      -5.424   5.681 134.729  0.00  0.00    +0.000 A 
ATOM     21  C   UNL     1      -5.209   6.559 135.788  0.00  0.00    +0.000 A 
ATOM     22  C   UNL     1      -6.136   6.760 136.792  0.00  0.00    +0.000 A 
ATOM     23  C   UNL     1      -7.362   6.109 136.660  0.00  0.00    +0.000 A 
ATOM     24  F   UNL     1      -8.327   6.312 137.569  0.00  0.00    +0.000 F 
ATOM     25  C   UNL     1      -7.623   5.256 135.574  0.00  0.00    +0.000 A 
ATOM     26  C   UNL     1      -6.641   5.010 134.589  0.00  0.00    +0.000 A 
BRANCH  20  28
ATOM     27  C   UNL     1      -3.535   6.775 133.871  0.00  0.00    +0.000 C 
ATOM     28  O   UNL     1      -4.424   5.643 133.810  0.00  0.00    +0.000 OA
ENDBRANCH  20  28
BRANCH  22  29
ATOM     29  O   UNL     1      -5.922   7.583 137.866  0.00  0.00    +0.000 OA
BRANCH  29  30
ATOM     30  C   UNL     1      -6.088   9.008 137.696  0.00  0.00    +0.000 C 
ATOM     31  C   UNL     1      -4.811   9.696 138.170  0.00  0.00    +0.000 C 
BRANCH  30  32
ATOM     32  C   UNL     1      -7.360   9.483 138.378  0.00  0.00    +0.000 A 
ATOM     33  C   UNL     1      -7.328   9.893 139.718  0.00  0.00    +0.000 A 
ATOM     34  C   UNL     1      -8.508  10.256 140.344  0.00  0.00    +0.000 A 
ATOM     35  N   UNL     1      -9.715  10.225 139.745  0.00  0.00    +0.000 NA
ATOM     36  C   UNL     1      -9.735   9.827 138.458  0.00  0.00    +0.000 A 
ATOM     37  C   UNL     1      -8.607   9.457 137.745  0.00  0.00    +0.000 A 
ENDBRANCH  30  32
ENDBRANCH  29  30
ENDBRANCH  22  29
ENDBRANCH   1  26
TORSDOF 6
ENDMDL
MODEL 6
REMARK VINA RESULT:      -9.2      2.252      3.411
REMARK  Name = CHEMBL104237
REMARK  8 active torsions:
REMARK  status: ('A' for Active; 'I' for Inactive)
REMARK    1  A    between atoms: C_1  and  O_2
REMARK    2  A    between atoms: O_2  and  C_3
REMARK    3  A    between atoms: C_5  and  O_6
REMARK    4  A    between atoms: O_6  and  C_7
REMARK    5  A    between atoms: C_7  and  C_8
REMARK    6  A    between atoms: C_7  and  C_9
REMARK    7  A    between atoms: C_18  and  C_19
REMARK    8  A    between atoms: C_24  and  N_25
REMARK                            x       y       z     vdW  Elec       q    Type
REMARK                         _______ _______ _______ _____ _____    ______ ____
ROOT
ATOM      1  C   UNL     1      -6.431   3.339 129.699  0.00  0.00    +0.000 C 
ATOM      2  O   UNL     1      -5.577   3.261 130.584  0.00  0.00    +0.000 OA
ATOM      3  N   UNL     1      -6.179   2.775 128.453  0.00  0.00    +0.000 N 
ATOM      4  C   UNL     1      -6.230   1.325 128.344  0.00  0.00    +0.000 C 
ATOM      5  C   UNL     1      -5.167   0.831 127.377  0.00  0.00    +0.000 C 
ATOM      6  C   UNL     1      -5.275   1.522 125.999  0.00  0.00    +0.000 C 
ATOM      7  C   UNL     1      -5.222   3.054 126.184  0.00  0.00    +0.000 C 
ATOM      8  C   UNL     1      -6.226   3.534 127.208  0.00  0.00    +0.000 C 
ENDROOT
BRANCH   6   9
ATOM      9  N   UNL     1      -6.399   0.951 125.176  0.00  0.00    +0.000 N 
ATOM     10  C   UNL     1      -7.477   1.689 124.712  0.00  0.00    +0.000 C 
ATOM     11  O   UNL     1      -7.447   2.738 124.100  0.00  0.00    +0.000 OA
ATOM     12  O   UNL     1      -8.686   1.144 124.982  0.00  0.00    +0.000 OA
ATOM     13  C   UNL     1      -8.864   0.021 124.156  0.00  0.00    +0.000 C 
ATOM     14  C   UNL     1      -7.712  -0.916 124.350  0.00  0.00    +0.000 A 
ATOM     15  C   UNL     1      -7.867  -2.249 123.980  0.00  0.00    +0.000 A 
ATOM     16  C   UNL     1      -6.808  -3.126 124.145  0.00  0.00    +0.000 A 
ATOM     17  C   UNL     1      -5.593  -2.668 124.654  0.00  0.00    +0.000 A 
ATOM     18  C   UNL     1      -5.429  -1.330 125.017  0.00  0.00    +0.000 A 
ATOM     19  C   UNL     1      -6.491  -0.442 124.883  0.00  0.00    +0.000 A 
ENDBRANCH   6   9
BRANCH   1  26
ATOM     20  C   UNL     1      -8.983   3.300 130.044  0.00  0.00    +0.000 A 
ATOM     21  C   UNL     1     -10.150   3.956 130.431  0.00  0.00    +0.000 A 
ATOM     22  C   UNL     1     -10.184   5.303 130.733  0.00  0.00    +0.000 A 
ATOM     23  C   UNL     1      -8.967   5.983 130.727  0.00  0.00    +0.000 A 
ATOM     24  F   UNL     1      -8.925   7.279 131.071  0.00  0.00    +0.000 F 
ATOM     25  C   UNL     1      -7.768   5.333 130.388  0.00  0.00    +0.000 A 
ATOM     26  C   UNL     1      -7.759   3.970 130.018  0.00  0.00    +0.000 A 
BRANCH  20  28
ATOM     27  C   UNL     1      -8.910   1.161 131.005  0.00  0.00    +0.000 C 
ATOM     28  O   UNL     1      -9.126   1.965 129.829  0.00  0.00    +0.000 OA
ENDBRANCH  20  28
BRANCH  22  29
ATOM     29  O   UNL     1     -11.330   5.974 131.069  0.00  0.00    +0.000 OA
BRANCH  29  30
ATOM     30  C   UNL     1     -11.573   7.273 130.485  0.00  0.00    +0.000 C 
ATOM     31  C   UNL     1     -12.772   7.896 131.194  0.00  0.00    +0.000 C 
BRANCH  30  32
ATOM     32  C   UNL     1     -11.710   7.163 128.976  0.00  0.00    +0.000 A 
ATOM     33  C   UNL     1     -10.644   7.529 128.144  0.00  0.00    +0.000 A 
ATOM     34  C   UNL     1     -10.812   7.489 126.770  0.00  0.00    +0.000 A 
ATOM     35  N   UNL     1     -11.962   7.130 126.165  0.00  0.00    +0.000 NA
ATOM     36  C   UNL     1     -12.981   6.783 126.973  0.00  0.00    +0.000 A 
ATOM     37  C   UNL     1     -12.906   6.780 128.357  0.00  0.00    +0.000 A 
ENDBRANCH  30  32
ENDBRANCH  29  30
ENDBRANCH  22  29
ENDBRANCH   1  26
TORSDOF 6
ENDMDL
MODEL 7
REMARK VINA RESULT:      -9.1      4.412      8.717
REMARK  Name = CHEMBL104237
REMARK  8 active torsions:
REMARK  status: ('A' for Active; 'I' for Inactive)
REMARK    1  A    between atoms: C_1  and  O_2
REMARK    2  A    between atoms: O_2  and  C_3
REMARK    3  A    between atoms: C_5  and  O_6
REMARK    4  A    between atoms: O_6  and  C_7
REMARK    5  A    between atoms: C_7  and  C_8
REMARK    6  A    between atoms: C_7  and  C_9
REMARK    7  A    between atoms: C_18  and  C_19
REMARK    8  A    between atoms: C_24  and  N_25
REMARK                            x       y       z     vdW  Elec       q    Type
REMARK                         _______ _______ _______ _____ _____    ______ ____
ROOT
ATOM      1  C   UNL     1      -5.941   3.681 124.942  0.00  0.00    +0.000 C 
ATOM      2  O   UNL     1      -6.091   4.526 124.058  0.00  0.00    +0.000 OA
ATOM      3  N   UNL     1      -5.017   3.908 125.957  0.00  0.00    +0.000 N 
ATOM      4  C   UNL     1      -5.363   4.884 126.980  0.00  0.00    +0.000 C 
ATOM      5  C   UNL     1      -4.129   5.659 127.408  0.00  0.00    +0.000 C 
ATOM      6  C   UNL     1      -2.988   4.721 127.862  0.00  0.00    +0.000 C 
ATOM      7  C   UNL     1      -2.674   3.707 126.739  0.00  0.00    +0.000 C 
ATOM      8  C   UNL     1      -3.920   2.996 126.258  0.00  0.00    +0.000 C 
ENDROOT
BRANCH   6   9
ATOM      9  N   UNL     1      -3.227   4.184 129.248  0.00  0.00    +0.000 N 
ATOM     10  C   UNL     1      -3.963   3.042 129.525  0.00  0.00    +0.000 C 
ATOM     11  O   UNL     1      -3.835   1.941 129.027  0.00  0.00    +0.000 OA
ATOM     12  O   UNL     1      -4.919   3.207 130.468  0.00  0.00    +0.000 OA
ATOM     13  C   UNL     1      -4.293   3.329 131.721  0.00  0.00    +0.000 C 
ATOM     14  C   UNL     1      -3.292   4.441 131.660  0.00  0.00    +0.000 A 
ATOM     15  C   UNL     1      -2.867   5.020 132.852  0.00  0.00    +0.000 A 
ATOM     16  C   UNL     1      -1.934   6.045 132.814  0.00  0.00    +0.000 A 
ATOM     17  C   UNL     1      -1.412   6.470 131.593  0.00  0.00    +0.000 A 
ATOM     18  C   UNL     1      -1.828   5.886 130.396  0.00  0.00    +0.000 A 
ATOM     19  C   UNL     1      -2.783   4.875 130.415  0.00  0.00    +0.000 A 
ENDBRANCH   6   9
BRANCH   1  26
ATOM     20  C   UNL     1      -7.875   2.231 125.834  0.00  0.00    +0.000 A 
ATOM     21  C   UNL     1      -8.687   1.106 125.705  0.00  0.00    +0.000 A 
ATOM     22  C   UNL     1      -8.461   0.127 124.758  0.00  0.00    +0.000 A 
ATOM     23  C   UNL     1      -7.424   0.349 123.853  0.00  0.00    +0.000 A 
ATOM     24  F   UNL     1      -7.194  -0.534 122.871  0.00  0.00    +0.000 F 
ATOM     25  C   UNL     1      -6.621   1.500 123.930  0.00  0.00    +0.000 A 
ATOM     26  C   UNL     1      -6.823   2.462 124.945  0.00  0.00    +0.000 A 
BRANCH  20  28
ATOM     27  C   UNL     1      -8.052   2.645 128.136  0.00  0.00    +0.000 C 
ATOM     28  O   UNL     1      -8.271   3.112 126.790  0.00  0.00    +0.000 OA
ENDBRANCH  20  28
BRANCH  22  29
ATOM     29  O   UNL     1      -9.220  -1.008 124.647  0.00  0.00    +0.000 OA
BRANCH  29  30
ATOM     30  C   UNL     1      -8.572  -2.294 124.760  0.00  0.00    +0.000 C 
ATOM     31  C   UNL     1      -9.399  -3.314 123.984  0.00  0.00    +0.000 C 
BRANCH  30  32
ATOM     32  C   UNL     1      -8.331  -2.644 126.219  0.00  0.00    +0.000 A 
ATOM     33  C   UNL     1      -7.211  -2.136 126.889  0.00  0.00    +0.000 A 
ATOM     34  C   UNL     1      -6.970  -2.523 128.196  0.00  0.00    +0.000 A 
ATOM     35  N   UNL     1      -7.747  -3.387 128.878  0.00  0.00    +0.000 NA
ATOM     36  C   UNL     1      -8.819  -3.872 128.225  0.00  0.00    +0.000 A 
ATOM     37  C   UNL     1      -9.149  -3.536 126.922  0.00  0.00    +0.000 A 
ENDBRANCH  30  32
ENDBRANCH  29  30
ENDBRANCH  22  29
ENDBRANCH   1  26
TORSDOF 6
ENDMDL
MODEL 8
REMARK VINA RESULT:      -9.1      2.964      4.335
REMARK  Name = CHEMBL104237
REMARK  8 active torsions:
REMARK  status: ('A' for Active; 'I' for Inactive)
REMARK    1  A    between atoms: C_1  and  O_2
REMARK    2  A    between atoms: O_2  and  C_3
REMARK    3  A    between atoms: C_5  and  O_6
REMARK    4  A    between atoms: O_6  and  C_7
REMARK    5  A    between atoms: C_7  and  C_8
REMARK    6  A    between atoms: C_7  and  C_9
REMARK    7  A    between atoms: C_18  and  C_19
REMARK    8  A    between atoms: C_24  and  N_25
REMARK                            x       y       z     vdW  Elec       q    Type
REMARK                         _______ _______ _______ _____ _____    ______ ____
ROOT
ATOM      1  C   UNL     1      -6.626   2.794 130.462  0.00  0.00    +0.000 C 
ATOM      2  O   UNL     1      -5.840   2.849 131.410  0.00  0.00    +0.000 OA
ATOM      3  N   UNL     1      -6.381   1.907 129.419  0.00  0.00    +0.000 N 
ATOM      4  C   UNL     1      -6.613   0.492 129.667  0.00  0.00    +0.000 C 
ATOM      5  C   UNL     1      -5.571  -0.347 128.947  0.00  0.00    +0.000 C 
ATOM      6  C   UNL     1      -5.511  -0.022 127.438  0.00  0.00    +0.000 C 
ATOM      7  C   UNL     1      -5.271   1.491 127.243  0.00  0.00    +0.000 C 
ATOM      8  C   UNL     1      -6.260   2.324 128.027  0.00  0.00    +0.000 C 
ENDROOT
BRANCH   6   9
ATOM      9  N   UNL     1      -6.652  -0.656 126.686  0.00  0.00    +0.000 N 
ATOM     10  C   UNL     1      -7.176  -0.159 125.502  0.00  0.00    +0.000 C 
ATOM     11  O   UNL     1      -6.569   0.145 124.495  0.00  0.00    +0.000 OA
ATOM     12  O   UNL     1      -8.521  -0.018 125.501  0.00  0.00    +0.000 OA
ATOM     13  C   UNL     1      -9.104  -1.297 125.436  0.00  0.00    +0.000 C 
ATOM     14  C   UNL     1      -8.575  -2.131 126.562  0.00  0.00    +0.000 A 
ATOM     15  C   UNL     1      -9.298  -3.254 126.955  0.00  0.00    +0.000 A 
ATOM     16  C   UNL     1      -8.818  -4.042 127.989  0.00  0.00    +0.000 A 
ATOM     17  C   UNL     1      -7.611  -3.722 128.609  0.00  0.00    +0.000 A 
ATOM     18  C   UNL     1      -6.877  -2.603 128.212  0.00  0.00    +0.000 A 
ATOM     19  C   UNL     1      -7.359  -1.786 127.194  0.00  0.00    +0.000 A 
ENDBRANCH   6   9
BRANCH   1  26
ATOM     20  C   UNL     1      -7.916   5.024 130.444  0.00  0.00    +0.000 A 
ATOM     21  C   UNL     1      -9.131   5.705 130.404  0.00  0.00    +0.000 A 
ATOM     22  C   UNL     1     -10.350   5.063 130.495  0.00  0.00    +0.000 A 
ATOM     23  C   UNL     1     -10.330   3.669 130.537  0.00  0.00    +0.000 A 
ATOM     24  F   UNL     1     -11.482   2.985 130.563  0.00  0.00    +0.000 F 
ATOM     25  C   UNL     1      -9.119   2.955 130.528  0.00  0.00    +0.000 A 
ATOM     26  C   UNL     1      -7.877   3.629 130.501  0.00  0.00    +0.000 A 
BRANCH  20  28
ATOM     27  C   UNL     1      -6.842   6.999 131.111  0.00  0.00    +0.000 C 
ATOM     28  O   UNL     1      -6.818   5.811 130.297  0.00  0.00    +0.000 OA
ENDBRANCH  20  28
BRANCH  22  29
ATOM     29  O   UNL     1     -11.553   5.719 130.505  0.00  0.00    +0.000 OA
BRANCH  29  30
ATOM     30  C   UNL     1     -11.584   7.120 130.155  0.00  0.00    +0.000 C 
ATOM     31  C   UNL     1     -12.706   7.784 130.948  0.00  0.00    +0.000 C 
BRANCH  30  32
ATOM     32  C   UNL     1     -11.681   7.292 128.648  0.00  0.00    +0.000 A 
ATOM     33  C   UNL     1     -12.817   6.846 127.961  0.00  0.00    +0.000 A 
ATOM     34  C   UNL     1     -12.857   6.947 126.580  0.00  0.00    +0.000 A 
ATOM     35  N   UNL     1     -11.849   7.440 125.834  0.00  0.00    +0.000 NA
ATOM     36  C   UNL     1     -10.760   7.864 126.504  0.00  0.00    +0.000 A 
ATOM     37  C   UNL     1     -10.632   7.815 127.883  0.00  0.00    +0.000 A 
ENDBRANCH  30  32
ENDBRANCH  29  30
ENDBRANCH  22  29
ENDBRANCH   1  26
TORSDOF 6
ENDMDL
MODEL 9
REMARK VINA RESULT:      -8.9      4.221      5.804
REMARK  Name = CHEMBL104237
REMARK  8 active torsions:
REMARK  status: ('A' for Active; 'I' for Inactive)
REMARK    1  A    between atoms: C_1  and  O_2
REMARK    2  A    between atoms: O_2  and  C_3
REMARK    3  A    between atoms: C_5  and  O_6
REMARK    4  A    between atoms: O_6  and  C_7
REMARK    5  A    between atoms: C_7  and  C_8
REMARK    6  A    between atoms: C_7  and  C_9
REMARK    7  A    between atoms: C_18  and  C_19
REMARK    8  A    between atoms: C_24  and  N_25
REMARK                            x       y       z     vdW  Elec       q    Type
REMARK                         _______ _______ _______ _____ _____    ______ ____
ROOT
ATOM      1  C   UNL     1      -6.186   3.539 132.412  0.00  0.00    +0.000 C 
ATOM      2  O   UNL     1      -5.584   3.952 133.405  0.00  0.00    +0.000 OA
ATOM      3  N   UNL     1      -5.650   2.490 131.673  0.00  0.00    +0.000 N 
ATOM      4  C   UNL     1      -5.722   1.153 132.246  0.00  0.00    +0.000 C 
ATOM      5  C   UNL     1      -4.469   0.365 131.906  0.00  0.00    +0.000 C 
ATOM      6  C   UNL     1      -4.204   0.332 130.384  0.00  0.00    +0.000 C 
ATOM      7  C   UNL     1      -4.145   1.776 129.838  0.00  0.00    +0.000 C 
ATOM      8  C   UNL     1      -5.357   2.583 130.248  0.00  0.00    +0.000 C 
ENDROOT
BRANCH   6   9
ATOM      9  N   UNL     1      -5.105  -0.649 129.683  0.00  0.00    +0.000 N 
ATOM     10  C   UNL     1      -5.937  -0.322 128.623  0.00  0.00    +0.000 C 
ATOM     11  O   UNL     1      -5.638   0.265 127.602  0.00  0.00    +0.000 OA
ATOM     12  O   UNL     1      -7.219  -0.727 128.773  0.00  0.00    +0.000 OA
ATOM     13  C   UNL     1      -7.268  -2.124 128.619  0.00  0.00    +0.000 C 
ATOM     14  C   UNL     1      -6.309  -2.754 129.581  0.00  0.00    +0.000 A 
ATOM     15  C   UNL     1      -6.482  -4.095 129.912  0.00  0.00    +0.000 A 
ATOM     16  C   UNL     1      -5.598  -4.696 130.794  0.00  0.00    +0.000 A 
ATOM     17  C   UNL     1      -4.534  -3.966 131.323  0.00  0.00    +0.000 A 
ATOM     18  C   UNL     1      -4.350  -2.624 130.987  0.00  0.00    +0.000 A 
ATOM     19  C   UNL     1      -5.244  -1.999 130.124  0.00  0.00    +0.000 A 
ENDBRANCH   6   9
BRANCH   1  26
ATOM     20  C   UNL     1      -7.820   5.492 132.022  0.00  0.00    +0.000 A 
ATOM     21  C   UNL     1      -9.075   5.941 131.619  0.00  0.00    +0.000 A 
ATOM     22  C   UNL     1     -10.116   5.083 131.326  0.00  0.00    +0.000 A 
ATOM     23  C   UNL     1      -9.839   3.717 131.358  0.00  0.00    +0.000 A 
ATOM     24  F   UNL     1     -10.790   2.833 131.023  0.00  0.00    +0.000 F 
ATOM     25  C   UNL     1      -8.566   3.238 131.714  0.00  0.00    +0.000 A 
ATOM     26  C   UNL     1      -7.529   4.127 132.074  0.00  0.00    +0.000 A 
BRANCH  20  28
ATOM     27  C   UNL     1      -6.221   6.890 131.026  0.00  0.00    +0.000 C 
ATOM     28  O   UNL     1      -6.903   6.474 132.226  0.00  0.00    +0.000 OA
ENDBRANCH  20  28
BRANCH  22  29
ATOM     29  O   UNL     1     -11.371   5.507 130.973  0.00  0.00    +0.000 OA
BRANCH  29  30
ATOM     30  C   UNL     1     -11.544   6.866 130.517  0.00  0.00    +0.000 C 
ATOM     31  C   UNL     1     -12.744   7.463 131.245  0.00  0.00    +0.000 C 
BRANCH  30  32
ATOM     32  C   UNL     1     -11.630   6.914 129.001  0.00  0.00    +0.000 A 
ATOM     33  C   UNL     1     -10.474   7.128 128.238  0.00  0.00    +0.000 A 
ATOM     34  C   UNL     1     -10.582   7.239 126.861  0.00  0.00    +0.000 A 
ATOM     35  N   UNL     1     -11.750   7.171 126.192  0.00  0.00    +0.000 NA
ATOM     36  C   UNL     1     -12.855   6.968 126.935  0.00  0.00    +0.000 A 
ATOM     37  C   UNL     1     -12.846   6.832 128.314  0.00  0.00    +0.000 A 
ENDBRANCH  30  32
ENDBRANCH  29  30
ENDBRANCH  22  29
ENDBRANCH   1  26
TORSDOF 6
ENDMDL
