MODEL 1
REMARK VINA RESULT:     -10.3      0.000      0.000
REMARK  Name = CHEMBL2112248
REMARK  8 active torsions:
REMARK  status: ('A' for Active; 'I' for Inactive)
REMARK    1  A    between atoms: C_1  and  C_2
REMARK    2  A    between atoms: C_2  and  C_3
REMARK    3  A    between atoms: C_3  and  C_4
REMARK    4  A    between atoms: C_3  and  C_5
REMARK    5  A    between atoms: C_9  and  C_10
REMARK    6  A    between atoms: C_10  and  C_11
REMARK    7  A    between atoms: C_30  and  C_31
REMARK    8  A    between atoms: C_31  and  C_32
REMARK                            x       y       z     vdW  Elec       q    Type
REMARK                         _______ _______ _______ _____ _____    ______ ____
ROOT
ATOM      1  C   UNL     1      -8.037   3.888 129.494  0.00  0.00    +0.000 C 
ATOM      2  N   UNL     1      -7.307   2.774 130.135  0.00  0.00    +0.000 N 
ATOM      3  C   UNL     1      -7.763   1.760 130.968  0.00  0.00    +0.000 C 
ATOM      4  O   UNL     1      -8.911   1.656 131.389  0.00  0.00    +0.000 OA
ATOM      5  C   UNL     1      -6.749   0.584 131.137  0.00  0.00    +0.000 C 
ATOM      6  N   UNL     1      -7.500  -0.735 131.571  0.00  0.00    +0.000 N 
ATOM      7  C   UNL     1      -7.351  -1.989 130.896  0.00  0.00    +0.000 C 
ATOM      8  O   UNL     1      -6.228  -2.510 131.123  0.00  0.00    +0.000 OA
ATOM      9  C   UNL     1      -8.281  -2.122 129.100  0.00  0.00    +0.000 C 
ATOM     10  C   UNL     1      -7.158  -1.162 127.959  0.00  0.00    +0.000 C 
ATOM     11  C   UNL     1      -7.422  -0.886 129.232  0.00  0.00    +0.000 C 
ATOM     12  C   UNL     1      -6.995  -2.837 128.861  0.00  0.00    +0.000 C 
ATOM     13  N   UNL     1      -8.147  -3.187 128.222  0.00  0.00    +0.000 N 
ATOM     14  C   UNL     1      -8.202  -3.194 126.759  0.00  0.00    +0.000 C 
ATOM     15  O   UNL     1      -9.110  -3.862 126.233  0.00  0.00    +0.000 OA
ATOM     16  C   UNL     1      -7.277  -2.294 125.645  0.00  0.00    +0.000 C 
ATOM     17  N   UNL     1      -8.067  -1.917 124.324  0.00  0.00    +0.000 N 
ATOM     18  C   UNL     1      -7.954  -0.707 123.587  0.00  0.00    +0.000 C 
ATOM     19  O   UNL     1      -6.916  -0.703 122.853  0.00  0.00    +0.000 OA
ATOM     20  C   UNL     1      -8.800   0.923 124.012  0.00  0.00    +0.000 C 
ATOM     21  C   UNL     1      -9.458   1.132 125.388  0.00  0.00    +0.000 C 
ATOM     22  C   UNL     1      -9.949  -0.227 125.478  0.00  0.00    +0.000 C 
ATOM     23  C   UNL     1      -8.673  -0.031 126.263  0.00  0.00    +0.000 C 
ATOM     24  C   UNL     1      -7.204   0.768 125.359  0.00  0.00    +0.000 C 
ATOM     25  N   UNL     1      -7.738   1.780 124.459  0.00  0.00    +0.000 N 
ATOM     26  C   UNL     1      -7.987   3.050 125.036  0.00  0.00    +0.000 C 
ATOM     27  O   UNL     1      -9.028   3.692 124.752  0.00  0.00    +0.000 OA
ATOM     28  C   UNL     1      -6.952   3.346 126.358  0.00  0.00    +0.000 C 
ATOM     29  C   UNL     1      -5.499   3.982 126.192  0.00  0.00    +0.000 C 
ATOM     30  C   UNL     1      -5.259   3.710 124.754  0.00  0.00    +0.000 C 
ATOM     31  C   UNL     1      -6.128   5.010 124.753  0.00  0.00    +0.000 C 
ATOM     32  N   UNL     1      -7.131   5.475 125.603  0.00  0.00    +0.000 NA
ATOM     33  N   UNL     1      -7.632   4.466 126.834  0.00  0.00    +0.000 N 
ATOM     34  C   UNL     1      -7.155   4.516 128.230  0.00  0.00    +0.000 C 
ATOM     35  O   UNL     1      -5.976   4.795 128.497  0.00  0.00    +0.000 OA
ATOM     36  H   UNL     1      -6.313   2.927 130.118  0.00  0.00    +0.000 HD
ATOM     37  H   UNL     1      -8.482  -0.553 131.716  0.00  0.00    +0.000 HD
ATOM     38  H   UNL     1      -9.012  -2.273 124.364  0.00  0.00    +0.000 HD
ENDROOT
BRANCH   1  39
ATOM     39  C   UNL     1      -8.382   5.054 130.500  0.00  0.00    +0.000 C 
ATOM     40  C   UNL     1      -9.840   5.293 130.986  0.00  0.00    +0.000 C 
BRANCH  39  42
ATOM     41  C   UNL     1      -6.415   6.483 131.572  0.00  0.00    +0.000 C 
ATOM     42  C   UNL     1      -7.198   5.209 131.503  0.00  0.00    +0.000 C 
ENDBRANCH  39  42
ENDBRANCH   1  39
BRANCH   5  43
ATOM     43  C   UNL     1      -5.351   0.716 131.674  0.00  0.00    +0.000 C 
BRANCH  43  44
ATOM     44  C   UNL     1      -4.491   1.785 131.017  0.00  0.00    +0.000 A 
ATOM     45  C   UNL     1      -4.161   1.895 129.681  0.00  0.00    +0.000 A 
ATOM     46  N   UNL     1      -3.522   3.097 129.474  0.00  0.00    +0.000 N 
ATOM     47  C   UNL     1      -3.381   3.782 130.652  0.00  0.00    +0.000 A 
ATOM     48  C   UNL     1      -2.892   5.079 130.925  0.00  0.00    +0.000 A 
ATOM     49  C   UNL     1      -2.896   5.524 132.239  0.00  0.00    +0.000 A 
ATOM     50  C   UNL     1      -3.381   4.696 133.226  0.00  0.00    +0.000 A 
ATOM     51  C   UNL     1      -3.909   3.418 132.928  0.00  0.00    +0.000 A 
ATOM     52  C   UNL     1      -3.888   2.933 131.627  0.00  0.00    +0.000 A 
ATOM     53  H   UNL     1      -3.156   3.439 128.599  0.00  0.00    +0.000 HD
ENDBRANCH  43  44
ENDBRANCH   5  43
BRANCH  16  54
ATOM     54  C   UNL     1      -5.751  -2.371 125.510  0.00  0.00    +0.000 C 
BRANCH  54  55
ATOM     55  C   UNL     1      -5.094  -3.256 124.471  0.00  0.00    +0.000 A 
ATOM     56  C   UNL     1      -4.045  -3.027 123.588  0.00  0.00    +0.000 A 
ATOM     57  N   UNL     1      -3.674  -4.268 123.116  0.00  0.00    +0.000 N 
ATOM     58  C   UNL     1      -4.544  -5.169 123.644  0.00  0.00    +0.000 A 
ATOM     59  N   UNL     1      -5.531  -4.544 124.265  0.00  0.00    +0.000 NA
ATOM     60  H   UNL     1      -2.901  -4.513 122.510  0.00  0.00    +0.000 HD
ENDBRANCH  54  55
ENDBRANCH  16  54
TORSDOF 6
ENDMDL
MODEL 2
REMARK VINA RESULT:     -10.0      1.833      2.765
REMARK  Name = CHEMBL2112248
REMARK  8 active torsions:
REMARK  status: ('A' for Active; 'I' for Inactive)
REMARK    1  A    between atoms: C_1  and  C_2
REMARK    2  A    between atoms: C_2  and  C_3
REMARK    3  A    between atoms: C_3  and  C_4
REMARK    4  A    between atoms: C_3  and  C_5
REMARK    5  A    between atoms: C_9  and  C_10
REMARK    6  A    between atoms: C_10  and  C_11
REMARK    7  A    between atoms: C_30  and  C_31
REMARK    8  A    between atoms: C_31  and  C_32
REMARK                            x       y       z     vdW  Elec       q    Type
REMARK                         _______ _______ _______ _____ _____    ______ ____
ROOT
ATOM      1  C   UNL     1      -8.964   4.447 129.487  0.00  0.00    +0.000 C 
ATOM      2  N   UNL     1      -8.273   3.611 130.490  0.00  0.00    +0.000 N 
ATOM      3  C   UNL     1      -8.784   2.720 131.425  0.00  0.00    +0.000 C 
ATOM      4  O   UNL     1      -9.978   2.519 131.630  0.00  0.00    +0.000 OA
ATOM      5  C   UNL     1      -7.706   1.777 132.047  0.00  0.00    +0.000 C 
ATOM      6  N   UNL     1      -8.379   0.465 132.613  0.00  0.00    +0.000 N 
ATOM      7  C   UNL     1      -7.941  -0.856 132.279  0.00  0.00    +0.000 C 
ATOM      8  O   UNL     1      -6.845  -1.137 132.829  0.00  0.00    +0.000 OA
ATOM      9  C   UNL     1      -8.427  -1.484 130.414  0.00  0.00    +0.000 C 
ATOM     10  C   UNL     1      -7.195  -0.599 129.325  0.00  0.00    +0.000 C 
ATOM     11  C   UNL     1      -7.767  -0.126 130.428  0.00  0.00    +0.000 C 
ATOM     12  C   UNL     1      -7.048  -2.019 130.595  0.00  0.00    +0.000 C 
ATOM     13  N   UNL     1      -7.982  -2.665 129.841  0.00  0.00    +0.000 N 
ATOM     14  C   UNL     1      -7.709  -2.967 128.434  0.00  0.00    +0.000 C 
ATOM     15  O   UNL     1      -8.394  -3.860 127.907  0.00  0.00    +0.000 OA
ATOM     16  C   UNL     1      -6.667  -2.167 127.346  0.00  0.00    +0.000 C 
ATOM     17  N   UNL     1      -7.182  -2.186 125.848  0.00  0.00    +0.000 N 
ATOM     18  C   UNL     1      -7.046  -1.141 124.893  0.00  0.00    +0.000 C 
ATOM     19  O   UNL     1      -5.878  -1.116 124.391  0.00  0.00    +0.000 OA
ATOM     20  C   UNL     1      -8.147   0.384 124.770  0.00  0.00    +0.000 C 
ATOM     21  C   UNL     1      -9.113   0.752 125.910  0.00  0.00    +0.000 C 
ATOM     22  C   UNL     1      -9.453  -0.624 126.207  0.00  0.00    +0.000 C 
ATOM     23  C   UNL     1      -8.415  -0.077 127.159  0.00  0.00    +0.000 C 
ATOM     24  C   UNL     1      -6.882   0.752 126.399  0.00  0.00    +0.000 C 
ATOM     25  N   UNL     1      -7.315   1.471 125.209  0.00  0.00    +0.000 N 
ATOM     26  C   UNL     1      -7.829   2.772 125.426  0.00  0.00    +0.000 C 
ATOM     27  O   UNL     1      -8.848   3.173 124.810  0.00  0.00    +0.000 OA
ATOM     28  C   UNL     1      -7.155   3.483 126.822  0.00  0.00    +0.000 C 
ATOM     29  C   UNL     1      -5.783   4.296 126.801  0.00  0.00    +0.000 C 
ATOM     30  C   UNL     1      -5.201   3.790 125.534  0.00  0.00    +0.000 C 
ATOM     31  C   UNL     1      -6.190   4.909 125.074  0.00  0.00    +0.000 C 
ATOM     32  N   UNL     1      -7.404   5.367 125.588  0.00  0.00    +0.000 NA
ATOM     33  N   UNL     1      -8.047   4.552 126.894  0.00  0.00    +0.000 N 
ATOM     34  C   UNL     1      -7.901   4.949 128.308  0.00  0.00    +0.000 C 
ATOM     35  O   UNL     1      -6.850   5.458 128.728  0.00  0.00    +0.000 OA
ATOM     36  H   UNL     1      -7.325   3.914 130.631  0.00  0.00    +0.000 HD
ATOM     37  H   UNL     1      -9.383   0.513 132.521  0.00  0.00    +0.000 HD
ATOM     38  H   UNL     1      -8.065  -2.673 125.784  0.00  0.00    +0.000 HD
ENDROOT
BRANCH   1  39
ATOM     39  C   UNL     1      -9.655   5.718 130.119  0.00  0.00    +0.000 C 
ATOM     40  C   UNL     1      -9.074   6.402 131.389  0.00  0.00    +0.000 C 
BRANCH  39  42
ATOM     41  C   UNL     1     -11.117   7.764 129.258  0.00  0.00    +0.000 C 
ATOM     42  C   UNL     1     -10.229   6.594 128.964  0.00  0.00    +0.000 C 
ENDBRANCH  39  42
ENDBRANCH   1  39
BRANCH   5  43
ATOM     43  C   UNL     1      -6.486   2.232 132.800  0.00  0.00    +0.000 C 
BRANCH  43  44
ATOM     44  C   UNL     1      -5.640   3.288 132.105  0.00  0.00    +0.000 A 
ATOM     45  C   UNL     1      -5.329   4.552 132.564  0.00  0.00    +0.000 A 
ATOM     46  N   UNL     1      -4.396   5.118 131.723  0.00  0.00    +0.000 N 
ATOM     47  C   UNL     1      -4.102   4.273 130.685  0.00  0.00    +0.000 A 
ATOM     48  C   UNL     1      -3.147   4.367 129.648  0.00  0.00    +0.000 A 
ATOM     49  C   UNL     1      -3.056   3.324 128.739  0.00  0.00    +0.000 A 
ATOM     50  C   UNL     1      -3.885   2.235 128.880  0.00  0.00    +0.000 A 
ATOM     51  C   UNL     1      -4.804   2.137 129.952  0.00  0.00    +0.000 A 
ATOM     52  C   UNL     1      -4.941   3.180 130.859  0.00  0.00    +0.000 A 
ATOM     53  H   UNL     1      -3.997   6.039 131.804  0.00  0.00    +0.000 HD
ENDBRANCH  43  44
ENDBRANCH   5  43
BRANCH  16  54
ATOM     54  C   UNL     1      -5.151  -2.025 127.529  0.00  0.00    +0.000 C 
BRANCH  54  55
ATOM     55  C   UNL     1      -4.469  -2.445 128.815  0.00  0.00    +0.000 A 
ATOM     56  C   UNL     1      -4.204  -3.697 129.358  0.00  0.00    +0.000 A 
ATOM     57  N   UNL     1      -3.292  -3.483 130.369  0.00  0.00    +0.000 N 
ATOM     58  C   UNL     1      -3.111  -2.139 130.461  0.00  0.00    +0.000 A 
ATOM     59  N   UNL     1      -3.984  -1.505 129.694  0.00  0.00    +0.000 NA
ATOM     60  H   UNL     1      -2.810  -4.161 130.945  0.00  0.00    +0.000 HD
ENDBRANCH  54  55
ENDBRANCH  16  54
TORSDOF 6
ENDMDL
MODEL 3
REMARK VINA RESULT:      -9.9      2.927      8.208
REMARK  Name = CHEMBL2112248
REMARK  8 active torsions:
REMARK  status: ('A' for Active; 'I' for Inactive)
REMARK    1  A    between atoms: C_1  and  C_2
REMARK    2  A    between atoms: C_2  and  C_3
REMARK    3  A    between atoms: C_3  and  C_4
REMARK    4  A    between atoms: C_3  and  C_5
REMARK    5  A    between atoms: C_9  and  C_10
REMARK    6  A    between atoms: C_10  and  C_11
REMARK    7  A    between atoms: C_30  and  C_31
REMARK    8  A    between atoms: C_31  and  C_32
REMARK                            x       y       z     vdW  Elec       q    Type
REMARK                         _______ _______ _______ _____ _____    ______ ____
ROOT
ATOM      1  C   UNL     1      -4.711   4.100 128.635  0.00  0.00    +0.000 C 
ATOM      2  N   UNL     1      -5.430   2.913 128.128  0.00  0.00    +0.000 N 
ATOM      3  C   UNL     1      -4.961   1.809 127.427  0.00  0.00    +0.000 C 
ATOM      4  O   UNL     1      -3.809   1.661 127.030  0.00  0.00    +0.000 OA
ATOM      5  C   UNL     1      -5.968   0.616 127.392  0.00  0.00    +0.000 C 
ATOM      6  N   UNL     1      -5.207  -0.742 127.127  0.00  0.00    +0.000 N 
ATOM      7  C   UNL     1      -5.356  -1.906 127.947  0.00  0.00    +0.000 C 
ATOM      8  O   UNL     1      -6.475  -2.457 127.775  0.00  0.00    +0.000 OA
ATOM      9  C   UNL     1      -4.441  -1.817 129.753  0.00  0.00    +0.000 C 
ATOM     10  C   UNL     1      -5.578  -0.732 130.761  0.00  0.00    +0.000 C 
ATOM     11  C   UNL     1      -5.304  -0.611 129.466  0.00  0.00    +0.000 C 
ATOM     12  C   UNL     1      -5.725  -2.506 130.066  0.00  0.00    +0.000 C 
ATOM     13  N   UNL     1      -4.577  -2.769 130.751  0.00  0.00    +0.000 N 
ATOM     14  C   UNL     1      -4.534  -2.600 132.205  0.00  0.00    +0.000 C 
ATOM     15  O   UNL     1      -3.628  -3.194 132.815  0.00  0.00    +0.000 OA
ATOM     16  C   UNL     1      -5.474  -1.578 133.195  0.00  0.00    +0.000 C 
ATOM     17  N   UNL     1      -4.697  -1.040 134.467  0.00  0.00    +0.000 N 
ATOM     18  C   UNL     1      -4.822   0.250 135.053  0.00  0.00    +0.000 C 
ATOM     19  O   UNL     1      -5.866   0.337 135.773  0.00  0.00    +0.000 OA
ATOM     20  C   UNL     1      -3.980   1.821 134.440  0.00  0.00    +0.000 C 
ATOM     21  C   UNL     1      -3.311   1.868 133.055  0.00  0.00    +0.000 C 
ATOM     22  C   UNL     1      -2.813   0.510 133.133  0.00  0.00    +0.000 C 
ATOM     23  C   UNL     1      -4.083   0.603 132.320  0.00  0.00    +0.000 C 
ATOM     24  C   UNL     1      -5.564   1.496 133.109  0.00  0.00    +0.000 C 
ATOM     25  N   UNL     1      -5.042   2.613 133.885  0.00  0.00    +0.000 N 
ATOM     26  C   UNL     1      -4.795   3.805 133.162  0.00  0.00    +0.000 C 
ATOM     27  O   UNL     1      -3.759   4.483 133.375  0.00  0.00    +0.000 OA
ATOM     28  C   UNL     1      -5.819   3.934 131.805  0.00  0.00    +0.000 C 
ATOM     29  C   UNL     1      -7.277   4.576 131.882  0.00  0.00    +0.000 C 
ATOM     30  C   UNL     1      -7.527   4.479 133.341  0.00  0.00    +0.000 C 
ATOM     31  C   UNL     1      -6.665   5.774 133.191  0.00  0.00    +0.000 C 
ATOM     32  N   UNL     1      -5.657   6.140 132.300  0.00  0.00    +0.000 NA
ATOM     33  N   UNL     1      -5.141   4.993 131.203  0.00  0.00    +0.000 N 
ATOM     34  C   UNL     1      -5.606   4.871 129.808  0.00  0.00    +0.000 C 
ATOM     35  O   UNL     1      -6.784   5.109 129.500  0.00  0.00    +0.000 OA
ATOM     36  H   UNL     1      -6.424   3.062 128.118  0.00  0.00    +0.000 HD
ATOM     37  H   UNL     1      -4.225  -0.574 126.969  0.00  0.00    +0.000 HD
ATOM     38  H   UNL     1      -3.750  -1.392 134.478  0.00  0.00    +0.000 HD
ENDROOT
BRANCH   1  39
ATOM     39  C   UNL     1      -4.362   5.139 127.499  0.00  0.00    +0.000 C 
ATOM     40  C   UNL     1      -5.256   5.278 126.234  0.00  0.00    +0.000 C 
BRANCH  39  42
ATOM     41  C   UNL     1      -2.294   6.510 128.449  0.00  0.00    +0.000 C 
ATOM     42  C   UNL     1      -3.760   6.415 128.164  0.00  0.00    +0.000 C 
ENDBRANCH  39  42
ENDBRANCH   1  39
BRANCH   5  43
ATOM     43  C   UNL     1      -7.362   0.674 126.832  0.00  0.00    +0.000 C 
BRANCH  43  44
ATOM     44  C   UNL     1      -7.512   0.212 125.390  0.00  0.00    +0.000 A 
ATOM     45  C   UNL     1      -6.927   0.760 124.266  0.00  0.00    +0.000 A 
ATOM     46  N   UNL     1      -7.171  -0.060 123.188  0.00  0.00    +0.000 N 
ATOM     47  C   UNL     1      -7.943  -1.130 123.556  0.00  0.00    +0.000 A 
ATOM     48  C   UNL     1      -8.359  -2.272 122.836  0.00  0.00    +0.000 A 
ATOM     49  C   UNL     1      -9.127  -3.223 123.492  0.00  0.00    +0.000 A 
ATOM     50  C   UNL     1      -9.449  -3.029 124.815  0.00  0.00    +0.000 A 
ATOM     51  C   UNL     1      -8.984  -1.902 125.534  0.00  0.00    +0.000 A 
ATOM     52  C   UNL     1      -8.242  -0.918 124.895  0.00  0.00    +0.000 A 
ATOM     53  H   UNL     1      -6.878   0.097 122.236  0.00  0.00    +0.000 HD
ENDBRANCH  43  44
ENDBRANCH   5  43
BRANCH  16  54
ATOM     54  C   UNL     1      -7.000  -1.646 133.326  0.00  0.00    +0.000 C 
BRANCH  54  55
ATOM     55  C   UNL     1      -7.666  -2.583 134.313  0.00  0.00    +0.000 A 
ATOM     56  C   UNL     1      -8.564  -3.629 134.137  0.00  0.00    +0.000 A 
ATOM     57  N   UNL     1      -8.576  -4.319 135.330  0.00  0.00    +0.000 N 
ATOM     58  C   UNL     1      -7.778  -3.635 136.192  0.00  0.00    +0.000 A 
ATOM     59  N   UNL     1      -7.419  -2.477 135.662  0.00  0.00    +0.000 NA
ATOM     60  H   UNL     1      -9.054  -5.181 135.563  0.00  0.00    +0.000 HD
ENDBRANCH  54  55
ENDBRANCH  16  54
TORSDOF 6
ENDMDL
MODEL 4
REMARK VINA RESULT:      -9.8      2.432      7.722
REMARK  Name = CHEMBL2112248
REMARK  8 active torsions:
REMARK  status: ('A' for Active; 'I' for Inactive)
REMARK    1  A    between atoms: C_1  and  C_2
REMARK    2  A    between atoms: C_2  and  C_3
REMARK    3  A    between atoms: C_3  and  C_4
REMARK    4  A    between atoms: C_3  and  C_5
REMARK    5  A    between atoms: C_9  and  C_10
REMARK    6  A    between atoms: C_10  and  C_11
REMARK    7  A    between atoms: C_30  and  C_31
REMARK    8  A    between atoms: C_31  and  C_32
REMARK                            x       y       z     vdW  Elec       q    Type
REMARK                         _______ _______ _______ _____ _____    ______ ____
ROOT
ATOM      1  C   UNL     1      -6.028  -0.428 126.319  0.00  0.00    +0.000 C 
ATOM      2  N   UNL     1      -6.498  -0.572 127.713  0.00  0.00    +0.000 N 
ATOM      3  C   UNL     1      -5.920  -1.224 128.794  0.00  0.00    +0.000 C 
ATOM      4  O   UNL     1      -4.889  -1.888 128.750  0.00  0.00    +0.000 OA
ATOM      5  C   UNL     1      -6.554  -0.839 130.169  0.00  0.00    +0.000 C 
ATOM      6  N   UNL     1      -5.537  -1.120 131.344  0.00  0.00    +0.000 N 
ATOM      7  C   UNL     1      -5.184  -0.148 132.334  0.00  0.00    +0.000 C 
ATOM      8  O   UNL     1      -6.124   0.054 133.146  0.00  0.00    +0.000 OA
ATOM      9  C   UNL     1      -3.947   1.326 131.698  0.00  0.00    +0.000 C 
ATOM     10  C   UNL     1      -5.078   2.451 130.727  0.00  0.00    +0.000 C 
ATOM     11  C   UNL     1      -5.142   1.125 130.795  0.00  0.00    +0.000 C 
ATOM     12  C   UNL     1      -4.897   2.052 132.587  0.00  0.00    +0.000 C 
ATOM     13  N   UNL     1      -3.598   2.438 132.447  0.00  0.00    +0.000 N 
ATOM     14  C   UNL     1      -3.279   3.796 131.999  0.00  0.00    +0.000 C 
ATOM     15  O   UNL     1      -2.135   4.215 132.246  0.00  0.00    +0.000 OA
ATOM     16  C   UNL     1      -4.212   4.859 131.048  0.00  0.00    +0.000 C 
ATOM     17  N   UNL     1      -3.344   5.802 130.116  0.00  0.00    +0.000 N 
ATOM     18  C   UNL     1      -3.675   6.229 128.801  0.00  0.00    +0.000 C 
ATOM     19  O   UNL     1      -4.516   7.182 128.817  0.00  0.00    +0.000 OA
ATOM     20  C   UNL     1      -3.440   5.221 127.225  0.00  0.00    +0.000 C 
ATOM     21  C   UNL     1      -3.135   3.714 127.294  0.00  0.00    +0.000 C 
ATOM     22  C   UNL     1      -2.288   3.832 128.462  0.00  0.00    +0.000 C 
ATOM     23  C   UNL     1      -3.685   3.377 128.816  0.00  0.00    +0.000 C 
ATOM     24  C   UNL     1      -5.136   4.408 128.148  0.00  0.00    +0.000 C 
ATOM     25  N   UNL     1      -4.772   4.869 126.816  0.00  0.00    +0.000 N 
ATOM     26  C   UNL     1      -5.019   3.960 125.759  0.00  0.00    +0.000 C 
ATOM     27  O   UNL     1      -4.181   3.803 124.836  0.00  0.00    +0.000 OA
ATOM     28  C   UNL     1      -6.316   2.916 126.125  0.00  0.00    +0.000 C 
ATOM     29  C   UNL     1      -7.837   3.292 125.828  0.00  0.00    +0.000 C 
ATOM     30  C   UNL     1      -7.721   4.765 125.700  0.00  0.00    +0.000 C 
ATOM     31  C   UNL     1      -7.291   4.229 124.296  0.00  0.00    +0.000 C 
ATOM     32  N   UNL     1      -6.642   3.064 123.888  0.00  0.00    +0.000 NA
ATOM     33  N   UNL     1      -6.097   2.026 125.075  0.00  0.00    +0.000 N 
ATOM     34  C   UNL     1      -6.812   0.831 125.562  0.00  0.00    +0.000 C 
ATOM     35  O   UNL     1      -8.049   0.816 125.661  0.00  0.00    +0.000 OA
ATOM     36  H   UNL     1      -7.472  -0.338 127.798  0.00  0.00    +0.000 HD
ATOM     37  H   UNL     1      -4.696  -1.551 130.991  0.00  0.00    +0.000 HD
ATOM     38  H   UNL     1      -2.359   5.607 130.236  0.00  0.00    +0.000 HD
ENDROOT
BRANCH   1  39
ATOM     39  C   UNL     1      -6.231  -1.739 125.464  0.00  0.00    +0.000 C 
ATOM     40  C   UNL     1      -7.398  -2.723 125.765  0.00  0.00    +0.000 C 
BRANCH  39  42
ATOM     41  C   UNL     1      -6.759  -1.801 122.860  0.00  0.00    +0.000 C 
ATOM     42  C   UNL     1      -5.843  -1.430 123.986  0.00  0.00    +0.000 C 
ENDBRANCH  39  42
ENDBRANCH   1  39
BRANCH   5  43
ATOM     43  C   UNL     1      -8.002  -1.015 130.536  0.00  0.00    +0.000 C 
BRANCH  43  44
ATOM     44  C   UNL     1      -8.692   0.218 131.100  0.00  0.00    +0.000 A 
ATOM     45  C   UNL     1      -9.290   0.356 132.337  0.00  0.00    +0.000 A 
ATOM     46  N   UNL     1      -9.633   1.676 132.525  0.00  0.00    +0.000 N 
ATOM     47  C   UNL     1      -9.311   2.424 131.423  0.00  0.00    +0.000 A 
ATOM     48  C   UNL     1      -9.375   3.815 131.188  0.00  0.00    +0.000 A 
ATOM     49  C   UNL     1      -8.946   4.299 129.961  0.00  0.00    +0.000 A 
ATOM     50  C   UNL     1      -8.468   3.414 129.021  0.00  0.00    +0.000 A 
ATOM     51  C   UNL     1      -8.368   2.029 129.290  0.00  0.00    +0.000 A 
ATOM     52  C   UNL     1      -8.820   1.512 130.497  0.00  0.00    +0.000 A 
ATOM     53  H   UNL     1     -10.097   2.066 133.330  0.00  0.00    +0.000 HD
ENDBRANCH  43  44
ENDBRANCH   5  43
BRANCH  16  54
ATOM     54  C   UNL     1      -5.596   5.396 131.434  0.00  0.00    +0.000 C 
BRANCH  54  55
ATOM     55  C   UNL     1      -5.952   5.693 132.877  0.00  0.00    +0.000 A 
ATOM     56  C   UNL     1      -7.140   5.557 133.585  0.00  0.00    +0.000 A 
ATOM     57  N   UNL     1      -6.799   5.672 134.916  0.00  0.00    +0.000 N 
ATOM     58  C   UNL     1      -5.471   5.956 134.961  0.00  0.00    +0.000 A 
ATOM     59  N   UNL     1      -5.012   6.198 133.744  0.00  0.00    +0.000 NA
ATOM     60  H   UNL     1      -7.383   5.557 135.735  0.00  0.00    +0.000 HD
ENDBRANCH  54  55
ENDBRANCH  16  54
TORSDOF 6
ENDMDL
MODEL 5
REMARK VINA RESULT:      -9.6      2.836      8.330
REMARK  Name = CHEMBL2112248
REMARK  8 active torsions:
REMARK  status: ('A' for Active; 'I' for Inactive)
REMARK    1  A    between atoms: C_1  and  C_2
REMARK    2  A    between atoms: C_2  and  C_3
REMARK    3  A    between atoms: C_3  and  C_4
REMARK    4  A    between atoms: C_3  and  C_5
REMARK    5  A    between atoms: C_9  and  C_10
REMARK    6  A    between atoms: C_10  and  C_11
REMARK    7  A    between atoms: C_30  and  C_31
REMARK    8  A    between atoms: C_31  and  C_32
REMARK                            x       y       z     vdW  Elec       q    Type
REMARK                         _______ _______ _______ _____ _____    ______ ____
ROOT
ATOM      1  C   UNL     1      -6.406   3.191 127.470  0.00  0.00    +0.000 C 
ATOM      2  N   UNL     1      -6.550   1.728 127.622  0.00  0.00    +0.000 N 
ATOM      3  C   UNL     1      -5.666   0.701 127.317  0.00  0.00    +0.000 C 
ATOM      4  O   UNL     1      -4.575   0.845 126.775  0.00  0.00    +0.000 OA
ATOM      5  C   UNL     1      -6.055  -0.670 127.957  0.00  0.00    +0.000 C 
ATOM      6  N   UNL     1      -4.787  -1.602 128.080  0.00  0.00    +0.000 N 
ATOM      7  C   UNL     1      -4.395  -2.249 129.296  0.00  0.00    +0.000 C 
ATOM      8  O   UNL     1      -5.167  -3.198 129.589  0.00  0.00    +0.000 OA
ATOM      9  C   UNL     1      -3.564  -1.037 130.692  0.00  0.00    +0.000 C 
ATOM     10  C   UNL     1      -5.035  -0.146 131.421  0.00  0.00    +0.000 C 
ATOM     11  C   UNL     1      -4.873  -0.509 130.153  0.00  0.00    +0.000 C 
ATOM     12  C   UNL     1      -4.414  -1.950 131.509  0.00  0.00    +0.000 C 
ATOM     13  N   UNL     1      -3.248  -1.427 131.984  0.00  0.00    +0.000 N 
ATOM     14  C   UNL     1      -3.247  -0.637 133.217  0.00  0.00    +0.000 C 
ATOM     15  O   UNL     1      -2.157  -0.509 133.802  0.00  0.00    +0.000 OA
ATOM     16  C   UNL     1      -4.512   0.271 133.912  0.00  0.00    +0.000 C 
ATOM     17  N   UNL     1      -4.014   1.562 134.685  0.00  0.00    +0.000 N 
ATOM     18  C   UNL     1      -4.672   2.821 134.742  0.00  0.00    +0.000 C 
ATOM     19  O   UNL     1      -5.632   2.809 135.575  0.00  0.00    +0.000 OA
ATOM     20  C   UNL     1      -4.612   4.154 133.410  0.00  0.00    +0.000 C 
ATOM     21  C   UNL     1      -4.065   3.839 132.006  0.00  0.00    +0.000 C 
ATOM     22  C   UNL     1      -3.025   2.958 132.493  0.00  0.00    +0.000 C 
ATOM     23  C   UNL     1      -4.229   2.194 131.994  0.00  0.00    +0.000 C 
ATOM     24  C   UNL     1      -5.931   2.703 132.672  0.00  0.00    +0.000 C 
ATOM     25  N   UNL     1      -5.926   4.151 132.830  0.00  0.00    +0.000 N 
ATOM     26  C   UNL     1      -6.239   4.899 131.669  0.00  0.00    +0.000 C 
ATOM     27  O   UNL     1      -5.596   5.939 131.382  0.00  0.00    +0.000 OA
ATOM     28  C   UNL     1      -7.252   4.021 130.616  0.00  0.00    +0.000 C 
ATOM     29  C   UNL     1      -8.842   4.023 130.745  0.00  0.00    +0.000 C 
ATOM     30  C   UNL     1      -8.988   4.486 132.147  0.00  0.00    +0.000 C 
ATOM     31  C   UNL     1      -8.778   5.804 131.333  0.00  0.00    +0.000 C 
ATOM     32  N   UNL     1      -8.051   6.096 130.179  0.00  0.00    +0.000 NA
ATOM     33  N   UNL     1      -7.116   4.878 129.525  0.00  0.00    +0.000 N 
ATOM     34  C   UNL     1      -7.518   3.991 128.416  0.00  0.00    +0.000 C 
ATOM     35  O   UNL     1      -8.689   3.601 128.295  0.00  0.00    +0.000 OA
ATOM     36  H   UNL     1      -7.510   1.467 127.765  0.00  0.00    +0.000 HD
ATOM     37  H   UNL     1      -3.980  -1.160 127.667  0.00  0.00    +0.000 HD
ATOM     38  H   UNL     1      -3.008   1.640 134.631  0.00  0.00    +0.000 HD
ENDROOT
BRANCH   1  39
ATOM     39  C   UNL     1      -6.572   3.673 125.976  0.00  0.00    +0.000 C 
ATOM     40  C   UNL     1      -5.420   4.411 125.235  0.00  0.00    +0.000 C 
BRANCH  39  42
ATOM     41  C   UNL     1      -6.905   1.945 123.985  0.00  0.00    +0.000 C 
ATOM     42  C   UNL     1      -7.434   2.623 125.211  0.00  0.00    +0.000 C 
ENDBRANCH  39  42
ENDBRANCH   1  39
BRANCH   5  43
ATOM     43  C   UNL     1      -7.350  -1.399 127.725  0.00  0.00    +0.000 C 
BRANCH  43  44
ATOM     44  C   UNL     1      -7.821  -1.460 126.279  0.00  0.00    +0.000 A 
ATOM     45  C   UNL     1      -9.018  -1.003 125.764  0.00  0.00    +0.000 A 
ATOM     46  N   UNL     1      -8.974  -1.083 124.390  0.00  0.00    +0.000 N 
ATOM     47  C   UNL     1      -7.786  -1.621 123.971  0.00  0.00    +0.000 A 
ATOM     48  C   UNL     1      -7.248  -1.801 122.678  0.00  0.00    +0.000 A 
ATOM     49  C   UNL     1      -5.983  -2.357 122.560  0.00  0.00    +0.000 A 
ATOM     50  C   UNL     1      -5.294  -2.705 123.700  0.00  0.00    +0.000 A 
ATOM     51  C   UNL     1      -5.830  -2.474 124.990  0.00  0.00    +0.000 A 
ATOM     52  C   UNL     1      -7.106  -1.949 125.137  0.00  0.00    +0.000 A 
ATOM     53  H   UNL     1      -9.713  -0.832 123.752  0.00  0.00    +0.000 HD
ENDBRANCH  43  44
ENDBRANCH   5  43
BRANCH  16  54
ATOM     54  C   UNL     1      -5.853  -0.309 134.377  0.00  0.00    +0.000 C 
BRANCH  54  55
ATOM     55  C   UNL     1      -5.929  -1.303 135.518  0.00  0.00    +0.000 A 
ATOM     56  C   UNL     1      -5.001  -1.681 136.481  0.00  0.00    +0.000 A 
ATOM     57  N   UNL     1      -5.713  -2.371 137.439  0.00  0.00    +0.000 N 
ATOM     58  C   UNL     1      -6.992  -2.463 136.992  0.00  0.00    +0.000 A 
ATOM     59  N   UNL     1      -7.074  -2.030 135.744  0.00  0.00    +0.000 NA
ATOM     60  H   UNL     1      -5.394  -2.740 138.326  0.00  0.00    +0.000 HD
ENDBRANCH  54  55
ENDBRANCH  16  54
TORSDOF 6
ENDMDL
MODEL 6
REMARK VINA RESULT:      -9.3      2.475      3.283
REMARK  Name = CHEMBL2112248
REMARK  8 active torsions:
REMARK  status: ('A' for Active; 'I' for Inactive)
REMARK    1  A    between atoms: C_1  and  C_2
REMARK    2  A    between atoms: C_2  and  C_3
REMARK    3  A    between atoms: C_3  and  C_4
REMARK    4  A    between atoms: C_3  and  C_5
REMARK    5  A    between atoms: C_9  and  C_10
REMARK    6  A    between atoms: C_10  and  C_11
REMARK    7  A    between atoms: C_30  and  C_31
REMARK    8  A    between atoms: C_31  and  C_32
REMARK                            x       y       z     vdW  Elec       q    Type
REMARK                         _______ _______ _______ _____ _____    ______ ____
ROOT
ATOM      1  C   UNL     1      -6.485   3.045 131.643  0.00  0.00    +0.000 C 
ATOM      2  N   UNL     1      -6.080   1.644 131.883  0.00  0.00    +0.000 N 
ATOM      3  C   UNL     1      -6.802   0.575 132.399  0.00  0.00    +0.000 C 
ATOM      4  O   UNL     1      -7.949   0.640 132.830  0.00  0.00    +0.000 OA
ATOM      5  C   UNL     1      -6.125  -0.812 132.157  0.00  0.00    +0.000 C 
ATOM      6  N   UNL     1      -7.199  -1.968 132.217  0.00  0.00    +0.000 N 
ATOM      7  C   UNL     1      -7.355  -2.956 131.192  0.00  0.00    +0.000 C 
ATOM      8  O   UNL     1      -6.408  -3.784 131.194  0.00  0.00    +0.000 OA
ATOM      9  C   UNL     1      -8.241  -2.304 129.489  0.00  0.00    +0.000 C 
ATOM     10  C   UNL     1      -6.880  -1.358 128.629  0.00  0.00    +0.000 C 
ATOM     11  C   UNL     1      -7.100  -1.422 129.939  0.00  0.00    +0.000 C 
ATOM     12  C   UNL     1      -7.174  -3.212 128.981  0.00  0.00    +0.000 C 
ATOM     13  N   UNL     1      -8.360  -3.052 128.329  0.00  0.00    +0.000 N 
ATOM     14  C   UNL     1      -8.376  -2.604 126.935  0.00  0.00    +0.000 C 
ATOM     15  O   UNL     1      -9.409  -2.833 126.282  0.00  0.00    +0.000 OA
ATOM     16  C   UNL     1      -7.222  -1.673 126.092  0.00  0.00    +0.000 C 
ATOM     17  N   UNL     1      -7.855  -0.730 124.987  0.00  0.00    +0.000 N 
ATOM     18  C   UNL     1      -7.418   0.577 124.639  0.00  0.00    +0.000 C 
ATOM     19  O   UNL     1      -6.394   0.543 123.886  0.00  0.00    +0.000 OA
ATOM     20  C   UNL     1      -7.833   2.161 125.575  0.00  0.00    +0.000 C 
ATOM     21  C   UNL     1      -8.452   2.104 126.983  0.00  0.00    +0.000 C 
ATOM     22  C   UNL     1      -9.275   0.949 126.689  0.00  0.00    +0.000 C 
ATOM     23  C   UNL     1      -8.012   0.573 127.429  0.00  0.00    +0.000 C 
ATOM     24  C   UNL     1      -6.365   1.213 126.729  0.00  0.00    +0.000 C 
ATOM     25  N   UNL     1      -6.600   2.549 126.201  0.00  0.00    +0.000 N 
ATOM     26  C   UNL     1      -6.532   3.605 127.141  0.00  0.00    +0.000 C 
ATOM     27  O   UNL     1      -7.368   4.543 127.116  0.00  0.00    +0.000 OA
ATOM     28  C   UNL     1      -5.492   3.221 128.436  0.00  0.00    +0.000 C 
ATOM     29  C   UNL     1      -3.921   3.491 128.390  0.00  0.00    +0.000 C 
ATOM     30  C   UNL     1      -3.720   3.615 126.926  0.00  0.00    +0.000 C 
ATOM     31  C   UNL     1      -4.229   5.028 127.359  0.00  0.00    +0.000 C 
ATOM     32  N   UNL     1      -5.103   5.452 128.359  0.00  0.00    +0.000 NA
ATOM     33  N   UNL     1      -5.876   4.278 129.259  0.00  0.00    +0.000 N 
ATOM     34  C   UNL     1      -5.440   3.784 130.579  0.00  0.00    +0.000 C 
ATOM     35  O   UNL     1      -4.236   3.664 130.855  0.00  0.00    +0.000 OA
ATOM     36  H   UNL     1      -5.080   1.542 131.861  0.00  0.00    +0.000 HD
ATOM     37  H   UNL     1      -8.105  -1.599 132.460  0.00  0.00    +0.000 HD
ATOM     38  H   UNL     1      -8.860  -0.833 124.969  0.00  0.00    +0.000 HD
ENDROOT
BRANCH   1  39
ATOM     39  C   UNL     1      -6.549   3.902 132.967  0.00  0.00    +0.000 C 
ATOM     40  C   UNL     1      -5.702   3.520 134.215  0.00  0.00    +0.000 C 
BRANCH  39  42
ATOM     41  C   UNL     1      -8.079   6.013 132.453  0.00  0.00    +0.000 C 
ATOM     42  C   UNL     1      -6.717   5.402 132.578  0.00  0.00    +0.000 C 
ENDBRANCH  39  42
ENDBRANCH   1  39
BRANCH   5  43
ATOM     43  C   UNL     1      -4.754  -1.202 132.636  0.00  0.00    +0.000 C 
BRANCH  43  44
ATOM     44  C   UNL     1      -4.285  -0.524 133.914  0.00  0.00    +0.000 A 
ATOM     45  C   UNL     1      -3.333   0.469 134.039  0.00  0.00    +0.000 A 
ATOM     46  N   UNL     1      -3.336   0.932 135.335  0.00  0.00    +0.000 N 
ATOM     47  C   UNL     1      -4.244   0.244 136.096  0.00  0.00    +0.000 A 
ATOM     48  C   UNL     1      -4.672   0.424 137.430  0.00  0.00    +0.000 A 
ATOM     49  C   UNL     1      -5.646  -0.426 137.933  0.00  0.00    +0.000 A 
ATOM     50  C   UNL     1      -6.168  -1.404 137.118  0.00  0.00    +0.000 A 
ATOM     51  C   UNL     1      -5.761  -1.541 135.769  0.00  0.00    +0.000 A 
ATOM     52  C   UNL     1      -4.764  -0.726 135.249  0.00  0.00    +0.000 A 
ATOM     53  H   UNL     1      -2.736   1.645 135.718  0.00  0.00    +0.000 HD
ENDBRANCH  43  44
ENDBRANCH   5  43
BRANCH  16  54
ATOM     54  C   UNL     1      -5.763  -2.085 125.861  0.00  0.00    +0.000 C 
BRANCH  54  55
ATOM     55  C   UNL     1      -5.358  -2.907 124.655  0.00  0.00    +0.000 A 
ATOM     56  C   UNL     1      -5.469  -2.667 123.291  0.00  0.00    +0.000 A 
ATOM     57  N   UNL     1      -4.656  -3.597 122.678  0.00  0.00    +0.000 N 
ATOM     58  C   UNL     1      -4.166  -4.401 123.658  0.00  0.00    +0.000 A 
ATOM     59  N   UNL     1      -4.764  -4.137 124.809  0.00  0.00    +0.000 NA
ATOM     60  H   UNL     1      -4.422  -3.691 121.697  0.00  0.00    +0.000 HD
ENDBRANCH  54  55
ENDBRANCH  16  54
TORSDOF 6
ENDMDL
MODEL 7
REMARK VINA RESULT:      -9.2      3.041      7.654
REMARK  Name = CHEMBL2112248
REMARK  8 active torsions:
REMARK  status: ('A' for Active; 'I' for Inactive)
REMARK    1  A    between atoms: C_1  and  C_2
REMARK    2  A    between atoms: C_2  and  C_3
REMARK    3  A    between atoms: C_3  and  C_4
REMARK    4  A    between atoms: C_3  and  C_5
REMARK    5  A    between atoms: C_9  and  C_10
REMARK    6  A    between atoms: C_10  and  C_11
REMARK    7  A    between atoms: C_30  and  C_31
REMARK    8  A    between atoms: C_31  and  C_32
REMARK                            x       y       z     vdW  Elec       q    Type
REMARK                         _______ _______ _______ _____ _____    ______ ____
ROOT
ATOM      1  C   UNL     1      -4.230   2.791 129.203  0.00  0.00    +0.000 C 
ATOM      2  N   UNL     1      -5.442   2.081 128.743  0.00  0.00    +0.000 N 
ATOM      3  C   UNL     1      -5.597   1.107 127.765  0.00  0.00    +0.000 C 
ATOM      4  O   UNL     1      -4.705   0.698 127.028  0.00  0.00    +0.000 OA
ATOM      5  C   UNL     1      -6.968   0.363 127.834  0.00  0.00    +0.000 C 
ATOM      6  N   UNL     1      -6.865  -1.051 127.139  0.00  0.00    +0.000 N 
ATOM      7  C   UNL     1      -7.273  -2.272 127.764  0.00  0.00    +0.000 C 
ATOM      8  O   UNL     1      -8.525  -2.361 127.843  0.00  0.00    +0.000 OA
ATOM      9  C   UNL     1      -6.030  -2.961 129.210  0.00  0.00    +0.000 C 
ATOM     10  C   UNL     1      -6.417  -1.865 130.672  0.00  0.00    +0.000 C 
ATOM     11  C   UNL     1      -6.401  -1.508 129.391  0.00  0.00    +0.000 C 
ATOM     12  C   UNL     1      -7.381  -3.247 129.771  0.00  0.00    +0.000 C 
ATOM     13  N   UNL     1      -6.305  -4.041 130.035  0.00  0.00    +0.000 N 
ATOM     14  C   UNL     1      -5.890  -4.279 131.419  0.00  0.00    +0.000 C 
ATOM     15  O   UNL     1      -5.175  -5.275 131.628  0.00  0.00    +0.000 OA
ATOM     16  C   UNL     1      -6.128  -3.300 132.795  0.00  0.00    +0.000 C 
ATOM     17  N   UNL     1      -4.951  -3.398 133.851  0.00  0.00    +0.000 N 
ATOM     18  C   UNL     1      -4.441  -2.338 134.650  0.00  0.00    +0.000 C 
ATOM     19  O   UNL     1      -5.190  -2.103 135.650  0.00  0.00    +0.000 OA
ATOM     20  C   UNL     1      -3.210  -1.028 134.082  0.00  0.00    +0.000 C 
ATOM     21  C   UNL     1      -2.889  -0.844 132.587  0.00  0.00    +0.000 C 
ATOM     22  C   UNL     1      -2.948  -2.261 132.293  0.00  0.00    +0.000 C 
ATOM     23  C   UNL     1      -4.226  -1.548 131.917  0.00  0.00    +0.000 C 
ATOM     24  C   UNL     1      -5.042  -0.457 133.242  0.00  0.00    +0.000 C 
ATOM     25  N   UNL     1      -3.977   0.184 134.001  0.00  0.00    +0.000 N 
ATOM     26  C   UNL     1      -3.451   1.374 133.442  0.00  0.00    +0.000 C 
ATOM     27  O   UNL     1      -2.214   1.595 133.447  0.00  0.00    +0.000 OA
ATOM     28  C   UNL     1      -4.610   2.180 132.487  0.00  0.00    +0.000 C 
ATOM     29  C   UNL     1      -5.655   3.221 133.094  0.00  0.00    +0.000 C 
ATOM     30  C   UNL     1      -5.605   2.836 134.525  0.00  0.00    +0.000 C 
ATOM     31  C   UNL     1      -4.364   3.768 134.342  0.00  0.00    +0.000 C 
ATOM     32  N   UNL     1      -3.509   4.001 133.265  0.00  0.00    +0.000 NA
ATOM     33  N   UNL     1      -3.723   3.076 131.893  0.00  0.00    +0.000 N 
ATOM     34  C   UNL     1      -4.486   3.481 130.697  0.00  0.00    +0.000 C 
ATOM     35  O   UNL     1      -5.518   4.163 130.793  0.00  0.00    +0.000 OA
ATOM     36  H   UNL     1      -6.279   2.545 129.052  0.00  0.00    +0.000 HD
ATOM     37  H   UNL     1      -5.953  -1.179 126.728  0.00  0.00    +0.000 HD
ATOM     38  H   UNL     1      -4.235  -4.031 133.525  0.00  0.00    +0.000 HD
ENDROOT
BRANCH   1  39
ATOM     39  C   UNL     1      -3.760   3.916 128.200  0.00  0.00    +0.000 C 
ATOM     40  C   UNL     1      -4.782   4.679 127.309  0.00  0.00    +0.000 C 
BRANCH  39  42
ATOM     41  C   UNL     1      -2.362   6.146 128.566  0.00  0.00    +0.000 C 
ATOM     42  C   UNL     1      -2.571   4.690 128.848  0.00  0.00    +0.000 C 
ENDBRANCH  39  42
ENDBRANCH   1  39
BRANCH   5  43
ATOM     43  C   UNL     1      -8.317   1.019 127.727  0.00  0.00    +0.000 C 
BRANCH  43  44
ATOM     44  C   UNL     1      -8.562   2.179 128.680  0.00  0.00    +0.000 A 
ATOM     45  C   UNL     1      -8.768   3.505 128.356  0.00  0.00    +0.000 A 
ATOM     46  N   UNL     1      -9.130   4.194 129.492  0.00  0.00    +0.000 N 
ATOM     47  C   UNL     1      -9.135   3.365 130.583  0.00  0.00    +0.000 A 
ATOM     48  C   UNL     1      -9.531   3.585 131.921  0.00  0.00    +0.000 A 
ATOM     49  C   UNL     1      -9.449   2.528 132.816  0.00  0.00    +0.000 A 
ATOM     50  C   UNL     1      -8.996   1.307 132.373  0.00  0.00    +0.000 A 
ATOM     51  C   UNL     1      -8.647   1.092 131.019  0.00  0.00    +0.000 A 
ATOM     52  C   UNL     1      -8.687   2.139 130.108  0.00  0.00    +0.000 A 
ATOM     53  H   UNL     1      -9.328   5.180 129.558  0.00  0.00    +0.000 HD
ENDBRANCH  43  44
ENDBRANCH   5  43
BRANCH  16  54
ATOM     54  C   UNL     1      -7.496  -2.896 133.356  0.00  0.00    +0.000 C 
BRANCH  54  55
ATOM     55  C   UNL     1      -8.032  -3.499 134.639  0.00  0.00    +0.000 A 
ATOM     56  C   UNL     1      -8.105  -4.813 135.085  0.00  0.00    +0.000 A 
ATOM     57  N   UNL     1      -8.383  -4.738 136.433  0.00  0.00    +0.000 N 
ATOM     58  C   UNL     1      -8.555  -3.423 136.729  0.00  0.00    +0.000 A 
ATOM     59  N   UNL     1      -8.574  -2.702 135.619  0.00  0.00    +0.000 NA
ATOM     60  H   UNL     1      -8.441  -5.485 137.114  0.00  0.00    +0.000 HD
ENDBRANCH  54  55
ENDBRANCH  16  54
TORSDOF 6
ENDMDL
MODEL 8
REMARK VINA RESULT:      -9.0      3.816      7.048
REMARK  Name = CHEMBL2112248
REMARK  8 active torsions:
REMARK  status: ('A' for Active; 'I' for Inactive)
REMARK    1  A    between atoms: C_1  and  C_2
REMARK    2  A    between atoms: C_2  and  C_3
REMARK    3  A    between atoms: C_3  and  C_4
REMARK    4  A    between atoms: C_3  and  C_5
REMARK    5  A    between atoms: C_9  and  C_10
REMARK    6  A    between atoms: C_10  and  C_11
REMARK    7  A    between atoms: C_30  and  C_31
REMARK    8  A    between atoms: C_31  and  C_32
REMARK                            x       y       z     vdW  Elec       q    Type
REMARK                         _______ _______ _______ _____ _____    ______ ____
ROOT
ATOM      1  C   UNL     1      -7.815   4.191 131.529  0.00  0.00    +0.000 C 
ATOM      2  N   UNL     1      -6.826   4.576 132.557  0.00  0.00    +0.000 N 
ATOM      3  C   UNL     1      -6.961   4.697 133.934  0.00  0.00    +0.000 C 
ATOM      4  O   UNL     1      -8.011   4.561 134.556  0.00  0.00    +0.000 OA
ATOM      5  C   UNL     1      -5.598   4.776 134.693  0.00  0.00    +0.000 C 
ATOM      6  N   UNL     1      -5.776   4.331 136.197  0.00  0.00    +0.000 N 
ATOM      7  C   UNL     1      -4.962   3.338 136.830  0.00  0.00    +0.000 C 
ATOM      8  O   UNL     1      -3.799   3.762 137.055  0.00  0.00    +0.000 OA
ATOM      9  C   UNL     1      -5.347   1.425 136.282  0.00  0.00    +0.000 C 
ATOM     10  C   UNL     1      -4.540   1.285 134.604  0.00  0.00    +0.000 C 
ATOM     11  C   UNL     1      -5.157   2.351 135.104  0.00  0.00    +0.000 C 
ATOM     12  C   UNL     1      -3.860   1.448 136.382  0.00  0.00    +0.000 C 
ATOM     13  N   UNL     1      -4.587   0.330 136.662  0.00  0.00    +0.000 N 
ATOM     14  C   UNL     1      -4.328  -0.916 135.936  0.00  0.00    +0.000 C 
ATOM     15  O   UNL     1      -4.726  -1.968 136.465  0.00  0.00    +0.000 OA
ATOM     16  C   UNL     1      -3.674  -1.134 134.377  0.00  0.00    +0.000 C 
ATOM     17  N   UNL     1      -4.256  -2.397 133.617  0.00  0.00    +0.000 N 
ATOM     18  C   UNL     1      -4.527  -2.497 132.226  0.00  0.00    +0.000 C 
ATOM     19  O   UNL     1      -3.466  -2.703 131.556  0.00  0.00    +0.000 OA
ATOM     20  C   UNL     1      -6.064  -1.837 131.355  0.00  0.00    +0.000 C 
ATOM     21  C   UNL     1      -7.017  -0.863 132.071  0.00  0.00    +0.000 C 
ATOM     22  C   UNL     1      -6.878  -1.509 133.359  0.00  0.00    +0.000 C 
ATOM     23  C   UNL     1      -6.007  -0.280 133.243  0.00  0.00    +0.000 C 
ATOM     24  C   UNL     1      -4.876  -0.150 131.721  0.00  0.00    +0.000 C 
ATOM     25  N   UNL     1      -5.596  -0.715 130.588  0.00  0.00    +0.000 N 
ATOM     26  C   UNL     1      -6.483   0.163 129.920  0.00  0.00    +0.000 C 
ATOM     27  O   UNL     1      -7.615  -0.229 129.545  0.00  0.00    +0.000 OA
ATOM     28  C   UNL     1      -5.979   1.786 130.064  0.00  0.00    +0.000 C 
ATOM     29  C   UNL     1      -4.944   2.461 129.056  0.00  0.00    +0.000 C 
ATOM     30  C   UNL     1      -4.317   1.249 128.475  0.00  0.00    +0.000 C 
ATOM     31  C   UNL     1      -5.642   1.416 127.662  0.00  0.00    +0.000 C 
ATOM     32  N   UNL     1      -6.900   1.915 127.998  0.00  0.00    +0.000 NA
ATOM     33  N   UNL     1      -7.158   2.355 129.587  0.00  0.00    +0.000 N 
ATOM     34  C   UNL     1      -7.051   3.724 130.126  0.00  0.00    +0.000 C 
ATOM     35  O   UNL     1      -6.193   4.516 129.705  0.00  0.00    +0.000 OA
ATOM     36  H   UNL     1      -6.018   5.009 132.146  0.00  0.00    +0.000 HD
ATOM     37  H   UNL     1      -6.746   4.140 136.398  0.00  0.00    +0.000 HD
ATOM     38  H   UNL     1      -4.939  -2.871 134.192  0.00  0.00    +0.000 HD
ENDROOT
BRANCH   1  39
ATOM     39  C   UNL     1      -8.832   5.350 131.191  0.00  0.00    +0.000 C 
ATOM     40  C   UNL     1      -8.375   6.836 131.153  0.00  0.00    +0.000 C 
BRANCH  39  42
ATOM     41  C   UNL     1     -10.867   3.793 130.486  0.00  0.00    +0.000 C 
ATOM     42  C   UNL     1      -9.843   4.825 130.126  0.00  0.00    +0.000 C 
ENDBRANCH  39  42
ENDBRANCH   1  39
BRANCH   5  43
ATOM     43  C   UNL     1      -4.540   5.821 134.468  0.00  0.00    +0.000 C 
BRANCH  43  44
ATOM     44  C   UNL     1      -3.583   5.551 133.317  0.00  0.00    +0.000 A 
ATOM     45  C   UNL     1      -2.561   4.624 133.271  0.00  0.00    +0.000 A 
ATOM     46  N   UNL     1      -2.056   4.575 131.991  0.00  0.00    +0.000 N 
ATOM     47  C   UNL     1      -2.693   5.479 131.182  0.00  0.00    +0.000 A 
ATOM     48  C   UNL     1      -2.596   5.719 129.794  0.00  0.00    +0.000 A 
ATOM     49  C   UNL     1      -3.402   6.700 129.235  0.00  0.00    +0.000 A 
ATOM     50  C   UNL     1      -4.270   7.397 130.044  0.00  0.00    +0.000 A 
ATOM     51  C   UNL     1      -4.387   7.111 131.425  0.00  0.00    +0.000 A 
ATOM     52  C   UNL     1      -3.570   6.158 132.018  0.00  0.00    +0.000 A 
ATOM     53  H   UNL     1      -1.295   3.999 131.669  0.00  0.00    +0.000 HD
ENDBRANCH  43  44
ENDBRANCH   5  43
BRANCH  16  54
ATOM     54  C   UNL     1      -2.274  -0.681 133.943  0.00  0.00    +0.000 C 
BRANCH  54  55
ATOM     55  C   UNL     1      -1.063  -1.570 134.137  0.00  0.00    +0.000 A 
ATOM     56  C   UNL     1       0.298  -1.288 134.164  0.00  0.00    +0.000 A 
ATOM     57  N   UNL     1       0.904  -2.410 134.688  0.00  0.00    +0.000 N 
ATOM     58  C   UNL     1      -0.072  -3.338 134.870  0.00  0.00    +0.000 A 
ATOM     59  N   UNL     1      -1.206  -2.924 134.328  0.00  0.00    +0.000 NA
ATOM     60  H   UNL     1       1.877  -2.556 134.926  0.00  0.00    +0.000 HD
ENDBRANCH  54  55
ENDBRANCH  16  54
TORSDOF 6
ENDMDL
MODEL 9
REMARK VINA RESULT:      -9.0      2.988      4.245
REMARK  Name = CHEMBL2112248
REMARK  8 active torsions:
REMARK  status: ('A' for Active; 'I' for Inactive)
REMARK    1  A    between atoms: C_1  and  C_2
REMARK    2  A    between atoms: C_2  and  C_3
REMARK    3  A    between atoms: C_3  and  C_4
REMARK    4  A    between atoms: C_3  and  C_5
REMARK    5  A    between atoms: C_9  and  C_10
REMARK    6  A    between atoms: C_10  and  C_11
REMARK    7  A    between atoms: C_30  and  C_31
REMARK    8  A    between atoms: C_31  and  C_32
REMARK                            x       y       z     vdW  Elec       q    Type
REMARK                         _______ _______ _______ _____ _____    ______ ____
ROOT
ATOM      1  C   UNL     1      -5.715   2.214 132.704  0.00  0.00    +0.000 C 
ATOM      2  N   UNL     1      -5.352   0.796 132.497  0.00  0.00    +0.000 N 
ATOM      3  C   UNL     1      -6.072  -0.363 132.754  0.00  0.00    +0.000 C 
ATOM      4  O   UNL     1      -7.174  -0.406 133.292  0.00  0.00    +0.000 OA
ATOM      5  C   UNL     1      -5.480  -1.634 132.064  0.00  0.00    +0.000 C 
ATOM      6  N   UNL     1      -6.594  -2.740 131.894  0.00  0.00    +0.000 N 
ATOM      7  C   UNL     1      -6.881  -3.389 130.651  0.00  0.00    +0.000 C 
ATOM      8  O   UNL     1      -5.974  -4.200 130.327  0.00  0.00    +0.000 OA
ATOM      9  C   UNL     1      -7.881  -2.262 129.296  0.00  0.00    +0.000 C 
ATOM     10  C   UNL     1      -6.560  -1.131 128.615  0.00  0.00    +0.000 C 
ATOM     11  C   UNL     1      -6.668  -1.564 129.867  0.00  0.00    +0.000 C 
ATOM     12  C   UNL     1      -6.902  -3.003 128.452  0.00  0.00    +0.000 C 
ATOM     13  N   UNL     1      -8.132  -2.643 127.987  0.00  0.00    +0.000 N 
ATOM     14  C   UNL     1      -8.249  -1.813 126.786  0.00  0.00    +0.000 C 
ATOM     15  O   UNL     1      -9.344  -1.827 126.197  0.00  0.00    +0.000 OA
ATOM     16  C   UNL     1      -7.133  -0.699 126.138  0.00  0.00    +0.000 C 
ATOM     17  N   UNL     1      -7.817   0.533 125.412  0.00  0.00    +0.000 N 
ATOM     18  C   UNL     1      -7.355   1.877 125.409  0.00  0.00    +0.000 C 
ATOM     19  O   UNL     1      -6.402   2.043 124.584  0.00  0.00    +0.000 OA
ATOM     20  C   UNL     1      -7.618   3.132 126.792  0.00  0.00    +0.000 C 
ATOM     21  C   UNL     1      -8.115   2.683 128.178  0.00  0.00    +0.000 C 
ATOM     22  C   UNL     1      -9.010   1.676 127.647  0.00  0.00    +0.000 C 
ATOM     23  C   UNL     1      -7.706   1.082 128.127  0.00  0.00    +0.000 C 
ATOM     24  C   UNL     1      -6.099   1.867 127.484  0.00  0.00    +0.000 C 
ATOM     25  N   UNL     1      -6.320   3.303 127.382  0.00  0.00    +0.000 N 
ATOM     26  C   UNL     1      -6.125   4.043 128.573  0.00  0.00    +0.000 C 
ATOM     27  O   UNL     1      -6.918   4.963 128.896  0.00  0.00    +0.000 OA
ATOM     28  C   UNL     1      -4.995   3.286 129.600  0.00  0.00    +0.000 C 
ATOM     29  C   UNL     1      -3.423   3.531 129.484  0.00  0.00    +0.000 C 
ATOM     30  C   UNL     1      -3.345   4.066 128.103  0.00  0.00    +0.000 C 
ATOM     31  C   UNL     1      -3.752   5.304 128.966  0.00  0.00    +0.000 C 
ATOM     32  N   UNL     1      -4.517   5.438 130.124  0.00  0.00    +0.000 NA
ATOM     33  N   UNL     1      -5.260   4.068 130.722  0.00  0.00    +0.000 N 
ATOM     34  C   UNL     1      -4.733   3.209 131.800  0.00  0.00    +0.000 C 
ATOM     35  O   UNL     1      -3.517   2.994 131.915  0.00  0.00    +0.000 OA
ATOM     36  H   UNL     1      -4.363   0.688 132.351  0.00  0.00    +0.000 HD
ATOM     37  H   UNL     1      -7.459  -2.441 132.318  0.00  0.00    +0.000 HD
ATOM     38  H   UNL     1      -8.823   0.456 125.460  0.00  0.00    +0.000 HD
ENDROOT
BRANCH   1  39
ATOM     39  C   UNL     1      -5.626   2.655 134.217  0.00  0.00    +0.000 C 
ATOM     40  C   UNL     1      -4.301   2.519 135.020  0.00  0.00    +0.000 C 
BRANCH  39  42
ATOM     41  C   UNL     1      -7.989   3.866 134.109  0.00  0.00    +0.000 C 
ATOM     42  C   UNL     1      -6.525   3.914 134.418  0.00  0.00    +0.000 C 
ENDBRANCH  39  42
ENDBRANCH   1  39
BRANCH   5  43
ATOM     43  C   UNL     1      -4.091  -2.169 132.279  0.00  0.00    +0.000 C 
BRANCH  43  44
ATOM     44  C   UNL     1      -3.644  -2.275 133.729  0.00  0.00    +0.000 A 
ATOM     45  C   UNL     1      -4.358  -2.787 134.794  0.00  0.00    +0.000 A 
ATOM     46  N   UNL     1      -3.530  -2.866 135.892  0.00  0.00    +0.000 N 
ATOM     47  C   UNL     1      -2.283  -2.381 135.597  0.00  0.00    +0.000 A 
ATOM     48  C   UNL     1      -1.090  -2.352 136.354  0.00  0.00    +0.000 A 
ATOM     49  C   UNL     1       0.048  -1.814 135.772  0.00  0.00    +0.000 A 
ATOM     50  C   UNL     1      -0.019  -1.338 134.482  0.00  0.00    +0.000 A 
ATOM     51  C   UNL     1      -1.210  -1.418 133.723  0.00  0.00    +0.000 A 
ATOM     52  C   UNL     1      -2.373  -1.921 134.290  0.00  0.00    +0.000 A 
ATOM     53  H   UNL     1      -3.784  -3.188 136.812  0.00  0.00    +0.000 HD
ENDBRANCH  43  44
ENDBRANCH   5  43
BRANCH  16  54
ATOM     54  C   UNL     1      -5.718  -1.052 125.662  0.00  0.00    +0.000 C 
BRANCH  54  55
ATOM     55  C   UNL     1      -5.480  -2.154 124.649  0.00  0.00    +0.000 A 
ATOM     56  C   UNL     1      -5.639  -2.194 123.269  0.00  0.00    +0.000 A 
ATOM     57  N   UNL     1      -4.975  -3.326 122.848  0.00  0.00    +0.000 N 
ATOM     58  C   UNL     1      -4.528  -3.962 123.962  0.00  0.00    +0.000 A 
ATOM     59  N   UNL     1      -5.025  -3.389 125.047  0.00  0.00    +0.000 NA
ATOM     60  H   UNL     1      -4.810  -3.653 121.904  0.00  0.00    +0.000 HD
ENDBRANCH  54  55
ENDBRANCH  16  54
TORSDOF 6
ENDMDL
