MODEL 1
REMARK VINA RESULT:      -9.4      0.000      0.000
REMARK  Name = CHEMBL3416758
REMARK  25 active torsions:
REMARK  status: ('A' for Active; 'I' for Inactive)
REMARK    1  A    between atoms: C_1  and  O_2
REMARK    2  A    between atoms: O_2  and  C_3
REMARK    3  A    between atoms: C_6  and  C_7
REMARK    4  A    between atoms: C_7  and  C_8
REMARK    5  A    between atoms: C_12  and  N_13
REMARK    6  A    between atoms: C_23  and  C_24
REMARK    7  A    between atoms: C_30  and  C_31
REMARK    8  A    between atoms: N_33  and  C_34
REMARK    9  A    between atoms: C_34  and  C_35
REMARK   10  A    between atoms: C_34  and  C_39
REMARK   11  A    between atoms: C_35  and  C_36
REMARK   12  A    between atoms: C_36  and  C_37
REMARK   13  A    between atoms: C_37  and  N_38
REMARK   14  A    between atoms: N_41  and  C_42
REMARK   15  A    between atoms: C_42  and  C_43
REMARK   16  A    between atoms: C_42  and  C_51
REMARK   17  A    between atoms: C_43  and  C_44
REMARK   18  A    between atoms: C_47  and  O_48
REMARK   19  A    between atoms: C_57  and  C_58
REMARK   20  A    between atoms: C_58  and  C_59
REMARK   21  A    between atoms: C_65  and  C_66
REMARK   22  A    between atoms: C_66  and  C_67
REMARK   23  A    between atoms: C_66  and  O_68
REMARK   24  A    between atoms: C_72  and  C_73
REMARK   25  A    between atoms: C_73  and  C_74
REMARK                            x       y       z     vdW  Elec       q    Type
REMARK                         _______ _______ _______ _____ _____    ______ ____
ROOT
ATOM      1  C   UNL     1      -6.933   0.618 128.539  0.00  0.00    +0.000 C 
ATOM      2  N   UNL     1      -6.350   2.133 127.174  0.00  0.00    +0.000 N 
ATOM      3  C   UNL     1      -5.621   3.627 126.056  0.00  0.00    +0.000 C 
ATOM      4  O   UNL     1      -4.716   4.776 125.468  0.00  0.00    +0.000 OA
ATOM      5  C   UNL     1      -5.940   5.193 126.078  0.00  0.00    +0.000 C 
ATOM      6  C   UNL     1      -4.393   4.886 127.176  0.00  0.00    +0.000 C 
ATOM      7  C   UNL     1      -3.263   3.871 125.890  0.00  0.00    +0.000 C 
ATOM      8  C   UNL     1      -2.576   2.885 126.564  0.00  0.00    +0.000 C 
ATOM      9  C   UNL     1      -3.721   2.195 127.081  0.00  0.00    +0.000 C 
ATOM     10  C   UNL     1      -4.374   3.006 128.130  0.00  0.00    +0.000 C 
ATOM     11  C   UNL     1      -5.417   4.184 127.947  0.00  0.00    +0.000 C 
ATOM     12  S   UNL     1      -3.777   6.492 127.841  0.00  0.00    +0.000 S 
ATOM     13  S   UNL     1      -2.790   5.858 129.440  0.00  0.00    +0.000 S 
ATOM     14  C   UNL     1      -2.765   6.865 130.873  0.00  0.00    +0.000 C 
ATOM     15  C   UNL     1      -2.406   6.236 132.203  0.00  0.00    +0.000 C 
ATOM     16  N   UNL     1      -3.590   5.655 132.820  0.00  0.00    +0.000 N 
ATOM     17  C   UNL     1      -4.334   4.670 132.354  0.00  0.00    +0.000 C 
ATOM     18  O   UNL     1      -5.406   4.458 132.901  0.00  0.00    +0.000 OA
ATOM     19  C   UNL     1      -3.919   3.886 131.202  0.00  0.00    +0.000 C 
ATOM     20  N   UNL     1      -3.558   2.522 131.575  0.00  0.00    +0.000 N 
ATOM     21  C   UNL     1      -4.385   1.627 132.271  0.00  0.00    +0.000 C 
ATOM     22  O   UNL     1      -3.943   0.490 132.514  0.00  0.00    +0.000 OA
ATOM     23  C   UNL     1      -6.110   2.117 132.134  0.00  0.00    +0.000 C 
ATOM     24  N   UNL     1      -7.213   1.797 131.261  0.00  0.00    +0.000 N 
ATOM     25  C   UNL     1      -7.680   0.632 131.326  0.00  0.00    +0.000 C 
ATOM     26  O   UNL     1      -8.649   0.765 130.500  0.00  0.00    +0.000 OA
ATOM     27  C   UNL     1      -6.299  -0.634 131.737  0.00  0.00    +0.000 C 
ATOM     28  N   UNL     1      -7.415  -1.254 131.788  0.00  0.00    +0.000 N 
ATOM     29  C   UNL     1      -7.674  -0.804 130.065  0.00  0.00    +0.000 C 
ATOM     30  O   UNL     1      -8.622  -1.613 130.416  0.00  0.00    +0.000 OA
ATOM     31  H   UNL     1      -5.969   2.333 126.042  0.00  0.00    +0.000 HD
ATOM     32  H   UNL     1      -3.975   6.056 133.670  0.00  0.00    +0.000 HD
ATOM     33  H   UNL     1      -2.716   2.129 131.114  0.00  0.00    +0.000 HD
ATOM     34  H   UNL     1      -7.606   2.120 130.309  0.00  0.00    +0.000 HD
ATOM     35  H   UNL     1      -7.458  -1.243 132.907  0.00  0.00    +0.000 HD
ENDROOT
BRANCH  15  36
ATOM     36  C   UNL     1      -1.815   7.351 133.101  0.00  0.00    +0.000 C 
ATOM     37  O   UNL     1      -0.972   8.099 132.602  0.00  0.00    +0.000 OA
ATOM     38  N   UNL     1      -2.369   7.524 134.379  0.00  0.00    +0.000 N 
ATOM     39  C   UNL     1      -2.617   6.516 135.408  0.00  0.00    +0.000 C 
ATOM     40  C   UNL     1      -3.778   7.092 136.169  0.00  0.00    +0.000 C 
ATOM     41  C   UNL     1      -3.366   8.547 136.305  0.00  0.00    +0.000 C 
ATOM     42  C   UNL     1      -2.559   8.861 135.027  0.00  0.00    +0.000 C 
BRANCH  42  43
ATOM     43  C   UNL     1      -1.247   9.461 135.497  0.00  0.00    +0.000 C 
ATOM     44  O   UNL     1      -0.921   9.230 136.663  0.00  0.00    +0.000 OA
ATOM     45  N   UNL     1      -0.521  10.304 134.660  0.00  0.00    +0.000 N 
ATOM     46  H   UNL     1      -0.885  10.640 133.765  0.00  0.00    +0.000 HD
BRANCH  45  47
ATOM     47  C   UNL     1       0.851  10.795 135.016  0.00  0.00    +0.000 C 
BRANCH  47  48
ATOM     48  C   UNL     1       0.789  12.095 135.818  0.00  0.00    +0.000 C 
ATOM     49  O   UNL     1       1.857  12.675 135.970  0.00  0.00    +0.000 OA
ATOM     50  N   UNL     1      -0.386  12.514 136.410  0.00  0.00    +0.000 N 
ATOM     51  H   UNL     1      -1.174  11.899 136.434  0.00  0.00    +0.000 HD
BRANCH  50  52
ATOM     52  C   UNL     1      -0.522  13.820 137.103  0.00  0.00    +0.000 C 
BRANCH  52  53
ATOM     53  C   UNL     1      -0.327  13.714 138.649  0.00  0.00    +0.000 C 
ATOM     54  N   UNL     1       0.898  13.293 139.115  0.00  0.00    +0.000 N 
ATOM     55  O   UNL     1      -1.231  13.974 139.442  0.00  0.00    +0.000 OA
ATOM     56  H   UNL     1       1.696  13.059 138.555  0.00  0.00    +0.000 HD
ATOM     57  H   UNL     1       1.053  13.204 140.115  0.00  0.00    +0.000 HD
ENDBRANCH  52  53
BRANCH  52  58
ATOM     58  C   UNL     1      -1.918  14.439 136.835  0.00  0.00    +0.000 C 
BRANCH  58  59
ATOM     59  C   UNL     1      -2.126  14.925 135.419  0.00  0.00    +0.000 A 
ATOM     60  C   UNL     1      -2.480  16.248 135.100  0.00  0.00    +0.000 A 
ATOM     61  C   UNL     1      -3.052  16.536 133.841  0.00  0.00    +0.000 A 
ATOM     62  C   UNL     1      -3.052  15.584 132.833  0.00  0.00    +0.000 A 
ATOM     63  C   UNL     1      -2.670  14.287 133.140  0.00  0.00    +0.000 A 
ATOM     64  C   UNL     1      -2.221  13.956 134.420  0.00  0.00    +0.000 A 
BRANCH  62  65
ATOM     65  O   UNL     1      -3.380  15.881 131.542  0.00  0.00    +0.000 OA
ATOM     66  H   UNL     1      -2.673  15.649 130.917  0.00  0.00    +0.000 HD
ENDBRANCH  62  65
ENDBRANCH  58  59
ENDBRANCH  52  58
ENDBRANCH  50  52
ENDBRANCH  47  48
BRANCH  47  67
ATOM     67  C   UNL     1       1.633  11.164 133.767  0.00  0.00    +0.000 C 
BRANCH  67  68
ATOM     68  C   UNL     1       0.713  11.583 132.655  0.00  0.00    +0.000 C 
BRANCH  68  69
ATOM     69  C   UNL     1       1.000  12.928 132.097  0.00  0.00    +0.000 C 
BRANCH  69  70
ATOM     70  N   UNL     1       1.859  13.657 133.009  0.00  0.00    +0.000 NA
ATOM     71  H   UNL     1       2.827  13.361 132.905  0.00  0.00    +0.000 HD
ATOM     72  H   UNL     1       1.562  13.489 133.961  0.00  0.00    +0.000 HD
ENDBRANCH  69  70
ENDBRANCH  68  69
ENDBRANCH  67  68
ENDBRANCH  47  67
ENDBRANCH  45  47
ENDBRANCH  42  43
ENDBRANCH  15  36
BRANCH   5  73
ATOM     73  N   UNL     1      -6.267   4.822 124.486  0.00  0.00    +0.000 NA
ATOM     74  H   UNL     1      -5.607   5.548 123.990  0.00  0.00    +0.000 HD
ATOM     75  H   UNL     1      -7.139   5.213 124.235  0.00  0.00    +0.000 HD
ENDBRANCH   5  73
BRANCH  23  76
ATOM     76  C   UNL     1      -6.610   1.897 133.448  0.00  0.00    +0.000 C 
ATOM     77  C   UNL     1      -7.779   2.814 133.600  0.00  0.00    +0.000 C 
BRANCH  76  78
ATOM     78  O   UNL     1      -5.521   2.136 134.275  0.00  0.00    +0.000 OA
ATOM     79  H   UNL     1      -5.188   3.018 133.979  0.00  0.00    +0.000 HD
ENDBRANCH  76  78
ENDBRANCH  23  76
BRANCH   1  80
ATOM     80  C   UNL     1      -6.810  -1.195 129.023  0.00  0.00    +0.000 C 
BRANCH  80  84
ATOM     81  C   UNL     1      -6.616  -2.651 125.610  0.00  0.00    +0.000 A 
ATOM     82  C   UNL     1      -5.631  -2.084 126.376  0.00  0.00    +0.000 A 
ATOM     83  C   UNL     1      -5.800  -2.145 127.673  0.00  0.00    +0.000 A 
ATOM     84  C   UNL     1      -7.084  -2.206 128.060  0.00  0.00    +0.000 A 
ATOM     85  C   UNL     1      -8.217  -2.632 127.405  0.00  0.00    +0.000 A 
ATOM     86  C   UNL     1      -7.905  -2.912 126.109  0.00  0.00    +0.000 A 
BRANCH  81  88
ATOM     87  C   UNL     1      -6.396  -2.195 123.346  0.00  0.00    +0.000 C 
ATOM     88  O   UNL     1      -6.167  -3.090 124.411  0.00  0.00    +0.000 OA
ENDBRANCH  81  88
ENDBRANCH  80  84
ENDBRANCH   1  80
BRANCH  19  89
ATOM     89  C   UNL     1      -5.121   4.292 130.262  0.00  0.00    +0.000 C 
BRANCH  89  90
ATOM     90  C   UNL     1      -6.006   5.480 130.556  0.00  0.00    +0.000 C 
ATOM     91  N   UNL     1      -7.167   4.931 130.456  0.00  0.00    +0.000 N 
ATOM     92  O   UNL     1      -6.078   6.689 130.641  0.00  0.00    +0.000 OA
ATOM     93  H   UNL     1      -7.143   3.979 130.210  0.00  0.00    +0.000 HD
ATOM     94  H   UNL     1      -7.928   5.403 130.863  0.00  0.00    +0.000 HD
ENDBRANCH  89  90
ENDBRANCH  19  89
BRANCH  27  95
ATOM     95  C   UNL     1      -5.306  -1.851 131.240  0.00  0.00    +0.000 C 
BRANCH  95  96
ATOM     96  C   UNL     1      -5.416  -2.920 132.251  0.00  0.00    +0.000 A 
ATOM     97  C   UNL     1      -4.834  -2.738 133.412  0.00  0.00    +0.000 A 
ATOM     98  C   UNL     1      -4.922  -3.542 134.461  0.00  0.00    +0.000 A 
ATOM     99  C   UNL     1      -5.603  -4.649 134.452  0.00  0.00    +0.000 A 
ATOM    100  C   UNL     1      -5.803  -5.059 133.211  0.00  0.00    +0.000 A 
ATOM    101  C   UNL     1      -5.791  -4.182 132.143  0.00  0.00    +0.000 A 
ENDBRANCH  95  96
ENDBRANCH  27  95
TORSDOF 23
ENDMDL
MODEL 2
REMARK VINA RESULT:      -9.3      1.831      3.147
REMARK  Name = CHEMBL3416758
REMARK  25 active torsions:
REMARK  status: ('A' for Active; 'I' for Inactive)
REMARK    1  A    between atoms: C_1  and  O_2
REMARK    2  A    between atoms: O_2  and  C_3
REMARK    3  A    between atoms: C_6  and  C_7
REMARK    4  A    between atoms: C_7  and  C_8
REMARK    5  A    between atoms: C_12  and  N_13
REMARK    6  A    between atoms: C_23  and  C_24
REMARK    7  A    between atoms: C_30  and  C_31
REMARK    8  A    between atoms: N_33  and  C_34
REMARK    9  A    between atoms: C_34  and  C_35
REMARK   10  A    between atoms: C_34  and  C_39
REMARK   11  A    between atoms: C_35  and  C_36
REMARK   12  A    between atoms: C_36  and  C_37
REMARK   13  A    between atoms: C_37  and  N_38
REMARK   14  A    between atoms: N_41  and  C_42
REMARK   15  A    between atoms: C_42  and  C_43
REMARK   16  A    between atoms: C_42  and  C_51
REMARK   17  A    between atoms: C_43  and  C_44
REMARK   18  A    between atoms: C_47  and  O_48
REMARK   19  A    between atoms: C_57  and  C_58
REMARK   20  A    between atoms: C_58  and  C_59
REMARK   21  A    between atoms: C_65  and  C_66
REMARK   22  A    between atoms: C_66  and  C_67
REMARK   23  A    between atoms: C_66  and  O_68
REMARK   24  A    between atoms: C_72  and  C_73
REMARK   25  A    between atoms: C_73  and  C_74
REMARK                            x       y       z     vdW  Elec       q    Type
REMARK                         _______ _______ _______ _____ _____    ______ ____
ROOT
ATOM      1  C   UNL     1      -6.716   0.314 127.976  0.00  0.00    +0.000 C 
ATOM      2  N   UNL     1      -6.075   1.951 126.789  0.00  0.00    +0.000 N 
ATOM      3  C   UNL     1      -5.320   3.560 125.865  0.00  0.00    +0.000 C 
ATOM      4  O   UNL     1      -4.433   4.802 125.469  0.00  0.00    +0.000 OA
ATOM      5  C   UNL     1      -5.752   5.097 125.934  0.00  0.00    +0.000 C 
ATOM      6  C   UNL     1      -4.341   4.819 127.208  0.00  0.00    +0.000 C 
ATOM      7  C   UNL     1      -2.984   3.968 126.027  0.00  0.00    +0.000 C 
ATOM      8  C   UNL     1      -2.319   2.986 126.728  0.00  0.00    +0.000 C 
ATOM      9  C   UNL     1      -3.467   2.190 127.049  0.00  0.00    +0.000 C 
ATOM     10  C   UNL     1      -4.307   2.886 128.047  0.00  0.00    +0.000 C 
ATOM     11  C   UNL     1      -5.401   4.003 127.795  0.00  0.00    +0.000 C 
ATOM     12  S   UNL     1      -3.934   6.415 128.039  0.00  0.00    +0.000 S 
ATOM     13  S   UNL     1      -3.116   5.742 129.716  0.00  0.00    +0.000 S 
ATOM     14  C   UNL     1      -3.349   6.652 131.195  0.00  0.00    +0.000 C 
ATOM     15  C   UNL     1      -3.119   5.960 132.522  0.00  0.00    +0.000 C 
ATOM     16  N   UNL     1      -4.326   5.263 132.943  0.00  0.00    +0.000 N 
ATOM     17  C   UNL     1      -4.930   4.266 132.328  0.00  0.00    +0.000 C 
ATOM     18  O   UNL     1      -6.045   3.948 132.715  0.00  0.00    +0.000 OA
ATOM     19  C   UNL     1      -4.315   3.588 131.198  0.00  0.00    +0.000 C 
ATOM     20  N   UNL     1      -3.905   2.229 131.537  0.00  0.00    +0.000 N 
ATOM     21  C   UNL     1      -4.747   1.238 132.064  0.00  0.00    +0.000 C 
ATOM     22  O   UNL     1      -4.258   0.119 132.299  0.00  0.00    +0.000 OA
ATOM     23  C   UNL     1      -6.472   1.623 131.729  0.00  0.00    +0.000 C 
ATOM     24  N   UNL     1      -7.428   1.290 130.700  0.00  0.00    +0.000 N 
ATOM     25  C   UNL     1      -7.813   0.095 130.636  0.00  0.00    +0.000 C 
ATOM     26  O   UNL     1      -8.675   0.219 129.698  0.00  0.00    +0.000 OA
ATOM     27  C   UNL     1      -6.407  -1.103 131.154  0.00  0.00    +0.000 C 
ATOM     28  N   UNL     1      -7.472  -1.796 131.021  0.00  0.00    +0.000 N 
ATOM     29  C   UNL     1      -7.540  -1.251 129.307  0.00  0.00    +0.000 C 
ATOM     30  O   UNL     1      -8.464  -2.141 129.483  0.00  0.00    +0.000 OA
ATOM     31  H   UNL     1      -5.568   2.250 125.731  0.00  0.00    +0.000 HD
ATOM     32  H   UNL     1      -4.845   5.582 133.756  0.00  0.00    +0.000 HD
ATOM     33  H   UNL     1      -2.985   1.923 131.170  0.00  0.00    +0.000 HD
ATOM     34  H   UNL     1      -7.718   1.649 129.724  0.00  0.00    +0.000 HD
ATOM     35  H   UNL     1      -7.659  -1.862 132.123  0.00  0.00    +0.000 HD
ENDROOT
BRANCH  15  36
ATOM     36  C   UNL     1      -2.730   7.049 133.553  0.00  0.00    +0.000 C 
ATOM     37  O   UNL     1      -2.142   8.048 133.134  0.00  0.00    +0.000 OA
ATOM     38  N   UNL     1      -3.187   6.894 134.872  0.00  0.00    +0.000 N 
ATOM     39  C   UNL     1      -3.089   5.722 135.738  0.00  0.00    +0.000 C 
ATOM     40  C   UNL     1      -4.277   5.873 136.644  0.00  0.00    +0.000 C 
ATOM     41  C   UNL     1      -4.215   7.351 136.989  0.00  0.00    +0.000 C 
ATOM     42  C   UNL     1      -3.631   8.035 135.735  0.00  0.00    +0.000 C 
BRANCH  42  43
ATOM     43  C   UNL     1      -2.462   8.874 136.221  0.00  0.00    +0.000 C 
ATOM     44  O   UNL     1      -2.096   8.686 137.383  0.00  0.00    +0.000 OA
ATOM     45  N   UNL     1      -1.919   9.860 135.404  0.00  0.00    +0.000 N 
ATOM     46  H   UNL     1      -2.344  10.138 134.516  0.00  0.00    +0.000 HD
BRANCH  45  47
ATOM     47  C   UNL     1      -0.671  10.607 135.774  0.00  0.00    +0.000 C 
BRANCH  47  48
ATOM     48  C   UNL     1      -0.514  11.882 134.947  0.00  0.00    +0.000 C 
ATOM     49  O   UNL     1      -1.095  12.869 135.380  0.00  0.00    +0.000 OA
ATOM     50  N   UNL     1       0.156  11.872 133.739  0.00  0.00    +0.000 N 
ATOM     51  H   UNL     1       0.426  11.000 133.330  0.00  0.00    +0.000 HD
BRANCH  50  52
ATOM     52  C   UNL     1       0.429  13.102 132.955  0.00  0.00    +0.000 C 
BRANCH  52  53
ATOM     53  C   UNL     1       0.031  12.968 131.450  0.00  0.00    +0.000 C 
ATOM     54  N   UNL     1      -1.310  12.912 131.141  0.00  0.00    +0.000 N 
ATOM     55  O   UNL     1       0.872  12.893 130.555  0.00  0.00    +0.000 OA
ATOM     56  H   UNL     1      -2.069  12.966 131.793  0.00  0.00    +0.000 HD
ATOM     57  H   UNL     1      -1.600  12.815 130.174  0.00  0.00    +0.000 HD
ENDBRANCH  52  53
BRANCH  52  58
ATOM     58  C   UNL     1       1.933  13.474 133.024  0.00  0.00    +0.000 C 
BRANCH  58  59
ATOM     59  C   UNL     1       2.529  13.411 134.411  0.00  0.00    +0.000 A 
ATOM     60  C   UNL     1       3.346  12.355 134.854  0.00  0.00    +0.000 A 
ATOM     61  C   UNL     1       3.525  12.142 136.240  0.00  0.00    +0.000 A 
ATOM     62  C   UNL     1       3.105  13.091 137.158  0.00  0.00    +0.000 A 
ATOM     63  C   UNL     1       2.327  14.150 136.715  0.00  0.00    +0.000 A 
ATOM     64  C   UNL     1       2.033  14.305 135.360  0.00  0.00    +0.000 A 
BRANCH  62  65
ATOM     65  O   UNL     1       3.454  13.042 138.477  0.00  0.00    +0.000 OA
ATOM     66  H   UNL     1       2.926  13.648 139.023  0.00  0.00    +0.000 HD
ENDBRANCH  62  65
ENDBRANCH  58  59
ENDBRANCH  52  58
ENDBRANCH  50  52
ENDBRANCH  47  48
BRANCH  47  67
ATOM     67  C   UNL     1       0.565   9.789 135.438  0.00  0.00    +0.000 C 
BRANCH  67  68
ATOM     68  C   UNL     1       1.250   9.304 136.684  0.00  0.00    +0.000 C 
BRANCH  68  69
ATOM     69  C   UNL     1       1.407   7.830 136.762  0.00  0.00    +0.000 C 
BRANCH  69  70
ATOM     70  N   UNL     1       0.501   7.197 135.824  0.00  0.00    +0.000 NA
ATOM     71  H   UNL     1      -0.417   7.068 136.242  0.00  0.00    +0.000 HD
ATOM     72  H   UNL     1       0.871   6.295 135.553  0.00  0.00    +0.000 HD
ENDBRANCH  69  70
ENDBRANCH  68  69
ENDBRANCH  67  68
ENDBRANCH  47  67
ENDBRANCH  45  47
ENDBRANCH  42  43
ENDBRANCH  15  36
BRANCH   5  73
ATOM     73  N   UNL     1      -5.845   4.812 124.294  0.00  0.00    +0.000 NA
ATOM     74  H   UNL     1      -5.105   4.003 124.207  0.00  0.00    +0.000 HD
ATOM     75  H   UNL     1      -5.353   5.521 123.814  0.00  0.00    +0.000 HD
ENDBRANCH   5  73
BRANCH  23  76
ATOM     76  C   UNL     1      -7.119   1.284 132.950  0.00  0.00    +0.000 C 
ATOM     77  C   UNL     1      -8.358   2.115 133.000  0.00  0.00    +0.000 C 
BRANCH  76  78
ATOM     78  O   UNL     1      -6.163   1.533 133.926  0.00  0.00    +0.000 OA
ATOM     79  H   UNL     1      -5.913   2.477 133.776  0.00  0.00    +0.000 HD
ENDBRANCH  76  78
ENDBRANCH  23  76
BRANCH   1  80
ATOM     80  C   UNL     1      -6.524  -1.515 128.368  0.00  0.00    +0.000 C 
BRANCH  80  84
ATOM     81  C   UNL     1      -6.661  -2.813 124.889  0.00  0.00    +0.000 A 
ATOM     82  C   UNL     1      -5.613  -2.255 125.573  0.00  0.00    +0.000 A 
ATOM     83  C   UNL     1      -5.642  -2.377 126.876  0.00  0.00    +0.000 A 
ATOM     84  C   UNL     1      -6.876  -2.489 127.393  0.00  0.00    +0.000 A 
ATOM     85  C   UNL     1      -8.062  -2.916 126.841  0.00  0.00    +0.000 A 
ATOM     86  C   UNL     1      -7.884  -3.130 125.508  0.00  0.00    +0.000 A 
BRANCH  81  88
ATOM     87  C   UNL     1      -6.119  -2.111 122.746  0.00  0.00    +0.000 C 
ATOM     88  O   UNL     1      -6.332  -3.187 123.631  0.00  0.00    +0.000 OA
ENDBRANCH  81  88
ENDBRANCH  80  84
ENDBRANCH   1  80
BRANCH  19  89
ATOM     89  C   UNL     1      -5.413   3.976 130.131  0.00  0.00    +0.000 C 
BRANCH  89  90
ATOM     90  C   UNL     1      -6.413   5.082 130.374  0.00  0.00    +0.000 C 
ATOM     91  N   UNL     1      -7.509   4.461 130.109  0.00  0.00    +0.000 N 
ATOM     92  O   UNL     1      -6.585   6.276 130.506  0.00  0.00    +0.000 OA
ATOM     93  H   UNL     1      -7.386   3.528 129.822  0.00  0.00    +0.000 HD
ATOM     94  H   UNL     1      -8.346   4.855 130.443  0.00  0.00    +0.000 HD
ENDBRANCH  89  90
ENDBRANCH  19  89
BRANCH  27  95
ATOM     95  C   UNL     1      -5.272  -2.217 130.723  0.00  0.00    +0.000 C 
BRANCH  95  96
ATOM     96  C   UNL     1      -5.244  -3.222 131.803  0.00  0.00    +0.000 A 
ATOM     97  C   UNL     1      -5.365  -4.486 131.477  0.00  0.00    +0.000 A 
ATOM     98  C   UNL     1      -5.256  -5.516 132.303  0.00  0.00    +0.000 A 
ATOM     99  C   UNL     1      -5.027  -5.386 133.575  0.00  0.00    +0.000 A 
ATOM    100  C   UNL     1      -5.349  -4.169 133.981  0.00  0.00    +0.000 A 
ATOM    101  C   UNL     1      -5.370  -3.094 133.112  0.00  0.00    +0.000 A 
ENDBRANCH  95  96
ENDBRANCH  27  95
TORSDOF 23
ENDMDL
MODEL 3
REMARK VINA RESULT:      -9.2      1.900      2.462
REMARK  Name = CHEMBL3416758
REMARK  25 active torsions:
REMARK  status: ('A' for Active; 'I' for Inactive)
REMARK    1  A    between atoms: C_1  and  O_2
REMARK    2  A    between atoms: O_2  and  C_3
REMARK    3  A    between atoms: C_6  and  C_7
REMARK    4  A    between atoms: C_7  and  C_8
REMARK    5  A    between atoms: C_12  and  N_13
REMARK    6  A    between atoms: C_23  and  C_24
REMARK    7  A    between atoms: C_30  and  C_31
REMARK    8  A    between atoms: N_33  and  C_34
REMARK    9  A    between atoms: C_34  and  C_35
REMARK   10  A    between atoms: C_34  and  C_39
REMARK   11  A    between atoms: C_35  and  C_36
REMARK   12  A    between atoms: C_36  and  C_37
REMARK   13  A    between atoms: C_37  and  N_38
REMARK   14  A    between atoms: N_41  and  C_42
REMARK   15  A    between atoms: C_42  and  C_43
REMARK   16  A    between atoms: C_42  and  C_51
REMARK   17  A    between atoms: C_43  and  C_44
REMARK   18  A    between atoms: C_47  and  O_48
REMARK   19  A    between atoms: C_57  and  C_58
REMARK   20  A    between atoms: C_58  and  C_59
REMARK   21  A    between atoms: C_65  and  C_66
REMARK   22  A    between atoms: C_66  and  C_67
REMARK   23  A    between atoms: C_66  and  O_68
REMARK   24  A    between atoms: C_72  and  C_73
REMARK   25  A    between atoms: C_73  and  C_74
REMARK                            x       y       z     vdW  Elec       q    Type
REMARK                         _______ _______ _______ _____ _____    ______ ____
ROOT
ATOM      1  C   UNL     1      -6.639   0.493 128.604  0.00  0.00    +0.000 C 
ATOM      2  N   UNL     1      -5.999   1.971 127.225  0.00  0.00    +0.000 N 
ATOM      3  C   UNL     1      -5.248   3.456 126.110  0.00  0.00    +0.000 C 
ATOM      4  O   UNL     1      -4.367   4.645 125.567  0.00  0.00    +0.000 OA
ATOM      5  C   UNL     1      -5.692   4.986 125.980  0.00  0.00    +0.000 C 
ATOM      6  C   UNL     1      -4.291   4.884 127.290  0.00  0.00    +0.000 C 
ATOM      7  C   UNL     1      -2.917   3.901 126.239  0.00  0.00    +0.000 C 
ATOM      8  C   UNL     1      -2.251   3.022 127.065  0.00  0.00    +0.000 C 
ATOM      9  C   UNL     1      -3.396   2.263 127.474  0.00  0.00    +0.000 C 
ATOM     10  C   UNL     1      -4.251   3.073 128.368  0.00  0.00    +0.000 C 
ATOM     11  C   UNL     1      -5.350   4.140 127.968  0.00  0.00    +0.000 C 
ATOM     12  S   UNL     1      -3.904   6.576 127.916  0.00  0.00    +0.000 S 
ATOM     13  S   UNL     1      -3.097   6.127 129.671  0.00  0.00    +0.000 S 
ATOM     14  C   UNL     1      -3.350   7.216 131.021  0.00  0.00    +0.000 C 
ATOM     15  C   UNL     1      -3.128   6.701 132.427  0.00  0.00    +0.000 C 
ATOM     16  N   UNL     1      -4.334   6.052 132.923  0.00  0.00    +0.000 N 
ATOM     17  C   UNL     1      -4.924   4.980 132.434  0.00  0.00    +0.000 C 
ATOM     18  O   UNL     1      -6.040   4.704 132.849  0.00  0.00    +0.000 OA
ATOM     19  C   UNL     1      -4.294   4.169 131.404  0.00  0.00    +0.000 C 
ATOM     20  N   UNL     1      -3.877   2.868 131.917  0.00  0.00    +0.000 N 
ATOM     21  C   UNL     1      -4.716   1.945 132.558  0.00  0.00    +0.000 C 
ATOM     22  O   UNL     1      -4.221   0.868 132.937  0.00  0.00    +0.000 OA
ATOM     23  C   UNL     1      -6.441   2.269 132.163  0.00  0.00    +0.000 C 
ATOM     24  N   UNL     1      -7.384   1.800 131.176  0.00  0.00    +0.000 N 
ATOM     25  C   UNL     1      -7.759   0.603 131.261  0.00  0.00    +0.000 C 
ATOM     26  O   UNL     1      -8.614   0.600 130.308  0.00  0.00    +0.000 OA
ATOM     27  C   UNL     1      -6.350  -0.507 131.939  0.00  0.00    +0.000 C 
ATOM     28  N   UNL     1      -7.408  -1.221 131.886  0.00  0.00    +0.000 N 
ATOM     29  C   UNL     1      -7.464  -0.898 130.116  0.00  0.00    +0.000 C 
ATOM     30  O   UNL     1      -8.383  -1.767 130.396  0.00  0.00    +0.000 OA
ATOM     31  H   UNL     1      -5.485   2.137 126.141  0.00  0.00    +0.000 HD
ATOM     32  H   UNL     1      -4.863   6.467 133.684  0.00  0.00    +0.000 HD
ATOM     33  H   UNL     1      -2.951   2.526 131.599  0.00  0.00    +0.000 HD
ATOM     34  H   UNL     1      -7.668   2.030 130.161  0.00  0.00    +0.000 HD
ATOM     35  H   UNL     1      -7.605  -1.148 132.986  0.00  0.00    +0.000 HD
ENDROOT
BRANCH  15  36
ATOM     36  C   UNL     1      -2.757   7.915 133.314  0.00  0.00    +0.000 C 
ATOM     37  O   UNL     1      -2.708   9.022 132.776  0.00  0.00    +0.000 OA
ATOM     38  N   UNL     1      -2.631   7.701 134.696  0.00  0.00    +0.000 N 
ATOM     39  C   UNL     1      -1.861   6.672 135.392  0.00  0.00    +0.000 C 
ATOM     40  C   UNL     1      -2.623   6.492 136.675  0.00  0.00    +0.000 C 
ATOM     41  C   UNL     1      -2.910   7.931 137.067  0.00  0.00    +0.000 C 
ATOM     42  C   UNL     1      -3.068   8.691 135.732  0.00  0.00    +0.000 C 
BRANCH  42  43
ATOM     43  C   UNL     1      -2.131   9.883 135.815  0.00  0.00    +0.000 C 
ATOM     44  O   UNL     1      -1.244   9.828 136.670  0.00  0.00    +0.000 OA
ATOM     45  N   UNL     1      -2.350  11.003 135.020  0.00  0.00    +0.000 N 
ATOM     46  H   UNL     1      -3.190  11.120 134.449  0.00  0.00    +0.000 HD
BRANCH  45  47
ATOM     47  C   UNL     1      -1.370  12.137 134.951  0.00  0.00    +0.000 C 
BRANCH  47  48
ATOM     48  C   UNL     1      -1.796  13.301 135.846  0.00  0.00    +0.000 C 
ATOM     49  O   UNL     1      -1.920  14.383 135.286  0.00  0.00    +0.000 OA
ATOM     50  N   UNL     1      -1.925  13.141 137.212  0.00  0.00    +0.000 N 
ATOM     51  H   UNL     1      -1.607  12.297 137.644  0.00  0.00    +0.000 HD
BRANCH  50  52
ATOM     52  C   UNL     1      -2.441  14.207 138.107  0.00  0.00    +0.000 C 
BRANCH  52  53
ATOM     53  C   UNL     1      -1.337  15.220 138.550  0.00  0.00    +0.000 C 
ATOM     54  N   UNL     1      -0.997  16.226 137.673  0.00  0.00    +0.000 N 
ATOM     55  O   UNL     1      -0.762  15.128 139.634  0.00  0.00    +0.000 OA
ATOM     56  H   UNL     1      -1.404  16.387 136.772  0.00  0.00    +0.000 HD
ATOM     57  H   UNL     1      -0.276  16.893 137.928  0.00  0.00    +0.000 HD
ENDBRANCH  52  53
BRANCH  52  58
ATOM     58  C   UNL     1      -3.072  13.594 139.383  0.00  0.00    +0.000 C 
BRANCH  58  59
ATOM     59  C   UNL     1      -4.478  13.073 139.196  0.00  0.00    +0.000 A 
ATOM     60  C   UNL     1      -5.628  13.816 139.519  0.00  0.00    +0.000 A 
ATOM     61  C   UNL     1      -6.860  13.152 139.714  0.00  0.00    +0.000 A 
ATOM     62  C   UNL     1      -7.004  11.819 139.364  0.00  0.00    +0.000 A 
ATOM     63  C   UNL     1      -5.875  11.095 139.013  0.00  0.00    +0.000 A 
ATOM     64  C   UNL     1      -4.624  11.709 138.939  0.00  0.00    +0.000 A 
BRANCH  62  65
ATOM     65  O   UNL     1      -8.219  11.199 139.318  0.00  0.00    +0.000 OA
ATOM     66  H   UNL     1      -8.948  11.823 139.159  0.00  0.00    +0.000 HD
ENDBRANCH  62  65
ENDBRANCH  58  59
ENDBRANCH  52  58
ENDBRANCH  50  52
ENDBRANCH  47  48
BRANCH  47  67
ATOM     67  C   UNL     1      -1.334  12.735 133.555  0.00  0.00    +0.000 C 
BRANCH  67  68
ATOM     68  C   UNL     1      -0.177  12.196 132.763  0.00  0.00    +0.000 C 
BRANCH  68  69
ATOM     69  C   UNL     1      -0.001  12.826 131.430  0.00  0.00    +0.000 C 
BRANCH  69  70
ATOM     70  N   UNL     1      -1.215  13.528 131.063  0.00  0.00    +0.000 NA
ATOM     71  H   UNL     1      -1.020  14.508 130.873  0.00  0.00    +0.000 HD
ATOM     72  H   UNL     1      -1.885  13.464 131.818  0.00  0.00    +0.000 HD
ENDBRANCH  69  70
ENDBRANCH  68  69
ENDBRANCH  67  68
ENDBRANCH  47  67
ENDBRANCH  45  47
ENDBRANCH  42  43
ENDBRANCH  15  36
BRANCH   5  73
ATOM     73  N   UNL     1      -5.767   4.494 124.388  0.00  0.00    +0.000 NA
ATOM     74  H   UNL     1      -4.855   3.882 124.343  0.00  0.00    +0.000 HD
ATOM     75  H   UNL     1      -5.481   5.238 123.806  0.00  0.00    +0.000 HD
ENDBRANCH   5  73
BRANCH  23  76
ATOM     76  C   UNL     1      -7.097   2.082 133.412  0.00  0.00    +0.000 C 
ATOM     77  C   UNL     1      -8.347   2.895 133.342  0.00  0.00    +0.000 C 
BRANCH  76  78
ATOM     78  O   UNL     1      -6.155   2.470 134.356  0.00  0.00    +0.000 OA
ATOM     79  H   UNL     1      -5.341   1.974 134.095  0.00  0.00    +0.000 HD
ENDBRANCH  76  78
ENDBRANCH  23  76
BRANCH   1  80
ATOM     80  C   UNL     1      -6.437  -1.271 129.227  0.00  0.00    +0.000 C 
BRANCH  80  84
ATOM     81  C   UNL     1      -6.844  -2.906 125.915  0.00  0.00    +0.000 A 
ATOM     82  C   UNL     1      -5.788  -2.188 126.412  0.00  0.00    +0.000 A 
ATOM     83  C   UNL     1      -5.650  -2.186 127.714  0.00  0.00    +0.000 A 
ATOM     84  C   UNL     1      -6.797  -2.363 128.390  0.00  0.00    +0.000 A 
ATOM     85  C   UNL     1      -7.988  -2.950 128.030  0.00  0.00    +0.000 A 
ATOM     86  C   UNL     1      -7.946  -3.275 126.709  0.00  0.00    +0.000 A 
BRANCH  81  88
ATOM     87  C   UNL     1      -5.418  -2.929 124.086  0.00  0.00    +0.000 C 
ATOM     88  O   UNL     1      -6.628  -3.367 124.662  0.00  0.00    +0.000 OA
ENDBRANCH  81  88
ENDBRANCH  80  84
ENDBRANCH   1  80
BRANCH  19  89
ATOM     89  C   UNL     1      -5.384   4.409 130.288  0.00  0.00    +0.000 C 
BRANCH  89  90
ATOM     90  C   UNL     1      -6.418   5.505 130.397  0.00  0.00    +0.000 C 
ATOM     91  N   UNL     1      -7.488   4.837 130.139  0.00  0.00    +0.000 N 
ATOM     92  O   UNL     1      -6.621   6.702 130.424  0.00  0.00    +0.000 OA
ATOM     93  H   UNL     1      -7.332   3.888 129.935  0.00  0.00    +0.000 HD
ATOM     94  H   UNL     1      -8.347   5.237 130.405  0.00  0.00    +0.000 HD
ENDBRANCH  89  90
ENDBRANCH  19  89
BRANCH  27  95
ATOM     95  C   UNL     1      -5.203  -1.657 131.663  0.00  0.00    +0.000 C 
BRANCH  95  96
ATOM     96  C   UNL     1      -5.458  -2.742 132.631  0.00  0.00    +0.000 A 
ATOM     97  C   UNL     1      -5.131  -2.543 133.884  0.00  0.00    +0.000 A 
ATOM     98  C   UNL     1      -5.386  -3.364 134.894  0.00  0.00    +0.000 A 
ATOM     99  C   UNL     1      -5.992  -4.503 134.747  0.00  0.00    +0.000 A 
ATOM    100  C   UNL     1      -5.917  -4.909 133.491  0.00  0.00    +0.000 A 
ATOM    101  C   UNL     1      -5.736  -4.020 132.448  0.00  0.00    +0.000 A 
ENDBRANCH  95  96
ENDBRANCH  27  95
TORSDOF 23
ENDMDL
MODEL 4
REMARK VINA RESULT:      -9.1      1.448      2.047
REMARK  Name = CHEMBL3416758
REMARK  25 active torsions:
REMARK  status: ('A' for Active; 'I' for Inactive)
REMARK    1  A    between atoms: C_1  and  O_2
REMARK    2  A    between atoms: O_2  and  C_3
REMARK    3  A    between atoms: C_6  and  C_7
REMARK    4  A    between atoms: C_7  and  C_8
REMARK    5  A    between atoms: C_12  and  N_13
REMARK    6  A    between atoms: C_23  and  C_24
REMARK    7  A    between atoms: C_30  and  C_31
REMARK    8  A    between atoms: N_33  and  C_34
REMARK    9  A    between atoms: C_34  and  C_35
REMARK   10  A    between atoms: C_34  and  C_39
REMARK   11  A    between atoms: C_35  and  C_36
REMARK   12  A    between atoms: C_36  and  C_37
REMARK   13  A    between atoms: C_37  and  N_38
REMARK   14  A    between atoms: N_41  and  C_42
REMARK   15  A    between atoms: C_42  and  C_43
REMARK   16  A    between atoms: C_42  and  C_51
REMARK   17  A    between atoms: C_43  and  C_44
REMARK   18  A    between atoms: C_47  and  O_48
REMARK   19  A    between atoms: C_57  and  C_58
REMARK   20  A    between atoms: C_58  and  C_59
REMARK   21  A    between atoms: C_65  and  C_66
REMARK   22  A    between atoms: C_66  and  C_67
REMARK   23  A    between atoms: C_66  and  O_68
REMARK   24  A    between atoms: C_72  and  C_73
REMARK   25  A    between atoms: C_73  and  C_74
REMARK                            x       y       z     vdW  Elec       q    Type
REMARK                         _______ _______ _______ _____ _____    ______ ____
ROOT
ATOM      1  C   UNL     1      -6.785   0.603 128.457  0.00  0.00    +0.000 C 
ATOM      2  N   UNL     1      -6.165   2.163 127.161  0.00  0.00    +0.000 N 
ATOM      3  C   UNL     1      -5.412   3.699 126.119  0.00  0.00    +0.000 C 
ATOM      4  O   UNL     1      -4.504   4.882 125.608  0.00  0.00    +0.000 OA
ATOM      5  C   UNL     1      -5.769   5.257 126.158  0.00  0.00    +0.000 C 
ATOM      6  C   UNL     1      -4.278   4.959 127.333  0.00  0.00    +0.000 C 
ATOM      7  C   UNL     1      -3.055   4.001 126.089  0.00  0.00    +0.000 C 
ATOM      8  C   UNL     1      -2.382   3.015 126.777  0.00  0.00    +0.000 C 
ATOM      9  C   UNL     1      -3.537   2.286 127.215  0.00  0.00    +0.000 C 
ATOM     10  C   UNL     1      -4.266   3.057 128.244  0.00  0.00    +0.000 C 
ATOM     11  C   UNL     1      -5.325   4.216 128.031  0.00  0.00    +0.000 C 
ATOM     12  S   UNL     1      -3.737   6.563 128.067  0.00  0.00    +0.000 S 
ATOM     13  S   UNL     1      -2.824   5.913 129.703  0.00  0.00    +0.000 S 
ATOM     14  C   UNL     1      -2.902   6.887 131.158  0.00  0.00    +0.000 C 
ATOM     15  C   UNL     1      -2.602   6.234 132.491  0.00  0.00    +0.000 C 
ATOM     16  N   UNL     1      -3.803   5.611 133.028  0.00  0.00    +0.000 N 
ATOM     17  C   UNL     1      -4.496   4.622 132.501  0.00  0.00    +0.000 C 
ATOM     18  O   UNL     1      -5.591   4.372 132.983  0.00  0.00    +0.000 OA
ATOM     19  C   UNL     1      -4.001   3.875 131.356  0.00  0.00    +0.000 C 
ATOM     20  N   UNL     1      -3.627   2.511 131.717  0.00  0.00    +0.000 N 
ATOM     21  C   UNL     1      -4.469   1.581 132.346  0.00  0.00    +0.000 C 
ATOM     22  O   UNL     1      -4.014   0.449 132.588  0.00  0.00    +0.000 OA
ATOM     23  C   UNL     1      -6.196   2.035 132.126  0.00  0.00    +0.000 C 
ATOM     24  N   UNL     1      -7.242   1.710 131.186  0.00  0.00    +0.000 N 
ATOM     25  C   UNL     1      -7.683   0.533 131.198  0.00  0.00    +0.000 C 
ATOM     26  O   UNL     1      -8.608   0.664 130.323  0.00  0.00    +0.000 OA
ATOM     27  C   UNL     1      -6.297  -0.710 131.657  0.00  0.00    +0.000 C 
ATOM     28  N   UNL     1      -7.398  -1.357 131.632  0.00  0.00    +0.000 N 
ATOM     29  C   UNL     1      -7.574  -0.872 129.908  0.00  0.00    +0.000 C 
ATOM     30  O   UNL     1      -8.520  -1.710 130.188  0.00  0.00    +0.000 OA
ATOM     31  H   UNL     1      -5.728   2.398 126.056  0.00  0.00    +0.000 HD
ATOM     32  H   UNL     1      -4.244   5.983 133.864  0.00  0.00    +0.000 HD
ATOM     33  H   UNL     1      -2.752   2.149 131.295  0.00  0.00    +0.000 HD
ATOM     34  H   UNL     1      -7.589   2.047 130.221  0.00  0.00    +0.000 HD
ATOM     35  H   UNL     1      -7.503  -1.373 132.747  0.00  0.00    +0.000 HD
ENDROOT
BRANCH  15  36
ATOM     36  C   UNL     1      -2.087   7.341 133.445  0.00  0.00    +0.000 C 
ATOM     37  O   UNL     1      -1.236   8.119 133.010  0.00  0.00    +0.000 OA
ATOM     38  N   UNL     1      -2.715   7.471 134.694  0.00  0.00    +0.000 N 
ATOM     39  C   UNL     1      -2.995   6.434 135.685  0.00  0.00    +0.000 C 
ATOM     40  C   UNL     1      -4.210   6.966 136.392  0.00  0.00    +0.000 C 
ATOM     41  C   UNL     1      -3.841   8.426 136.584  0.00  0.00    +0.000 C 
ATOM     42  C   UNL     1      -2.972   8.788 135.360  0.00  0.00    +0.000 C 
BRANCH  42  43
ATOM     43  C   UNL     1      -1.702   9.406 135.915  0.00  0.00    +0.000 C 
ATOM     44  O   UNL     1      -1.718  10.625 136.101  0.00  0.00    +0.000 OA
ATOM     45  N   UNL     1      -0.565   8.626 136.102  0.00  0.00    +0.000 N 
ATOM     46  H   UNL     1      -0.499   7.660 135.773  0.00  0.00    +0.000 HD
BRANCH  45  47
ATOM     47  C   UNL     1       0.660   9.151 136.790  0.00  0.00    +0.000 C 
BRANCH  47  48
ATOM     48  C   UNL     1       1.113  10.482 136.189  0.00  0.00    +0.000 C 
ATOM     49  O   UNL     1       1.508  10.433 135.030  0.00  0.00    +0.000 OA
ATOM     50  N   UNL     1       1.162  11.631 136.953  0.00  0.00    +0.000 N 
ATOM     51  H   UNL     1       1.033  11.572 137.943  0.00  0.00    +0.000 HD
BRANCH  50  52
ATOM     52  C   UNL     1       1.488  12.965 136.389  0.00  0.00    +0.000 C 
BRANCH  52  53
ATOM     53  C   UNL     1       2.420  13.809 137.315  0.00  0.00    +0.000 C 
ATOM     54  N   UNL     1       3.230  13.133 138.201  0.00  0.00    +0.000 N 
ATOM     55  O   UNL     1       2.432  15.038 137.286  0.00  0.00    +0.000 OA
ATOM     56  H   UNL     1       3.295  12.138 138.302  0.00  0.00    +0.000 HD
ATOM     57  H   UNL     1       3.840  13.653 138.824  0.00  0.00    +0.000 HD
ENDBRANCH  52  53
BRANCH  52  58
ATOM     58  C   UNL     1       0.196  13.782 136.133  0.00  0.00    +0.000 C 
BRANCH  58  59
ATOM     59  C   UNL     1      -0.334  13.690 134.720  0.00  0.00    +0.000 A 
ATOM     60  C   UNL     1      -1.703  13.745 134.402  0.00  0.00    +0.000 A 
ATOM     61  C   UNL     1      -2.153  13.250 133.158  0.00  0.00    +0.000 A 
ATOM     62  C   UNL     1      -1.248  12.931 132.158  0.00  0.00    +0.000 A 
ATOM     63  C   UNL     1       0.104  12.909 132.463  0.00  0.00    +0.000 A 
ATOM     64  C   UNL     1       0.558  13.274 133.731  0.00  0.00    +0.000 A 
BRANCH  62  65
ATOM     65  O   UNL     1      -1.634  12.670 130.874  0.00  0.00    +0.000 OA
ATOM     66  H   UNL     1      -1.437  11.756 130.607  0.00  0.00    +0.000 HD
ENDBRANCH  62  65
ENDBRANCH  58  59
ENDBRANCH  52  58
ENDBRANCH  50  52
ENDBRANCH  47  48
BRANCH  47  67
ATOM     67  C   UNL     1       1.842   8.222 136.570  0.00  0.00    +0.000 C 
BRANCH  67  68
ATOM     68  C   UNL     1       1.425   6.781 136.671  0.00  0.00    +0.000 C 
BRANCH  68  69
ATOM     69  C   UNL     1       2.471   5.880 137.218  0.00  0.00    +0.000 C 
BRANCH  69  70
ATOM     70  N   UNL     1       3.668   5.978 136.406  0.00  0.00    +0.000 NA
ATOM     71  H   UNL     1       3.430   6.012 135.418  0.00  0.00    +0.000 HD
ATOM     72  H   UNL     1       4.259   5.175 136.577  0.00  0.00    +0.000 HD
ENDBRANCH  69  70
ENDBRANCH  68  69
ENDBRANCH  67  68
ENDBRANCH  47  67
ENDBRANCH  45  47
ENDBRANCH  42  43
ENDBRANCH  15  36
BRANCH   5  73
ATOM     73  N   UNL     1      -6.000   4.916 124.543  0.00  0.00    +0.000 NA
ATOM     74  H   UNL     1      -4.997   5.157 124.160  0.00  0.00    +0.000 HD
ATOM     75  H   UNL     1      -6.504   5.655 124.125  0.00  0.00    +0.000 HD
ENDBRANCH   5  73
BRANCH  23  76
ATOM     76  C   UNL     1      -6.762   1.772 133.405  0.00  0.00    +0.000 C 
ATOM     77  C   UNL     1      -7.957   2.660 133.513  0.00  0.00    +0.000 C 
BRANCH  76  78
ATOM     78  O   UNL     1      -5.725   2.014 134.296  0.00  0.00    +0.000 OA
ATOM     79  H   UNL     1      -6.089   1.726 135.167  0.00  0.00    +0.000 HD
ENDBRANCH  76  78
ENDBRANCH  23  76
BRANCH   1  80
ATOM     80  C   UNL     1      -6.645  -1.218 128.907  0.00  0.00    +0.000 C 
BRANCH  80  84
ATOM     81  C   UNL     1      -6.654  -2.673 125.488  0.00  0.00    +0.000 A 
ATOM     82  C   UNL     1      -5.614  -2.155 126.215  0.00  0.00    +0.000 A 
ATOM     83  C   UNL     1      -5.734  -2.211 127.517  0.00  0.00    +0.000 A 
ATOM     84  C   UNL     1      -7.004  -2.212 127.955  0.00  0.00    +0.000 A 
ATOM     85  C   UNL     1      -8.180  -2.583 127.344  0.00  0.00    +0.000 A 
ATOM     86  C   UNL     1      -7.934  -2.875 126.037  0.00  0.00    +0.000 A 
BRANCH  81  88
ATOM     87  C   UNL     1      -6.073  -2.118 123.312  0.00  0.00    +0.000 C 
ATOM     88  O   UNL     1      -6.274  -3.130 124.272  0.00  0.00    +0.000 OA
ENDBRANCH  81  88
ENDBRANCH  80  84
ENDBRANCH   1  80
BRANCH  19  89
ATOM     89  C   UNL     1      -5.158   4.275 130.360  0.00  0.00    +0.000 C 
BRANCH  89  90
ATOM     90  C   UNL     1      -6.089   5.433 130.634  0.00  0.00    +0.000 C 
ATOM     91  N   UNL     1      -7.228   4.851 130.488  0.00  0.00    +0.000 N 
ATOM     92  O   UNL     1      -6.200   6.638 130.726  0.00  0.00    +0.000 OA
ATOM     93  H   UNL     1      -7.167   3.902 130.234  0.00  0.00    +0.000 HD
ATOM     94  H   UNL     1      -8.017   5.296 130.872  0.00  0.00    +0.000 HD
ENDBRANCH  89  90
ENDBRANCH  19  89
BRANCH  27  95
ATOM     95  C   UNL     1      -5.249  -1.892 131.188  0.00  0.00    +0.000 C 
BRANCH  95  96
ATOM     96  C   UNL     1      -5.394  -2.990 132.164  0.00  0.00    +0.000 A 
ATOM     97  C   UNL     1      -5.038  -2.766 133.405  0.00  0.00    +0.000 A 
ATOM     98  C   UNL     1      -5.199  -3.600 134.423  0.00  0.00    +0.000 A 
ATOM     99  C   UNL     1      -5.728  -4.779 134.298  0.00  0.00    +0.000 A 
ATOM    100  C   UNL     1      -5.669  -5.182 133.039  0.00  0.00    +0.000 A 
ATOM    101  C   UNL     1      -5.589  -4.284 131.991  0.00  0.00    +0.000 A 
ENDBRANCH  95  96
ENDBRANCH  27  95
TORSDOF 23
ENDMDL
MODEL 5
REMARK VINA RESULT:      -9.0      4.704     12.441
REMARK  Name = CHEMBL3416758
REMARK  25 active torsions:
REMARK  status: ('A' for Active; 'I' for Inactive)
REMARK    1  A    between atoms: C_1  and  O_2
REMARK    2  A    between atoms: O_2  and  C_3
REMARK    3  A    between atoms: C_6  and  C_7
REMARK    4  A    between atoms: C_7  and  C_8
REMARK    5  A    between atoms: C_12  and  N_13
REMARK    6  A    between atoms: C_23  and  C_24
REMARK    7  A    between atoms: C_30  and  C_31
REMARK    8  A    between atoms: N_33  and  C_34
REMARK    9  A    between atoms: C_34  and  C_35
REMARK   10  A    between atoms: C_34  and  C_39
REMARK   11  A    between atoms: C_35  and  C_36
REMARK   12  A    between atoms: C_36  and  C_37
REMARK   13  A    between atoms: C_37  and  N_38
REMARK   14  A    between atoms: N_41  and  C_42
REMARK   15  A    between atoms: C_42  and  C_43
REMARK   16  A    between atoms: C_42  and  C_51
REMARK   17  A    between atoms: C_43  and  C_44
REMARK   18  A    between atoms: C_47  and  O_48
REMARK   19  A    between atoms: C_57  and  C_58
REMARK   20  A    between atoms: C_58  and  C_59
REMARK   21  A    between atoms: C_65  and  C_66
REMARK   22  A    between atoms: C_66  and  C_67
REMARK   23  A    between atoms: C_66  and  O_68
REMARK   24  A    between atoms: C_72  and  C_73
REMARK   25  A    between atoms: C_73  and  C_74
REMARK                            x       y       z     vdW  Elec       q    Type
REMARK                         _______ _______ _______ _____ _____    ______ ____
ROOT
ATOM      1  C   UNL     1      -3.768   1.232 136.998  0.00  0.00    +0.000 C 
ATOM      2  N   UNL     1      -3.704   3.324 136.652  0.00  0.00    +0.000 N 
ATOM      3  C   UNL     1      -3.820   5.258 136.147  0.00  0.00    +0.000 C 
ATOM      4  O   UNL     1      -4.275   6.641 135.541  0.00  0.00    +0.000 OA
ATOM      5  C   UNL     1      -3.085   6.076 134.985  0.00  0.00    +0.000 C 
ATOM      6  C   UNL     1      -4.798   5.511 134.323  0.00  0.00    +0.000 C 
ATOM      7  C   UNL     1      -5.967   6.206 135.777  0.00  0.00    +0.000 C 
ATOM      8  C   UNL     1      -6.991   5.314 136.006  0.00  0.00    +0.000 C 
ATOM      9  C   UNL     1      -6.170   4.186 136.340  0.00  0.00    +0.000 C 
ATOM     10  C   UNL     1      -5.476   3.687 135.134  0.00  0.00    +0.000 C 
ATOM     11  C   UNL     1      -4.133   4.221 134.487  0.00  0.00    +0.000 C 
ATOM     12  S   UNL     1      -5.035   6.136 132.604  0.00  0.00    +0.000 S 
ATOM     13  S   UNL     1      -6.379   4.840 131.938  0.00  0.00    +0.000 S 
ATOM     14  C   UNL     1      -6.332   4.361 130.253  0.00  0.00    +0.000 C 
ATOM     15  C   UNL     1      -7.039   3.091 129.833  0.00  0.00    +0.000 C 
ATOM     16  N   UNL     1      -6.165   1.941 130.025  0.00  0.00    +0.000 N 
ATOM     17  C   UNL     1      -5.665   1.497 131.161  0.00  0.00    +0.000 C 
ATOM     18  O   UNL     1      -4.785   0.651 131.104  0.00  0.00    +0.000 OA
ATOM     19  C   UNL     1      -6.109   2.021 132.442  0.00  0.00    +0.000 C 
ATOM     20  N   UNL     1      -6.885   1.039 133.192  0.00  0.00    +0.000 N 
ATOM     21  C   UNL     1      -6.448  -0.252 133.526  0.00  0.00    +0.000 C 
ATOM     22  O   UNL     1      -7.219  -0.980 134.177  0.00  0.00    +0.000 OA
ATOM     23  C   UNL     1      -4.654  -0.356 133.455  0.00  0.00    +0.000 C 
ATOM     24  N   UNL     1      -3.569  -0.204 134.394  0.00  0.00    +0.000 N 
ATOM     25  C   UNL     1      -3.458  -1.076 135.293  0.00  0.00    +0.000 C 
ATOM     26  O   UNL     1      -2.381  -0.653 135.842  0.00  0.00    +0.000 OA
ATOM     27  C   UNL     1      -5.181  -1.737 135.818  0.00  0.00    +0.000 C 
ATOM     28  N   UNL     1      -4.300  -2.462 136.393  0.00  0.00    +0.000 N 
ATOM     29  C   UNL     1      -3.680  -0.972 137.189  0.00  0.00    +0.000 C 
ATOM     30  O   UNL     1      -3.055  -1.987 137.693  0.00  0.00    +0.000 OA
ATOM     31  H   UNL     1      -3.846   4.405 137.179  0.00  0.00    +0.000 HD
ATOM     32  H   UNL     1      -5.811   1.427 129.224  0.00  0.00    +0.000 HD
ATOM     33  H   UNL     1      -7.727   1.396 133.681  0.00  0.00    +0.000 HD
ATOM     34  H   UNL     1      -2.968   0.592 134.808  0.00  0.00    +0.000 HD
ATOM     35  H   UNL     1      -4.418  -3.311 135.673  0.00  0.00    +0.000 HD
ENDROOT
BRANCH  15  36
ATOM     36  C   UNL     1      -7.422   3.242 128.340  0.00  0.00    +0.000 C 
ATOM     37  O   UNL     1      -8.562   2.913 128.006  0.00  0.00    +0.000 OA
ATOM     38  N   UNL     1      -6.497   3.867 127.488  0.00  0.00    +0.000 N 
ATOM     39  C   UNL     1      -5.072   3.585 127.326  0.00  0.00    +0.000 C 
ATOM     40  C   UNL     1      -4.514   4.910 126.891  0.00  0.00    +0.000 C 
ATOM     41  C   UNL     1      -5.544   5.358 125.869  0.00  0.00    +0.000 C 
ATOM     42  C   UNL     1      -6.887   4.784 126.369  0.00  0.00    +0.000 C 
BRANCH  42  43
ATOM     43  C   UNL     1      -7.485   4.030 125.195  0.00  0.00    +0.000 C 
ATOM     44  O   UNL     1      -8.713   4.046 125.097  0.00  0.00    +0.000 OA
ATOM     45  N   UNL     1      -6.666   3.290 124.347  0.00  0.00    +0.000 N 
ATOM     46  H   UNL     1      -5.675   3.128 124.538  0.00  0.00    +0.000 HD
BRANCH  45  47
ATOM     47  C   UNL     1      -7.184   2.657 123.088  0.00  0.00    +0.000 C 
BRANCH  47  48
ATOM     48  C   UNL     1      -7.303   1.140 123.232  0.00  0.00    +0.000 C 
ATOM     49  O   UNL     1      -6.574   0.481 122.501  0.00  0.00    +0.000 OA
ATOM     50  N   UNL     1      -8.249   0.573 124.062  0.00  0.00    +0.000 N 
ATOM     51  H   UNL     1      -8.957   1.149 124.471  0.00  0.00    +0.000 HD
BRANCH  50  52
ATOM     52  C   UNL     1      -8.331  -0.887 124.318  0.00  0.00    +0.000 C 
BRANCH  52  53
ATOM     53  C   UNL     1      -8.896  -1.690 123.103  0.00  0.00    +0.000 C 
ATOM     54  N   UNL     1      -7.994  -2.216 122.204  0.00  0.00    +0.000 N 
ATOM     55  O   UNL     1     -10.103  -1.842 122.924  0.00  0.00    +0.000 OA
ATOM     56  H   UNL     1      -6.996  -2.149 122.260  0.00  0.00    +0.000 HD
ATOM     57  H   UNL     1      -8.330  -2.734 121.399  0.00  0.00    +0.000 HD
ENDBRANCH  52  53
BRANCH  52  58
ATOM     58  C   UNL     1      -9.229  -1.178 125.547  0.00  0.00    +0.000 C 
BRANCH  58  59
ATOM     59  C   UNL     1      -8.542  -1.937 126.658  0.00  0.00    +0.000 A 
ATOM     60  C   UNL     1      -8.884  -3.252 127.023  0.00  0.00    +0.000 A 
ATOM     61  C   UNL     1      -8.513  -3.746 128.294  0.00  0.00    +0.000 A 
ATOM     62  C   UNL     1      -7.621  -3.043 129.089  0.00  0.00    +0.000 A 
ATOM     63  C   UNL     1      -7.258  -1.759 128.712  0.00  0.00    +0.000 A 
ATOM     64  C   UNL     1      -7.720  -1.207 127.516  0.00  0.00    +0.000 A 
BRANCH  62  65
ATOM     65  O   UNL     1      -7.059  -3.579 130.212  0.00  0.00    +0.000 OA
ATOM     66  H   UNL     1      -7.242  -4.530 130.300  0.00  0.00    +0.000 HD
ENDBRANCH  62  65
ENDBRANCH  58  59
ENDBRANCH  52  58
ENDBRANCH  50  52
ENDBRANCH  47  48
BRANCH  47  67
ATOM     67  C   UNL     1      -6.201   2.849 121.946  0.00  0.00    +0.000 C 
BRANCH  67  68
ATOM     68  C   UNL     1      -5.483   4.163 122.062  0.00  0.00    +0.000 C 
BRANCH  68  69
ATOM     69  C   UNL     1      -5.117   4.777 120.760  0.00  0.00    +0.000 C 
BRANCH  69  70
ATOM     70  N   UNL     1      -4.350   5.984 120.992  0.00  0.00    +0.000 NA
ATOM     71  H   UNL     1      -3.821   6.240 120.162  0.00  0.00    +0.000 HD
ATOM     72  H   UNL     1      -3.708   5.835 121.761  0.00  0.00    +0.000 HD
ENDBRANCH  69  70
ENDBRANCH  68  69
ENDBRANCH  67  68
ENDBRANCH  47  67
ENDBRANCH  45  47
ENDBRANCH  42  43
ENDBRANCH  15  36
BRANCH   5  73
ATOM     73  N   UNL     1      -2.647   6.963 136.327  0.00  0.00    +0.000 NA
ATOM     74  H   UNL     1      -1.556   6.834 136.283  0.00  0.00    +0.000 HD
ATOM     75  H   UNL     1      -2.829   6.433 137.140  0.00  0.00    +0.000 HD
ENDBRANCH   5  73
BRANCH  23  76
ATOM     76  C   UNL     1      -4.431  -1.621 132.842  0.00  0.00    +0.000 C 
ATOM     77  C   UNL     1      -3.088  -1.529 132.195  0.00  0.00    +0.000 C 
BRANCH  76  78
ATOM     78  O   UNL     1      -5.519  -1.790 131.997  0.00  0.00    +0.000 OA
ATOM     79  H   UNL     1      -5.194  -1.459 131.124  0.00  0.00    +0.000 HD
ENDBRANCH  76  78
ENDBRANCH  23  76
BRANCH   1  80
ATOM     80  C   UNL     1      -4.458  -0.169 138.046  0.00  0.00    +0.000 C 
BRANCH  80  84
ATOM     81  C   UNL     1      -5.117   1.449 141.325  0.00  0.00    +0.000 A 
ATOM     82  C   UNL     1      -5.967   1.227 140.273  0.00  0.00    +0.000 A 
ATOM     83  C   UNL     1      -5.678   0.211 139.500  0.00  0.00    +0.000 A 
ATOM     84  C   UNL     1      -4.372  -0.101 139.464  0.00  0.00    +0.000 A 
ATOM     85  C   UNL     1      -3.352   0.132 140.358  0.00  0.00    +0.000 A 
ATOM     86  C   UNL     1      -3.814   0.921 141.368  0.00  0.00    +0.000 A 
BRANCH  81  88
ATOM     87  C   UNL     1      -5.208   1.682 143.631  0.00  0.00    +0.000 C 
ATOM     88  O   UNL     1      -5.720   2.058 142.373  0.00  0.00    +0.000 OA
ENDBRANCH  81  88
ENDBRANCH  80  84
ENDBRANCH   1  80
BRANCH  19  89
ATOM     89  C   UNL     1      -4.719   2.625 132.886  0.00  0.00    +0.000 C 
BRANCH  89  90
ATOM     90  C   UNL     1      -3.596   2.862 131.904  0.00  0.00    +0.000 C 
ATOM     91  N   UNL     1      -2.592   2.460 132.603  0.00  0.00    +0.000 N 
ATOM     92  O   UNL     1      -3.248   3.421 130.884  0.00  0.00    +0.000 OA
ATOM     93  H   UNL     1      -2.825   2.164 133.512  0.00  0.00    +0.000 HD
ATOM     94  H   UNL     1      -1.761   2.245 132.122  0.00  0.00    +0.000 HD
ENDBRANCH  89  90
ENDBRANCH  19  89
BRANCH  27  95
ATOM     95  C   UNL     1      -6.389  -1.795 136.936  0.00  0.00    +0.000 C 
BRANCH  95  96
ATOM     96  C   UNL     1      -6.896  -3.181 136.931  0.00  0.00    +0.000 A 
ATOM     97  C   UNL     1      -7.637  -3.567 135.920  0.00  0.00    +0.000 A 
ATOM     98  C   UNL     1      -8.082  -4.796 135.707  0.00  0.00    +0.000 A 
ATOM     99  C   UNL     1      -7.842  -5.788 136.511  0.00  0.00    +0.000 A 
ATOM    100  C   UNL     1      -7.509  -5.341 137.710  0.00  0.00    +0.000 A 
ATOM    101  C   UNL     1      -6.965  -4.083 137.893  0.00  0.00    +0.000 A 
ENDBRANCH  95  96
ENDBRANCH  27  95
TORSDOF 23
ENDMDL
MODEL 6
REMARK VINA RESULT:      -9.0      4.735     12.397
REMARK  Name = CHEMBL3416758
REMARK  25 active torsions:
REMARK  status: ('A' for Active; 'I' for Inactive)
REMARK    1  A    between atoms: C_1  and  O_2
REMARK    2  A    between atoms: O_2  and  C_3
REMARK    3  A    between atoms: C_6  and  C_7
REMARK    4  A    between atoms: C_7  and  C_8
REMARK    5  A    between atoms: C_12  and  N_13
REMARK    6  A    between atoms: C_23  and  C_24
REMARK    7  A    between atoms: C_30  and  C_31
REMARK    8  A    between atoms: N_33  and  C_34
REMARK    9  A    between atoms: C_34  and  C_35
REMARK   10  A    between atoms: C_34  and  C_39
REMARK   11  A    between atoms: C_35  and  C_36
REMARK   12  A    between atoms: C_36  and  C_37
REMARK   13  A    between atoms: C_37  and  N_38
REMARK   14  A    between atoms: N_41  and  C_42
REMARK   15  A    between atoms: C_42  and  C_43
REMARK   16  A    between atoms: C_42  and  C_51
REMARK   17  A    between atoms: C_43  and  C_44
REMARK   18  A    between atoms: C_47  and  O_48
REMARK   19  A    between atoms: C_57  and  C_58
REMARK   20  A    between atoms: C_58  and  C_59
REMARK   21  A    between atoms: C_65  and  C_66
REMARK   22  A    between atoms: C_66  and  C_67
REMARK   23  A    between atoms: C_66  and  O_68
REMARK   24  A    between atoms: C_72  and  C_73
REMARK   25  A    between atoms: C_73  and  C_74
REMARK                            x       y       z     vdW  Elec       q    Type
REMARK                         _______ _______ _______ _____ _____    ______ ____
ROOT
ATOM      1  C   UNL     1      -3.919   1.207 137.390  0.00  0.00    +0.000 C 
ATOM      2  N   UNL     1      -3.695   3.312 137.262  0.00  0.00    +0.000 N 
ATOM      3  C   UNL     1      -3.638   5.288 136.938  0.00  0.00    +0.000 C 
ATOM      4  O   UNL     1      -3.937   6.747 136.421  0.00  0.00    +0.000 OA
ATOM      5  C   UNL     1      -2.721   6.156 135.958  0.00  0.00    +0.000 C 
ATOM      6  C   UNL     1      -4.367   5.770 135.045  0.00  0.00    +0.000 C 
ATOM      7  C   UNL     1      -5.666   6.408 136.411  0.00  0.00    +0.000 C 
ATOM      8  C   UNL     1      -6.760   5.570 136.430  0.00  0.00    +0.000 C 
ATOM      9  C   UNL     1      -6.051   4.364 136.746  0.00  0.00    +0.000 C 
ATOM     10  C   UNL     1      -5.242   3.930 135.587  0.00  0.00    +0.000 C 
ATOM     11  C   UNL     1      -3.801   4.428 135.159  0.00  0.00    +0.000 C 
ATOM     12  S   UNL     1      -4.353   6.563 133.379  0.00  0.00    +0.000 S 
ATOM     13  S   UNL     1      -5.675   5.426 132.435  0.00  0.00    +0.000 S 
ATOM     14  C   UNL     1      -5.445   5.100 130.729  0.00  0.00    +0.000 C 
ATOM     15  C   UNL     1      -6.165   3.923 130.106  0.00  0.00    +0.000 C 
ATOM     16  N   UNL     1      -5.388   2.705 130.286  0.00  0.00    +0.000 N 
ATOM     17  C   UNL     1      -5.058   2.127 131.424  0.00  0.00    +0.000 C 
ATOM     18  O   UNL     1      -4.227   1.231 131.389  0.00  0.00    +0.000 OA
ATOM     19  C   UNL     1      -5.628   2.562 132.689  0.00  0.00    +0.000 C 
ATOM     20  N   UNL     1      -6.545   1.570 133.242  0.00  0.00    +0.000 N 
ATOM     21  C   UNL     1      -6.227   0.227 133.497  0.00  0.00    +0.000 C 
ATOM     22  O   UNL     1      -7.112  -0.503 133.978  0.00  0.00    +0.000 OA
ATOM     23  C   UNL     1      -4.446   0.009 133.630  0.00  0.00    +0.000 C 
ATOM     24  N   UNL     1      -3.479   0.002 134.701  0.00  0.00    +0.000 N 
ATOM     25  C   UNL     1      -3.530  -0.953 135.517  0.00  0.00    +0.000 C 
ATOM     26  O   UNL     1      -2.507  -0.655 136.227  0.00  0.00    +0.000 OA
ATOM     27  C   UNL     1      -5.339  -1.541 135.767  0.00  0.00    +0.000 C 
ATOM     28  N   UNL     1      -4.578  -2.373 136.368  0.00  0.00    +0.000 N 
ATOM     29  C   UNL     1      -3.979  -1.006 137.373  0.00  0.00    +0.000 C 
ATOM     30  O   UNL     1      -3.479  -2.103 137.847  0.00  0.00    +0.000 OA
ATOM     31  H   UNL     1      -3.840   4.348 137.872  0.00  0.00    +0.000 HD
ATOM     32  H   UNL     1      -4.967   2.242 129.486  0.00  0.00    +0.000 HD
ATOM     33  H   UNL     1      -7.420   1.938 133.660  0.00  0.00    +0.000 HD
ATOM     34  H   UNL     1      -2.891   0.715 135.259  0.00  0.00    +0.000 HD
ATOM     35  H   UNL     1      -4.654  -3.143 135.559  0.00  0.00    +0.000 HD
ENDROOT
BRANCH  15  36
ATOM     36  C   UNL     1      -6.351   4.235 128.600  0.00  0.00    +0.000 C 
ATOM     37  O   UNL     1      -7.304   4.945 128.277  0.00  0.00    +0.000 OA
ATOM     38  N   UNL     1      -5.350   3.802 127.715  0.00  0.00    +0.000 N 
ATOM     39  C   UNL     1      -4.751   2.475 127.596  0.00  0.00    +0.000 C 
ATOM     40  C   UNL     1      -3.377   2.773 127.066  0.00  0.00    +0.000 C 
ATOM     41  C   UNL     1      -3.677   3.809 125.997  0.00  0.00    +0.000 C 
ATOM     42  C   UNL     1      -4.902   4.589 126.521  0.00  0.00    +0.000 C 
BRANCH  42  43
ATOM     43  C   UNL     1      -5.926   4.563 125.402  0.00  0.00    +0.000 C 
ATOM     44  O   UNL     1      -6.792   5.441 125.427  0.00  0.00    +0.000 OA
ATOM     45  N   UNL     1      -5.919   3.533 124.467  0.00  0.00    +0.000 N 
ATOM     46  H   UNL     1      -5.318   2.710 124.557  0.00  0.00    +0.000 HD
BRANCH  45  47
ATOM     47  C   UNL     1      -6.807   3.544 123.257  0.00  0.00    +0.000 C 
BRANCH  47  48
ATOM     48  C   UNL     1      -7.990   2.591 123.422  0.00  0.00    +0.000 C 
ATOM     49  O   UNL     1      -9.082   3.041 123.099  0.00  0.00    +0.000 OA
ATOM     50  N   UNL     1      -7.829   1.346 123.997  0.00  0.00    +0.000 N 
ATOM     51  H   UNL     1      -6.962   1.112 124.437  0.00  0.00    +0.000 HD
BRANCH  50  52
ATOM     52  C   UNL     1      -8.922   0.345 124.079  0.00  0.00    +0.000 C 
BRANCH  52  53
ATOM     53  C   UNL     1      -9.105  -0.245 125.514  0.00  0.00    +0.000 C 
ATOM     54  N   UNL     1      -8.180   0.100 126.474  0.00  0.00    +0.000 N 
ATOM     55  O   UNL     1     -10.025  -1.011 125.794  0.00  0.00    +0.000 OA
ATOM     56  H   UNL     1      -7.398   0.715 126.348  0.00  0.00    +0.000 HD
ATOM     57  H   UNL     1      -8.265  -0.274 127.413  0.00  0.00    +0.000 HD
ENDBRANCH  52  53
BRANCH  52  58
ATOM     58  C   UNL     1      -8.661  -0.832 123.104  0.00  0.00    +0.000 C 
BRANCH  58  59
ATOM     59  C   UNL     1      -7.483  -1.703 123.476  0.00  0.00    +0.000 A 
ATOM     60  C   UNL     1      -6.198  -1.541 122.929  0.00  0.00    +0.000 A 
ATOM     61  C   UNL     1      -5.271  -2.605 122.991  0.00  0.00    +0.000 A 
ATOM     62  C   UNL     1      -5.523  -3.714 123.784  0.00  0.00    +0.000 A 
ATOM     63  C   UNL     1      -6.780  -3.857 124.351  0.00  0.00    +0.000 A 
ATOM     64  C   UNL     1      -7.754  -2.869 124.192  0.00  0.00    +0.000 A 
BRANCH  62  65
ATOM     65  O   UNL     1      -4.572  -4.654 124.056  0.00  0.00    +0.000 OA
ATOM     66  H   UNL     1      -4.942  -5.442 124.488  0.00  0.00    +0.000 HD
ENDBRANCH  62  65
ENDBRANCH  58  59
ENDBRANCH  52  58
ENDBRANCH  50  52
ENDBRANCH  47  48
BRANCH  47  67
ATOM     67  C   UNL     1      -6.067   3.014 122.041  0.00  0.00    +0.000 C 
BRANCH  67  68
ATOM     68  C   UNL     1      -5.610   4.136 121.152  0.00  0.00    +0.000 C 
BRANCH  68  69
ATOM     69  C   UNL     1      -4.453   4.902 121.679  0.00  0.00    +0.000 C 
BRANCH  69  70
ATOM     70  N   UNL     1      -4.309   6.137 120.934  0.00  0.00    +0.000 NA
ATOM     71  H   UNL     1      -3.517   6.675 121.280  0.00  0.00    +0.000 HD
ATOM     72  H   UNL     1      -5.151   6.689 121.029  0.00  0.00    +0.000 HD
ENDBRANCH  69  70
ENDBRANCH  68  69
ENDBRANCH  67  68
ENDBRANCH  47  67
ENDBRANCH  45  47
ENDBRANCH  42  43
ENDBRANCH  15  36
BRANCH   5  73
ATOM     73  N   UNL     1      -2.403   6.886 137.422  0.00  0.00    +0.000 NA
ATOM     74  H   UNL     1      -1.461   7.395 137.172  0.00  0.00    +0.000 HD
ATOM     75  H   UNL     1      -2.049   6.211 138.050  0.00  0.00    +0.000 HD
ENDBRANCH   5  73
BRANCH  23  76
ATOM     76  C   UNL     1      -4.219  -1.207 132.926  0.00  0.00    +0.000 C 
ATOM     77  C   UNL     1      -2.802  -1.151 132.461  0.00  0.00    +0.000 C 
BRANCH  76  78
ATOM     78  O   UNL     1      -5.197  -1.221 131.940  0.00  0.00    +0.000 OA
ATOM     79  H   UNL     1      -6.017  -0.943 132.417  0.00  0.00    +0.000 HD
ENDBRANCH  76  78
ENDBRANCH  23  76
BRANCH   1  80
ATOM     80  C   UNL     1      -4.811  -0.233 138.207  0.00  0.00    +0.000 C 
BRANCH  80  84
ATOM     81  C   UNL     1      -5.653   1.023 141.601  0.00  0.00    +0.000 A 
ATOM     82  C   UNL     1      -6.425   0.977 140.469  0.00  0.00    +0.000 A 
ATOM     83  C   UNL     1      -6.124   0.044 139.601  0.00  0.00    +0.000 A 
ATOM     84  C   UNL     1      -4.837  -0.337 139.625  0.00  0.00    +0.000 A 
ATOM     85  C   UNL     1      -3.883  -0.271 140.615  0.00  0.00    +0.000 A 
ATOM     86  C   UNL     1      -4.385   0.419 141.676  0.00  0.00    +0.000 A 
BRANCH  81  88
ATOM     87  C   UNL     1      -7.261   0.670 143.235  0.00  0.00    +0.000 C 
ATOM     88  O   UNL     1      -6.308   1.539 142.667  0.00  0.00    +0.000 OA
ENDBRANCH  81  88
ENDBRANCH  80  84
ENDBRANCH   1  80
BRANCH  19  89
ATOM     89  C   UNL     1      -4.272   3.027 133.351  0.00  0.00    +0.000 C 
BRANCH  89  90
ATOM     90  C   UNL     1      -3.027   3.285 132.536  0.00  0.00    +0.000 C 
ATOM     91  N   UNL     1      -2.156   2.652 133.242  0.00  0.00    +0.000 N 
ATOM     92  O   UNL     1      -2.510   3.959 131.669  0.00  0.00    +0.000 OA
ATOM     93  H   UNL     1      -2.520   2.240 134.058  0.00  0.00    +0.000 HD
ATOM     94  H   UNL     1      -1.303   2.420 132.810  0.00  0.00    +0.000 HD
ENDBRANCH  89  90
ENDBRANCH  19  89
BRANCH  27  95
ATOM     95  C   UNL     1      -6.678  -1.618 136.723  0.00  0.00    +0.000 C 
BRANCH  95  96
ATOM     96  C   UNL     1      -7.201  -2.992 136.599  0.00  0.00    +0.000 A 
ATOM     97  C   UNL     1      -7.890  -3.299 135.527  0.00  0.00    +0.000 A 
ATOM     98  C   UNL     1      -8.338  -4.505 135.209  0.00  0.00    +0.000 A 
ATOM     99  C   UNL     1      -8.154  -5.551 135.957  0.00  0.00    +0.000 A 
ATOM    100  C   UNL     1      -7.880  -5.189 137.199  0.00  0.00    +0.000 A 
ATOM    101  C   UNL     1      -7.331  -3.955 137.494  0.00  0.00    +0.000 A 
ENDBRANCH  95  96
ENDBRANCH  27  95
TORSDOF 23
ENDMDL
MODEL 7
REMARK VINA RESULT:      -8.6      2.084      3.642
REMARK  Name = CHEMBL3416758
REMARK  25 active torsions:
REMARK  status: ('A' for Active; 'I' for Inactive)
REMARK    1  A    between atoms: C_1  and  O_2
REMARK    2  A    between atoms: O_2  and  C_3
REMARK    3  A    between atoms: C_6  and  C_7
REMARK    4  A    between atoms: C_7  and  C_8
REMARK    5  A    between atoms: C_12  and  N_13
REMARK    6  A    between atoms: C_23  and  C_24
REMARK    7  A    between atoms: C_30  and  C_31
REMARK    8  A    between atoms: N_33  and  C_34
REMARK    9  A    between atoms: C_34  and  C_35
REMARK   10  A    between atoms: C_34  and  C_39
REMARK   11  A    between atoms: C_35  and  C_36
REMARK   12  A    between atoms: C_36  and  C_37
REMARK   13  A    between atoms: C_37  and  N_38
REMARK   14  A    between atoms: N_41  and  C_42
REMARK   15  A    between atoms: C_42  and  C_43
REMARK   16  A    between atoms: C_42  and  C_51
REMARK   17  A    between atoms: C_43  and  C_44
REMARK   18  A    between atoms: C_47  and  O_48
REMARK   19  A    between atoms: C_57  and  C_58
REMARK   20  A    between atoms: C_58  and  C_59
REMARK   21  A    between atoms: C_65  and  C_66
REMARK   22  A    between atoms: C_66  and  C_67
REMARK   23  A    between atoms: C_66  and  O_68
REMARK   24  A    between atoms: C_72  and  C_73
REMARK   25  A    between atoms: C_73  and  C_74
REMARK                            x       y       z     vdW  Elec       q    Type
REMARK                         _______ _______ _______ _____ _____    ______ ____
ROOT
ATOM      1  C   UNL     1      -6.868   0.726 128.579  0.00  0.00    +0.000 C 
ATOM      2  N   UNL     1      -6.246   2.286 127.283  0.00  0.00    +0.000 N 
ATOM      3  C   UNL     1      -5.473   3.804 126.229  0.00  0.00    +0.000 C 
ATOM      4  O   UNL     1      -4.529   4.941 125.682  0.00  0.00    +0.000 OA
ATOM      5  C   UNL     1      -5.718   5.379 126.342  0.00  0.00    +0.000 C 
ATOM      6  C   UNL     1      -4.164   4.943 127.385  0.00  0.00    +0.000 C 
ATOM      7  C   UNL     1      -3.111   3.950 126.019  0.00  0.00    +0.000 C 
ATOM      8  C   UNL     1      -2.455   2.899 126.622  0.00  0.00    +0.000 C 
ATOM      9  C   UNL     1      -3.619   2.234 127.129  0.00  0.00    +0.000 C 
ATOM     10  C   UNL     1      -4.211   3.015 128.236  0.00  0.00    +0.000 C 
ATOM     11  C   UNL     1      -5.202   4.248 128.142  0.00  0.00    +0.000 C 
ATOM     12  S   UNL     1      -3.459   6.482 128.119  0.00  0.00    +0.000 S 
ATOM     13  S   UNL     1      -2.468   5.717 129.657  0.00  0.00    +0.000 S 
ATOM     14  C   UNL     1      -2.365   6.643 131.142  0.00  0.00    +0.000 C 
ATOM     15  C   UNL     1      -2.007   5.927 132.426  0.00  0.00    +0.000 C 
ATOM     16  N   UNL     1      -3.203   5.366 133.040  0.00  0.00    +0.000 N 
ATOM     17  C   UNL     1      -4.001   4.443 132.541  0.00  0.00    +0.000 C 
ATOM     18  O   UNL     1      -5.070   4.250 133.102  0.00  0.00    +0.000 OA
ATOM     19  C   UNL     1      -3.649   3.705 131.339  0.00  0.00    +0.000 C 
ATOM     20  N   UNL     1      -3.342   2.308 131.629  0.00  0.00    +0.000 N 
ATOM     21  C   UNL     1      -4.195   1.415 132.296  0.00  0.00    +0.000 C 
ATOM     22  O   UNL     1      -3.801   0.248 132.468  0.00  0.00    +0.000 OA
ATOM     23  C   UNL     1      -5.898   1.989 132.228  0.00  0.00    +0.000 C 
ATOM     24  N   UNL     1      -7.034   1.767 131.366  0.00  0.00    +0.000 N 
ATOM     25  C   UNL     1      -7.553   0.622 131.380  0.00  0.00    +0.000 C 
ATOM     26  O   UNL     1      -8.532   0.843 130.586  0.00  0.00    +0.000 OA
ATOM     27  C   UNL     1      -6.223  -0.726 131.690  0.00  0.00    +0.000 C 
ATOM     28  N   UNL     1      -7.365  -1.297 131.734  0.00  0.00    +0.000 N 
ATOM     29  C   UNL     1      -7.641  -0.742 130.044  0.00  0.00    +0.000 C 
ATOM     30  O   UNL     1      -8.617  -1.525 130.375  0.00  0.00    +0.000 OA
ATOM     31  H   UNL     1      -5.881   2.529 126.154  0.00  0.00    +0.000 HD
ATOM     32  H   UNL     1      -3.550   5.738 133.919  0.00  0.00    +0.000 HD
ATOM     33  H   UNL     1      -2.530   1.904 131.128  0.00  0.00    +0.000 HD
ATOM     34  H   UNL     1      -7.432   2.158 130.442  0.00  0.00    +0.000 HD
ATOM     35  H   UNL     1      -7.383  -1.344 132.853  0.00  0.00    +0.000 HD
ENDROOT
BRANCH  15  36
ATOM     36  C   UNL     1      -1.345   6.963 133.368  0.00  0.00    +0.000 C 
ATOM     37  O   UNL     1      -0.523   6.548 134.187  0.00  0.00    +0.000 OA
ATOM     38  N   UNL     1      -1.620   8.321 133.142  0.00  0.00    +0.000 N 
ATOM     39  C   UNL     1      -2.917   8.972 132.971  0.00  0.00    +0.000 C 
ATOM     40  C   UNL     1      -2.587  10.158 132.109  0.00  0.00    +0.000 C 
ATOM     41  C   UNL     1      -1.316  10.670 132.764  0.00  0.00    +0.000 C 
ATOM     42  C   UNL     1      -0.606   9.412 133.310  0.00  0.00    +0.000 C 
BRANCH  42  43
ATOM     43  C   UNL     1      -0.311   9.698 134.771  0.00  0.00    +0.000 C 
ATOM     44  O   UNL     1       0.797   9.352 135.187  0.00  0.00    +0.000 OA
ATOM     45  N   UNL     1      -1.296  10.236 135.594  0.00  0.00    +0.000 N 
ATOM     46  H   UNL     1      -2.266  10.347 135.292  0.00  0.00    +0.000 HD
BRANCH  45  47
ATOM     47  C   UNL     1      -1.009  10.679 136.998  0.00  0.00    +0.000 C 
BRANCH  47  48
ATOM     48  C   UNL     1      -2.142  10.296 137.949  0.00  0.00    +0.000 C 
ATOM     49  O   UNL     1      -2.263  11.003 138.942  0.00  0.00    +0.000 OA
ATOM     50  N   UNL     1      -2.901   9.162 137.736  0.00  0.00    +0.000 N 
ATOM     51  H   UNL     1      -2.625   8.507 137.032  0.00  0.00    +0.000 HD
BRANCH  50  52
ATOM     52  C   UNL     1      -4.080   8.808 138.566  0.00  0.00    +0.000 C 
BRANCH  52  53
ATOM     53  C   UNL     1      -3.695   8.358 140.012  0.00  0.00    +0.000 C 
ATOM     54  N   UNL     1      -3.848   9.271 141.032  0.00  0.00    +0.000 N 
ATOM     55  O   UNL     1      -3.250   7.237 140.251  0.00  0.00    +0.000 OA
ATOM     56  H   UNL     1      -4.202  10.204 140.942  0.00  0.00    +0.000 HD
ATOM     57  H   UNL     1      -3.597   9.012 141.981  0.00  0.00    +0.000 HD
ENDBRANCH  52  53
BRANCH  52  58
ATOM     58  C   UNL     1      -4.892   7.665 137.906  0.00  0.00    +0.000 C 
BRANCH  58  59
ATOM     59  C   UNL     1      -6.298   8.047 137.505  0.00  0.00    +0.000 A 
ATOM     60  C   UNL     1      -6.852   9.317 137.745  0.00  0.00    +0.000 A 
ATOM     61  C   UNL     1      -8.255   9.483 137.732  0.00  0.00    +0.000 A 
ATOM     62  C   UNL     1      -9.079   8.475 137.256  0.00  0.00    +0.000 A 
ATOM     63  C   UNL     1      -8.526   7.232 136.987  0.00  0.00    +0.000 A 
ATOM     64  C   UNL     1      -7.154   7.015 137.119  0.00  0.00    +0.000 A 
BRANCH  62  65
ATOM     65  O   UNL     1     -10.408   8.667 137.009  0.00  0.00    +0.000 OA
ATOM     66  H   UNL     1     -10.795   9.352 137.579  0.00  0.00    +0.000 HD
ENDBRANCH  62  65
ENDBRANCH  58  59
ENDBRANCH  52  58
ENDBRANCH  50  52
ENDBRANCH  47  48
BRANCH  47  67
ATOM     67  C   UNL     1      -0.948  12.195 137.082  0.00  0.00    +0.000 C 
BRANCH  67  68
ATOM     68  C   UNL     1      -1.801  12.832 136.022  0.00  0.00    +0.000 C 
BRANCH  68  69
ATOM     69  C   UNL     1      -1.073  13.777 135.138  0.00  0.00    +0.000 C 
BRANCH  69  70
ATOM     70  N   UNL     1      -1.891  14.951 134.905  0.00  0.00    +0.000 NA
ATOM     71  H   UNL     1      -2.676  14.976 135.552  0.00  0.00    +0.000 HD
ATOM     72  H   UNL     1      -2.244  14.935 133.957  0.00  0.00    +0.000 HD
ENDBRANCH  69  70
ENDBRANCH  68  69
ENDBRANCH  67  68
ENDBRANCH  47  67
ENDBRANCH  45  47
ENDBRANCH  42  43
ENDBRANCH  15  36
BRANCH   5  73
ATOM     73  N   UNL     1      -6.097   5.111 124.741  0.00  0.00    +0.000 NA
ATOM     74  H   UNL     1      -6.762   5.969 124.565  0.00  0.00    +0.000 HD
ATOM     75  H   UNL     1      -6.765   4.386 124.683  0.00  0.00    +0.000 HD
ENDBRANCH   5  73
BRANCH  23  76
ATOM     76  C   UNL     1      -6.379   1.720 133.541  0.00  0.00    +0.000 C 
ATOM     77  C   UNL     1      -7.499   2.681 133.770  0.00  0.00    +0.000 C 
BRANCH  76  78
ATOM     78  O   UNL     1      -5.262   1.862 134.352  0.00  0.00    +0.000 OA
ATOM     79  H   UNL     1      -4.602   2.312 133.770  0.00  0.00    +0.000 HD
ENDBRANCH  76  78
ENDBRANCH  23  76
BRANCH   1  80
ATOM     80  C   UNL     1      -6.819  -1.114 128.963  0.00  0.00    +0.000 C 
BRANCH  80  84
ATOM     81  C   UNL     1      -6.589  -2.498 125.521  0.00  0.00    +0.000 A 
ATOM     82  C   UNL     1      -5.592  -2.080 126.364  0.00  0.00    +0.000 A 
ATOM     83  C   UNL     1      -5.850  -2.151 127.646  0.00  0.00    +0.000 A 
ATOM     84  C   UNL     1      -7.154  -2.058 127.952  0.00  0.00    +0.000 A 
ATOM     85  C   UNL     1      -8.287  -2.320 127.215  0.00  0.00    +0.000 A 
ATOM     86  C   UNL     1      -7.930  -2.606 125.933  0.00  0.00    +0.000 A 
BRANCH  81  88
ATOM     87  C   UNL     1      -6.279  -2.061 123.264  0.00  0.00    +0.000 C 
ATOM     88  O   UNL     1      -6.122  -2.961 124.339  0.00  0.00    +0.000 OA
ENDBRANCH  81  88
ENDBRANCH  80  84
ENDBRANCH   1  80
BRANCH  19  89
ATOM     89  C   UNL     1      -4.850   4.215 130.451  0.00  0.00    +0.000 C 
BRANCH  89  90
ATOM     90  C   UNL     1      -5.683   5.414 130.839  0.00  0.00    +0.000 C 
ATOM     91  N   UNL     1      -6.867   4.928 130.695  0.00  0.00    +0.000 N 
ATOM     92  O   UNL     1      -5.702   6.615 131.018  0.00  0.00    +0.000 OA
ATOM     93  H   UNL     1      -6.885   3.998 130.374  0.00  0.00    +0.000 HD
ATOM     94  H   UNL     1      -7.608   5.399 131.137  0.00  0.00    +0.000 HD
ENDBRANCH  89  90
ENDBRANCH  19  89
BRANCH  27  95
ATOM     95  C   UNL     1      -5.299  -1.957 131.103  0.00  0.00    +0.000 C 
BRANCH  95  96
ATOM     96  C   UNL     1      -5.390  -3.053 132.088  0.00  0.00    +0.000 A 
ATOM     97  C   UNL     1      -5.057  -2.799 133.330  0.00  0.00    +0.000 A 
ATOM     98  C   UNL     1      -5.180  -3.632 134.354  0.00  0.00    +0.000 A 
ATOM     99  C   UNL     1      -5.643  -4.840 134.235  0.00  0.00    +0.000 A 
ATOM    100  C   UNL     1      -5.552  -5.249 132.981  0.00  0.00    +0.000 A 
ATOM    101  C   UNL     1      -5.512  -4.358 131.925  0.00  0.00    +0.000 A 
ENDBRANCH  95  96
ENDBRANCH  27  95
TORSDOF 23
ENDMDL
MODEL 8
REMARK VINA RESULT:      -8.2      6.427     11.443
REMARK  Name = CHEMBL3416758
REMARK  25 active torsions:
REMARK  status: ('A' for Active; 'I' for Inactive)
REMARK    1  A    between atoms: C_1  and  O_2
REMARK    2  A    between atoms: O_2  and  C_3
REMARK    3  A    between atoms: C_6  and  C_7
REMARK    4  A    between atoms: C_7  and  C_8
REMARK    5  A    between atoms: C_12  and  N_13
REMARK    6  A    between atoms: C_23  and  C_24
REMARK    7  A    between atoms: C_30  and  C_31
REMARK    8  A    between atoms: N_33  and  C_34
REMARK    9  A    between atoms: C_34  and  C_35
REMARK   10  A    between atoms: C_34  and  C_39
REMARK   11  A    between atoms: C_35  and  C_36
REMARK   12  A    between atoms: C_36  and  C_37
REMARK   13  A    between atoms: C_37  and  N_38
REMARK   14  A    between atoms: N_41  and  C_42
REMARK   15  A    between atoms: C_42  and  C_43
REMARK   16  A    between atoms: C_42  and  C_51
REMARK   17  A    between atoms: C_43  and  C_44
REMARK   18  A    between atoms: C_47  and  O_48
REMARK   19  A    between atoms: C_57  and  C_58
REMARK   20  A    between atoms: C_58  and  C_59
REMARK   21  A    between atoms: C_65  and  C_66
REMARK   22  A    between atoms: C_66  and  C_67
REMARK   23  A    between atoms: C_66  and  O_68
REMARK   24  A    between atoms: C_72  and  C_73
REMARK   25  A    between atoms: C_73  and  C_74
REMARK                            x       y       z     vdW  Elec       q    Type
REMARK                         _______ _______ _______ _____ _____    ______ ____
ROOT
ATOM      1  C   UNL     1      -5.526   1.331 128.546  0.00  0.00    +0.000 C 
ATOM      2  N   UNL     1      -4.867  -0.674 128.750  0.00  0.00    +0.000 N 
ATOM      3  C   UNL     1      -4.366  -2.568 129.167  0.00  0.00    +0.000 C 
ATOM      4  O   UNL     1      -4.284  -4.007 129.805  0.00  0.00    +0.000 OA
ATOM      5  C   UNL     1      -3.156  -3.158 130.029  0.00  0.00    +0.000 C 
ATOM      6  C   UNL     1      -4.690  -3.016 131.177  0.00  0.00    +0.000 C 
ATOM      7  C   UNL     1      -6.025  -4.003 130.081  0.00  0.00    +0.000 C 
ATOM      8  C   UNL     1      -7.254  -3.393 130.197  0.00  0.00    +0.000 C 
ATOM      9  C   UNL     1      -6.858  -2.106 129.703  0.00  0.00    +0.000 C 
ATOM     10  C   UNL     1      -5.988  -1.429 130.687  0.00  0.00    +0.000 C 
ATOM     11  C   UNL     1      -4.428  -1.606 130.899  0.00  0.00    +0.000 C 
ATOM     12  S   UNL     1      -4.266  -3.645 132.859  0.00  0.00    +0.000 S 
ATOM     13  S   UNL     1      -5.632  -2.703 133.944  0.00  0.00    +0.000 S 
ATOM     14  C   UNL     1      -5.218  -2.194 135.569  0.00  0.00    +0.000 C 
ATOM     15  C   UNL     1      -6.057  -1.127 136.237  0.00  0.00    +0.000 C 
ATOM     16  N   UNL     1      -5.577   0.197 135.866  0.00  0.00    +0.000 N 
ATOM     17  C   UNL     1      -5.546   0.728 134.659  0.00  0.00    +0.000 C 
ATOM     18  O   UNL     1      -4.915   1.764 134.508  0.00  0.00    +0.000 OA
ATOM     19  C   UNL     1      -6.200   0.085 133.531  0.00  0.00    +0.000 C 
ATOM     20  N   UNL     1      -7.370   0.834 133.084  0.00  0.00    +0.000 N 
ATOM     21  C   UNL     1      -7.370   2.186 132.706  0.00  0.00    +0.000 C 
ATOM     22  O   UNL     1      -8.446   2.691 132.339  0.00  0.00    +0.000 OA
ATOM     23  C   UNL     1      -5.711   2.726 132.271  0.00  0.00    +0.000 C 
ATOM     24  N   UNL     1      -4.937   2.824 131.057  0.00  0.00    +0.000 N 
ATOM     25  C   UNL     1      -5.302   3.678 130.209  0.00  0.00    +0.000 C 
ATOM     26  O   UNL     1      -4.359   3.521 129.357  0.00  0.00    +0.000 OA
ATOM     27  C   UNL     1      -7.208   3.889 130.229  0.00  0.00    +0.000 C 
ATOM     28  N   UNL     1      -6.730   4.796 129.466  0.00  0.00    +0.000 N 
ATOM     29  C   UNL     1      -6.027   3.486 128.452  0.00  0.00    +0.000 C 
ATOM     30  O   UNL     1      -5.835   4.613 127.844  0.00  0.00    +0.000 OA
ATOM     31  H   UNL     1      -4.891  -1.767 128.230  0.00  0.00    +0.000 HD
ATOM     32  H   UNL     1      -5.142   0.798 136.559  0.00  0.00    +0.000 HD
ATOM     33  H   UNL     1      -8.206   0.272 132.835  0.00  0.00    +0.000 HD
ATOM     34  H   UNL     1      -4.309   2.191 130.449  0.00  0.00    +0.000 HD
ATOM     35  H   UNL     1      -6.836   5.604 130.234  0.00  0.00    +0.000 HD
ENDROOT
BRANCH  15  36
ATOM     36  C   UNL     1      -5.947  -1.338 137.768  0.00  0.00    +0.000 C 
ATOM     37  O   UNL     1      -4.829  -1.245 138.278  0.00  0.00    +0.000 OA
ATOM     38  N   UNL     1      -7.140  -1.488 138.494  0.00  0.00    +0.000 N 
ATOM     39  C   UNL     1      -8.263  -2.382 138.226  0.00  0.00    +0.000 C 
ATOM     40  C   UNL     1      -9.428  -1.648 138.827  0.00  0.00    +0.000 C 
ATOM     41  C   UNL     1      -8.847  -1.178 140.149  0.00  0.00    +0.000 C 
ATOM     42  C   UNL     1      -7.351  -0.926 139.867  0.00  0.00    +0.000 C 
BRANCH  42  43
ATOM     43  C   UNL     1      -6.588  -1.702 140.926  0.00  0.00    +0.000 C 
ATOM     44  O   UNL     1      -6.639  -1.261 142.076  0.00  0.00    +0.000 OA
ATOM     45  N   UNL     1      -5.804  -2.794 140.566  0.00  0.00    +0.000 N 
ATOM     46  H   UNL     1      -5.616  -3.043 139.592  0.00  0.00    +0.000 HD
BRANCH  45  47
ATOM     47  C   UNL     1      -5.158  -3.684 141.587  0.00  0.00    +0.000 C 
BRANCH  47  48
ATOM     48  C   UNL     1      -3.648  -3.460 141.651  0.00  0.00    +0.000 C 
ATOM     49  O   UNL     1      -3.093  -3.871 142.663  0.00  0.00    +0.000 OA
ATOM     50  N   UNL     1      -2.989  -2.746 140.669  0.00  0.00    +0.000 N 
ATOM     51  H   UNL     1      -3.518  -2.252 139.979  0.00  0.00    +0.000 HD
BRANCH  50  52
ATOM     52  C   UNL     1      -1.513  -2.595 140.630  0.00  0.00    +0.000 C 
BRANCH  52  53
ATOM     53  C   UNL     1      -1.052  -1.264 139.956  0.00  0.00    +0.000 C 
ATOM     54  N   UNL     1      -1.998  -0.522 139.283  0.00  0.00    +0.000 N 
ATOM     55  O   UNL     1       0.116  -0.880 139.995  0.00  0.00    +0.000 OA
ATOM     56  H   UNL     1      -2.972  -0.746 139.194  0.00  0.00    +0.000 HD
ATOM     57  H   UNL     1      -1.728   0.343 138.825  0.00  0.00    +0.000 HD
ENDBRANCH  52  53
BRANCH  52  58
ATOM     58  C   UNL     1      -0.863  -3.774 139.861  0.00  0.00    +0.000 C 
BRANCH  58  59
ATOM     59  C   UNL     1      -0.970  -3.675 138.357  0.00  0.00    +0.000 A 
ATOM     60  C   UNL     1      -2.156  -3.939 137.647  0.00  0.00    +0.000 A 
ATOM     61  C   UNL     1      -2.095  -4.232 136.266  0.00  0.00    +0.000 A 
ATOM     62  C   UNL     1      -0.922  -4.032 135.555  0.00  0.00    +0.000 A 
ATOM     63  C   UNL     1       0.240  -3.738 136.252  0.00  0.00    +0.000 A 
ATOM     64  C   UNL     1       0.221  -3.571 137.638  0.00  0.00    +0.000 A 
BRANCH  62  65
ATOM     65  O   UNL     1      -0.873  -4.079 134.192  0.00  0.00    +0.000 OA
ATOM     66  H   UNL     1      -1.657  -3.681 133.778  0.00  0.00    +0.000 HD
ENDBRANCH  62  65
ENDBRANCH  58  59
ENDBRANCH  52  58
ENDBRANCH  50  52
ENDBRANCH  47  48
BRANCH  47  67
ATOM     67  C   UNL     1      -5.302  -5.145 141.196  0.00  0.00    +0.000 C 
BRANCH  67  68
ATOM     68  C   UNL     1      -6.546  -5.370 140.384  0.00  0.00    +0.000 C 
BRANCH  68  69
ATOM     69  C   UNL     1      -6.301  -5.936 139.033  0.00  0.00    +0.000 C 
BRANCH  69  70
ATOM     70  N   UNL     1      -5.632  -4.949 138.209  0.00  0.00    +0.000 NA
ATOM     71  H   UNL     1      -4.621  -5.028 138.302  0.00  0.00    +0.000 HD
ATOM     72  H   UNL     1      -5.918  -4.021 138.492  0.00  0.00    +0.000 HD
ENDBRANCH  69  70
ENDBRANCH  68  69
ENDBRANCH  67  68
ENDBRANCH  47  67
ENDBRANCH  45  47
ENDBRANCH  42  43
ENDBRANCH  15  36
BRANCH   5  73
ATOM     73  N   UNL     1      -2.922  -3.938 128.574  0.00  0.00    +0.000 NA
ATOM     74  H   UNL     1      -3.446  -3.239 127.906  0.00  0.00    +0.000 HD
ATOM     75  H   UNL     1      -3.544  -4.702 128.512  0.00  0.00    +0.000 HD
ENDBRANCH   5  73
BRANCH  23  76
ATOM     76  C   UNL     1      -5.630   4.018 132.860  0.00  0.00    +0.000 C 
ATOM     77  C   UNL     1      -4.177   4.270 133.094  0.00  0.00    +0.000 C 
BRANCH  76  78
ATOM     78  O   UNL     1      -6.436   3.933 133.988  0.00  0.00    +0.000 OA
ATOM     79  H   UNL     1      -5.841   4.212 134.726  0.00  0.00    +0.000 HD
ENDBRANCH  76  78
ENDBRANCH  23  76
BRANCH   1  80
ATOM     80  C   UNL     1      -6.802   2.501 127.810  0.00  0.00    +0.000 C 
BRANCH  80  84
ATOM     81  C   UNL     1      -8.036   0.825 124.731  0.00  0.00    +0.000 A 
ATOM     82  C   UNL     1      -8.605   0.897 125.975  0.00  0.00    +0.000 A 
ATOM     83  C   UNL     1      -8.285   1.940 126.699  0.00  0.00    +0.000 A 
ATOM     84  C   UNL     1      -7.080   2.459 126.416  0.00  0.00    +0.000 A 
ATOM     85  C   UNL     1      -6.305   2.403 125.279  0.00  0.00    +0.000 A 
ATOM     86  C   UNL     1      -6.886   1.558 124.383  0.00  0.00    +0.000 A 
BRANCH  81  88
ATOM     87  C   UNL     1      -9.790   0.904 123.216  0.00  0.00    +0.000 C 
ATOM     88  O   UNL     1      -8.789   0.135 123.844  0.00  0.00    +0.000 OA
ENDBRANCH  81  88
ENDBRANCH  80  84
ENDBRANCH   1  80
BRANCH  19  89
ATOM     89  C   UNL     1      -4.894  -0.169 132.681  0.00  0.00    +0.000 C 
BRANCH  89  90
ATOM     90  C   UNL     1      -3.514  -0.100 133.290  0.00  0.00    +0.000 C 
ATOM     91  N   UNL     1      -3.011   0.870 132.608  0.00  0.00    +0.000 N 
ATOM     92  O   UNL     1      -2.677  -0.668 133.961  0.00  0.00    +0.000 OA
ATOM     93  H   UNL     1      -3.615   1.238 131.924  0.00  0.00    +0.000 HD
ATOM     94  H   UNL     1      -2.213   1.315 132.972  0.00  0.00    +0.000 HD
ENDBRANCH  89  90
ENDBRANCH  19  89
BRANCH  27  95
ATOM     95  C   UNL     1      -8.664   3.628 129.504  0.00  0.00    +0.000 C 
BRANCH  95  96
ATOM     96  C   UNL     1      -9.487   4.822 129.779  0.00  0.00    +0.000 A 
ATOM     97  C   UNL     1     -10.516   4.694 130.581  0.00  0.00    +0.000 A 
ATOM     98  C   UNL     1     -11.291   5.677 131.015  0.00  0.00    +0.000 A 
ATOM     99  C   UNL     1     -11.125   6.918 130.668  0.00  0.00    +0.000 A 
ATOM    100  C   UNL     1     -10.418   6.997 129.553  0.00  0.00    +0.000 A 
ATOM    101  C   UNL     1      -9.550   5.991 129.169  0.00  0.00    +0.000 A 
ENDBRANCH  95  96
ENDBRANCH  27  95
TORSDOF 23
ENDMDL
MODEL 9
REMARK VINA RESULT:      -8.2      2.998      6.446
REMARK  Name = CHEMBL3416758
REMARK  25 active torsions:
REMARK  status: ('A' for Active; 'I' for Inactive)
REMARK    1  A    between atoms: C_1  and  O_2
REMARK    2  A    between atoms: O_2  and  C_3
REMARK    3  A    between atoms: C_6  and  C_7
REMARK    4  A    between atoms: C_7  and  C_8
REMARK    5  A    between atoms: C_12  and  N_13
REMARK    6  A    between atoms: C_23  and  C_24
REMARK    7  A    between atoms: C_30  and  C_31
REMARK    8  A    between atoms: N_33  and  C_34
REMARK    9  A    between atoms: C_34  and  C_35
REMARK   10  A    between atoms: C_34  and  C_39
REMARK   11  A    between atoms: C_35  and  C_36
REMARK   12  A    between atoms: C_36  and  C_37
REMARK   13  A    between atoms: C_37  and  N_38
REMARK   14  A    between atoms: N_41  and  C_42
REMARK   15  A    between atoms: C_42  and  C_43
REMARK   16  A    between atoms: C_42  and  C_51
REMARK   17  A    between atoms: C_43  and  C_44
REMARK   18  A    between atoms: C_47  and  O_48
REMARK   19  A    between atoms: C_57  and  C_58
REMARK   20  A    between atoms: C_58  and  C_59
REMARK   21  A    between atoms: C_65  and  C_66
REMARK   22  A    between atoms: C_66  and  C_67
REMARK   23  A    between atoms: C_66  and  O_68
REMARK   24  A    between atoms: C_72  and  C_73
REMARK   25  A    between atoms: C_73  and  C_74
REMARK                            x       y       z     vdW  Elec       q    Type
REMARK                         _______ _______ _______ _____ _____    ______ ____
ROOT
ATOM      1  C   UNL     1      -4.819  -0.144 129.332  0.00  0.00    +0.000 C 
ATOM      2  N   UNL     1      -4.036  -0.831 131.179  0.00  0.00    +0.000 N 
ATOM      3  C   UNL     1      -3.429  -1.291 133.032  0.00  0.00    +0.000 C 
ATOM      4  O   UNL     1      -3.281  -1.378 134.599  0.00  0.00    +0.000 OA
ATOM      5  C   UNL     1      -2.226  -0.705 133.907  0.00  0.00    +0.000 C 
ATOM      6  C   UNL     1      -3.822   0.261 134.368  0.00  0.00    +0.000 C 
ATOM      7  C   UNL     1      -5.030  -1.264 134.788  0.00  0.00    +0.000 C 
ATOM      8  C   UNL     1      -6.302  -0.974 134.346  0.00  0.00    +0.000 C 
ATOM      9  C   UNL     1      -5.970  -0.793 132.963  0.00  0.00    +0.000 C 
ATOM     10  C   UNL     1      -5.198   0.455 132.783  0.00  0.00    +0.000 C 
ATOM     11  C   UNL     1      -3.643   0.679 132.980  0.00  0.00    +0.000 C 
ATOM     12  S   UNL     1      -3.440   1.495 135.686  0.00  0.00    +0.000 S 
ATOM     13  S   UNL     1      -4.920   2.784 135.402  0.00  0.00    +0.000 S 
ATOM     14  C   UNL     1      -4.623   4.488 135.685  0.00  0.00    +0.000 C 
ATOM     15  C   UNL     1      -5.566   5.504 135.078  0.00  0.00    +0.000 C 
ATOM     16  N   UNL     1      -5.159   5.818 133.715  0.00  0.00    +0.000 N 
ATOM     17  C   UNL     1      -5.103   4.994 132.687  0.00  0.00    +0.000 C 
ATOM     18  O   UNL     1      -4.538   5.382 131.675  0.00  0.00    +0.000 OA
ATOM     19  C   UNL     1      -5.655   3.651 132.761  0.00  0.00    +0.000 C 
ATOM     20  N   UNL     1      -6.850   3.508 131.935  0.00  0.00    +0.000 N 
ATOM     21  C   UNL     1      -6.923   3.793 130.562  0.00  0.00    +0.000 C 
ATOM     22  O   UNL     1      -8.011   3.617 129.986  0.00  0.00    +0.000 OA
ATOM     23  C   UNL     1      -5.285   3.780 129.821  0.00  0.00    +0.000 C 
ATOM     24  N   UNL     1      -4.460   2.808 129.144  0.00  0.00    +0.000 N 
ATOM     25  C   UNL     1      -4.839   2.421 128.010  0.00  0.00    +0.000 C 
ATOM     26  O   UNL     1      -3.846   1.665 127.722  0.00  0.00    +0.000 OA
ATOM     27  C   UNL     1      -6.754   2.390 127.904  0.00  0.00    +0.000 C 
ATOM     28  N   UNL     1      -6.301   2.166 126.731  0.00  0.00    +0.000 N 
ATOM     29  C   UNL     1      -5.460   0.721 127.397  0.00  0.00    +0.000 C 
ATOM     30  O   UNL     1      -5.315   0.712 126.110  0.00  0.00    +0.000 OA
ATOM     31  H   UNL     1      -3.960  -1.794 131.909  0.00  0.00    +0.000 HD
ATOM     32  H   UNL     1      -4.801   6.740 133.486  0.00  0.00    +0.000 HD
ATOM     33  H   UNL     1      -7.632   2.968 132.349  0.00  0.00    +0.000 HD
ATOM     34  H   UNL     1      -3.760   2.027 129.402  0.00  0.00    +0.000 HD
ATOM     35  H   UNL     1      -6.500   3.207 126.371  0.00  0.00    +0.000 HD
ENDROOT
BRANCH  15  36
ATOM     36  C   UNL     1      -5.518   6.772 135.967  0.00  0.00    +0.000 C 
ATOM     37  O   UNL     1      -4.621   7.588 135.750  0.00  0.00    +0.000 OA
ATOM     38  N   UNL     1      -6.574   6.977 136.870  0.00  0.00    +0.000 N 
ATOM     39  C   UNL     1      -7.134   6.043 137.844  0.00  0.00    +0.000 C 
ATOM     40  C   UNL     1      -8.557   6.507 137.974  0.00  0.00    +0.000 C 
ATOM     41  C   UNL     1      -8.384   8.013 138.054  0.00  0.00    +0.000 C 
ATOM     42  C   UNL     1      -7.148   8.325 137.183  0.00  0.00    +0.000 C 
BRANCH  42  43
ATOM     43  C   UNL     1      -6.220   9.154 138.053  0.00  0.00    +0.000 C 
ATOM     44  O   UNL     1      -6.591   9.364 139.210  0.00  0.00    +0.000 OA
ATOM     45  N   UNL     1      -5.066   9.714 137.513  0.00  0.00    +0.000 N 
ATOM     46  H   UNL     1      -4.859   9.693 136.512  0.00  0.00    +0.000 HD
BRANCH  45  47
ATOM     47  C   UNL     1      -4.042  10.407 138.363  0.00  0.00    +0.000 C 
BRANCH  47  48
ATOM     48  C   UNL     1      -2.859  10.895 137.527  0.00  0.00    +0.000 C 
ATOM     49  O   UNL     1      -1.896  11.307 138.162  0.00  0.00    +0.000 OA
ATOM     50  N   UNL     1      -2.933  10.956 136.149  0.00  0.00    +0.000 N 
ATOM     51  H   UNL     1      -3.812  10.811 135.695  0.00  0.00    +0.000 HD
BRANCH  50  52
ATOM     52  C   UNL     1      -1.777  11.317 135.291  0.00  0.00    +0.000 C 
BRANCH  52  53
ATOM     53  C   UNL     1      -1.295  12.787 135.503  0.00  0.00    +0.000 C 
ATOM     54  N   UNL     1       0.061  13.028 135.486  0.00  0.00    +0.000 N 
ATOM     55  O   UNL     1      -2.082  13.712 135.700  0.00  0.00    +0.000 OA
ATOM     56  H   UNL     1       0.781  12.348 135.332  0.00  0.00    +0.000 HD
ATOM     57  H   UNL     1       0.406  13.972 135.630  0.00  0.00    +0.000 HD
ENDBRANCH  52  53
BRANCH  52  58
ATOM     58  C   UNL     1      -2.131  11.137 133.792  0.00  0.00    +0.000 C 
BRANCH  58  59
ATOM     59  C   UNL     1      -1.675   9.826 133.195  0.00  0.00    +0.000 A 
ATOM     60  C   UNL     1      -2.543   8.929 132.546  0.00  0.00    +0.000 A 
ATOM     61  C   UNL     1      -2.161   7.578 132.384  0.00  0.00    +0.000 A 
ATOM     62  C   UNL     1      -0.859   7.179 132.641  0.00  0.00    +0.000 A 
ATOM     63  C   UNL     1       0.006   8.074 133.251  0.00  0.00    +0.000 A 
ATOM     64  C   UNL     1      -0.398   9.380 133.535  0.00  0.00    +0.000 A 
BRANCH  62  65
ATOM     65  O   UNL     1      -0.385   5.949 132.286  0.00  0.00    +0.000 OA
ATOM     66  H   UNL     1      -0.457   5.785 131.331  0.00  0.00    +0.000 HD
ENDBRANCH  62  65
ENDBRANCH  58  59
ENDBRANCH  52  58
ENDBRANCH  50  52
ENDBRANCH  47  48
BRANCH  47  67
ATOM     67  C   UNL     1      -3.423   9.440 139.357  0.00  0.00    +0.000 C 
BRANCH  67  68
ATOM     68  C   UNL     1      -2.917   8.204 138.668  0.00  0.00    +0.000 C 
BRANCH  68  69
ATOM     69  C   UNL     1      -3.507   6.938 139.172  0.00  0.00    +0.000 C 
BRANCH  69  70
ATOM     70  N   UNL     1      -2.761   5.812 138.646  0.00  0.00    +0.000 NA
ATOM     71  H   UNL     1      -1.780   6.055 138.527  0.00  0.00    +0.000 HD
ATOM     72  H   UNL     1      -3.145   5.540 137.750  0.00  0.00    +0.000 HD
ENDBRANCH  69  70
ENDBRANCH  68  69
ENDBRANCH  67  68
ENDBRANCH  47  67
ENDBRANCH  45  47
ENDBRANCH  42  43
ENDBRANCH  15  36
BRANCH   5  73
ATOM     73  N   UNL     1      -1.867  -2.334 133.919  0.00  0.00    +0.000 NA
ATOM     74  H   UNL     1      -1.569  -2.447 134.971  0.00  0.00    +0.000 HD
ATOM     75  H   UNL     1      -0.987  -2.474 133.494  0.00  0.00    +0.000 HD
ENDBRANCH   5  73
BRANCH  23  76
ATOM     76  C   UNL     1      -5.321   4.900 128.944  0.00  0.00    +0.000 C 
ATOM     77  C   UNL     1      -3.903   5.335 128.776  0.00  0.00    +0.000 C 
BRANCH  76  78
ATOM     78  O   UNL     1      -6.178   5.797 129.568  0.00  0.00    +0.000 OA
ATOM     79  H   UNL     1      -6.739   6.140 128.831  0.00  0.00    +0.000 HD
ENDBRANCH  76  78
ENDBRANCH  23  76
BRANCH   1  80
ATOM     80  C   UNL     1      -6.134  -0.358 128.004  0.00  0.00    +0.000 C 
BRANCH  80  84
ATOM     81  C   UNL     1      -7.993  -2.917 126.054  0.00  0.00    +0.000 A 
ATOM     82  C   UNL     1      -6.852  -2.231 125.731  0.00  0.00    +0.000 A 
ATOM     83  C   UNL     1      -6.119  -1.820 126.736  0.00  0.00    +0.000 A 
ATOM     84  C   UNL     1      -6.807  -1.603 127.868  0.00  0.00    +0.000 A 
ATOM     85  C   UNL     1      -8.008  -2.104 128.317  0.00  0.00    +0.000 A 
ATOM     86  C   UNL     1      -8.580  -2.848 127.331  0.00  0.00    +0.000 A 
BRANCH  81  88
ATOM     87  C   UNL     1      -9.095  -3.204 124.033  0.00  0.00    +0.000 C 
ATOM     88  O   UNL     1      -8.375  -3.790 125.093  0.00  0.00    +0.000 OA
ENDBRANCH  81  88
ENDBRANCH  80  84
ENDBRANCH   1  80
BRANCH  19  89
ATOM     89  C   UNL     1      -4.294   2.880 132.546  0.00  0.00    +0.000 C 
BRANCH  89  90
ATOM     90  C   UNL     1      -2.954   3.559 132.699  0.00  0.00    +0.000 C 
ATOM     91  N   UNL     1      -2.509   3.464 131.495  0.00  0.00    +0.000 N 
ATOM     92  O   UNL     1      -2.101   3.946 133.472  0.00  0.00    +0.000 OA
ATOM     93  H   UNL     1      -3.111   2.990 130.878  0.00  0.00    +0.000 HD
ATOM     94  H   UNL     1      -1.771   4.060 131.235  0.00  0.00    +0.000 HD
ENDBRANCH  89  90
ENDBRANCH  19  89
BRANCH  27  95
ATOM     95  C   UNL     1      -8.150   1.517 127.855  0.00  0.00    +0.000 C 
BRANCH  95  96
ATOM     96  C   UNL     1      -8.674   1.645 126.481  0.00  0.00    +0.000 A 
ATOM     97  C   UNL     1      -9.194   0.583 125.915  0.00  0.00    +0.000 A 
ATOM     98  C   UNL     1      -9.800   0.547 124.737  0.00  0.00    +0.000 A 
ATOM     99  C   UNL     1      -9.935   1.592 123.976  0.00  0.00    +0.000 A 
ATOM    100  C   UNL     1      -9.053   2.521 124.305  0.00  0.00    +0.000 A 
ATOM    101  C   UNL     1      -8.502   2.586 125.571  0.00  0.00    +0.000 A 
ENDBRANCH  95  96
ENDBRANCH  27  95
TORSDOF 23
ENDMDL
