MODEL 1
REMARK VINA RESULT:      -8.8      0.000      0.000
REMARK  Name = CHEMBL257916
REMARK  12 active torsions:
REMARK  status: ('A' for Active; 'I' for Inactive)
REMARK    1  A    between atoms: CD1_1  and  CG_2
REMARK    2  A    between atoms: CG_2  and  CD2_3
REMARK    3  A    between atoms: CG_2  and  CB_4
REMARK    4  A    between atoms: CB_4  and  CA_5
REMARK    5  A    between atoms: C_9  and  C_10
REMARK    6  A    between atoms: N_21  and  C_22
REMARK    7  A    between atoms: C_22  and  C_23
REMARK    8  A    between atoms: C_22  and  C_29
REMARK    9  A    between atoms: N_25  and  C_26
REMARK   10  A    between atoms: C_26  and  C_27
REMARK   11  A    between atoms: C_26  and  C_28
REMARK   12  A    between atoms: C_32  and  C_33
REMARK                            x       y       z     vdW  Elec       q    Type
REMARK                         _______ _______ _______ _____ _____    ______ ____
ROOT
ATOM      1  CA  LEU A   2      -5.068   3.140 128.302  0.00  0.00    +0.000 C 
ATOM      2  C   LEU A   2      -5.304   2.554 129.687  0.00  0.00    +0.000 C 
ATOM      3  O   LEU A   2      -4.462   2.013 130.411  0.00  0.00    +0.000 OA
ATOM      4  N   UNK A   1      -6.549   2.781 130.142  0.00  0.00    +0.000 N 
ATOM      5  C   UNK A   1      -7.513   3.579 129.400  0.00  0.00    +0.000 C 
ATOM      6  C   UNK A   1      -7.494   3.179 127.912  0.00  0.00    +0.000 C 
ATOM      7  O   UNK A   1      -8.541   3.250 127.276  0.00  0.00    +0.000 OA
ATOM      8  N   LEU A   2      -6.239   2.802 127.414  0.00  0.00    +0.000 N 
ATOM      9  H   UNK A   1      -6.703   2.474 131.094  0.00  0.00    +0.000 HD
ENDROOT
BRANCH   5  10
ATOM     10  C   UNK A   1      -8.956   3.352 129.903  0.00  0.00    +0.000 C 
ATOM     11  C   UNK A   1      -9.603   4.667 130.359  0.00  0.00    +0.000 C 
ATOM     12  C   UNK A   1      -9.221   4.688 131.809  0.00  0.00    +0.000 A 
ATOM     13  C   UNK A   1      -9.084   5.793 132.627  0.00  0.00    +0.000 A 
ATOM     14  C   UNK A   1      -8.571   5.601 133.911  0.00  0.00    +0.000 A 
ATOM     15  C   UNK A   1      -8.194   4.323 134.354  0.00  0.00    +0.000 A 
ATOM     16  C   UNK A   1      -8.321   3.212 133.519  0.00  0.00    +0.000 A 
ATOM     17  C   UNK A   1      -8.846   3.409 132.253  0.00  0.00    +0.000 A 
ATOM     18  C   UNK A   1      -8.966   2.410 131.143  0.00  0.00    +0.000 C 
ENDBRANCH   5  10
BRANCH   1  19
ATOM     19  CB  LEU A   2      -3.749   2.612 127.826  0.00  0.00    +0.000 C 
BRANCH  19  21
ATOM     20  CD1 LEU A   2      -1.736   3.030 126.465  0.00  0.00    +0.000 C 
ATOM     21  CG  LEU A   2      -2.518   3.465 127.715  0.00  0.00    +0.000 C 
ATOM     22  CD2 LEU A   2      -2.999   4.891 127.529  0.00  0.00    +0.000 C 
ENDBRANCH  19  21
ENDBRANCH   1  19
BRANCH   8  23
ATOM     23  C   UNK A   0      -6.063   2.175 126.033  0.00  0.00    +0.000 C 
BRANCH  23  24
ATOM     24  C   UNK A   0      -6.023   3.200 124.900  0.00  0.00    +0.000 A 
ATOM     25  C   UNK A   0      -5.828   4.565 124.941  0.00  0.00    +0.000 A 
ATOM     26  O   UNK A   0      -5.641   5.028 123.681  0.00  0.00    +0.000 OA
ATOM     27  C   UNK A   0      -5.785   3.915 122.891  0.00  0.00    +0.000 A 
ATOM     28  N   UNK A   0      -6.157   2.831 123.566  0.00  0.00    +0.000 NA
BRANCH  27  29
ATOM     29  C   UNK A   0      -5.549   4.123 121.433  0.00  0.00    +0.000 C 
ATOM     30  F   UNK A   0      -4.942   3.039 120.873  0.00  0.00    +0.000 F 
ATOM     31  F   UNK A   0      -6.692   4.327 120.719  0.00  0.00    +0.000 F 
ATOM     32  F   UNK A   0      -4.742   5.189 121.175  0.00  0.00    +0.000 F 
ENDBRANCH  27  29
ENDBRANCH  23  24
BRANCH  23  33
ATOM     33  C   UNK A   0      -7.177   1.056 125.711  0.00  0.00    +0.000 C 
ATOM     34  O   UNK A   0      -7.115  -0.102 126.123  0.00  0.00    +0.000 OA
ATOM     35  N   UNK A   0      -8.267   1.396 124.933  0.00  0.00    +0.000 N 
ATOM     36  H   UNK A   0      -8.648   2.319 125.007  0.00  0.00    +0.000 HD
BRANCH  35  37
ATOM     37  C   UNK A   0      -9.299   0.477 124.496  0.00  0.00    +0.000 C 
ATOM     38  C   UNK A   0     -10.472   1.348 124.099  0.00  0.00    +0.000 C 
ATOM     39  C   UNK A   0      -8.827  -0.317 123.272  0.00  0.00    +0.000 C 
ENDBRANCH  35  37
ENDBRANCH  23  33
ENDBRANCH   8  23
TORSDOF 8
ENDMDL
MODEL 2
REMARK VINA RESULT:      -8.6      3.409      5.245
REMARK  Name = CHEMBL257916
REMARK  12 active torsions:
REMARK  status: ('A' for Active; 'I' for Inactive)
REMARK    1  A    between atoms: CD1_1  and  CG_2
REMARK    2  A    between atoms: CG_2  and  CD2_3
REMARK    3  A    between atoms: CG_2  and  CB_4
REMARK    4  A    between atoms: CB_4  and  CA_5
REMARK    5  A    between atoms: C_9  and  C_10
REMARK    6  A    between atoms: N_21  and  C_22
REMARK    7  A    between atoms: C_22  and  C_23
REMARK    8  A    between atoms: C_22  and  C_29
REMARK    9  A    between atoms: N_25  and  C_26
REMARK   10  A    between atoms: C_26  and  C_27
REMARK   11  A    between atoms: C_26  and  C_28
REMARK   12  A    between atoms: C_32  and  C_33
REMARK                            x       y       z     vdW  Elec       q    Type
REMARK                         _______ _______ _______ _____ _____    ______ ____
ROOT
ATOM      1  CA  LEU A   2      -7.136   2.977 126.128  0.00  0.00    +0.000 C 
ATOM      2  C   LEU A   2      -6.519   4.155 126.870  0.00  0.00    +0.000 C 
ATOM      3  O   LEU A   2      -5.644   4.917 126.445  0.00  0.00    +0.000 OA
ATOM      4  N   UNK A   1      -7.110   4.390 128.055  0.00  0.00    +0.000 N 
ATOM      5  C   UNK A   1      -8.268   3.635 128.508  0.00  0.00    +0.000 C 
ATOM      6  C   UNK A   1      -8.052   2.132 128.246  0.00  0.00    +0.000 C 
ATOM      7  O   UNK A   1      -8.550   1.328 129.027  0.00  0.00    +0.000 OA
ATOM      8  N   LEU A   2      -7.323   1.830 127.088  0.00  0.00    +0.000 N 
ATOM      9  H   UNK A   1      -6.772   5.219 128.527  0.00  0.00    +0.000 HD
ENDROOT
BRANCH   5  10
ATOM     10  C   UNK A   1      -8.500   3.793 130.027  0.00  0.00    +0.000 C 
ATOM     11  C   UNK A   1      -9.980   3.607 130.390  0.00  0.00    +0.000 C 
ATOM     12  C   UNK A   1     -10.482   5.015 130.281  0.00  0.00    +0.000 A 
ATOM     13  C   UNK A   1     -11.773   5.429 130.017  0.00  0.00    +0.000 A 
ATOM     14  C   UNK A   1     -11.997   6.791 129.807  0.00  0.00    +0.000 A 
ATOM     15  C   UNK A   1     -10.938   7.713 129.852  0.00  0.00    +0.000 A 
ATOM     16  C   UNK A   1      -9.633   7.287 130.105  0.00  0.00    +0.000 A 
ATOM     17  C   UNK A   1      -9.422   5.937 130.328  0.00  0.00    +0.000 A 
ATOM     18  C   UNK A   1      -8.114   5.227 130.497  0.00  0.00    +0.000 C 
ENDBRANCH   5  10
BRANCH   1  19
ATOM     19  CB  LEU A   2      -6.241   2.679 124.964  0.00  0.00    +0.000 C 
BRANCH  19  21
ATOM     20  CD1 LEU A   2      -8.249   2.878 123.548  0.00  0.00    +0.000 C 
ATOM     21  CG  LEU A   2      -6.733   2.625 123.546  0.00  0.00    +0.000 C 
ATOM     22  CD2 LEU A   2      -6.042   3.756 122.809  0.00  0.00    +0.000 C 
ENDBRANCH  19  21
ENDBRANCH   1  19
BRANCH   8  23
ATOM     23  C   UNK A   0      -6.830   0.418 126.780  0.00  0.00    +0.000 C 
BRANCH  23  24
ATOM     24  C   UNK A   0      -7.846  -0.429 126.016  0.00  0.00    +0.000 A 
ATOM     25  C   UNK A   0      -9.142  -0.141 125.639  0.00  0.00    +0.000 A 
ATOM     26  O   UNK A   0      -9.582  -1.093 124.782  0.00  0.00    +0.000 OA
ATOM     27  C   UNK A   0      -8.538  -1.980 124.704  0.00  0.00    +0.000 A 
ATOM     28  N   UNK A   0      -7.540  -1.697 125.536  0.00  0.00    +0.000 NA
BRANCH  27  29
ATOM     29  C   UNK A   0      -8.721  -3.112 123.749  0.00  0.00    +0.000 C 
ATOM     30  F   UNK A   0      -7.931  -4.170 124.081  0.00  0.00    +0.000 F 
ATOM     31  F   UNK A   0      -9.998  -3.591 123.711  0.00  0.00    +0.000 F 
ATOM     32  F   UNK A   0      -8.399  -2.780 122.469  0.00  0.00    +0.000 F 
ENDBRANCH  27  29
ENDBRANCH  23  24
BRANCH  23  33
ATOM     33  C   UNK A   0      -6.347  -0.375 128.096  0.00  0.00    +0.000 C 
ATOM     34  O   UNK A   0      -5.267  -0.175 128.652  0.00  0.00    +0.000 OA
ATOM     35  N   UNK A   0      -7.175  -1.334 128.647  0.00  0.00    +0.000 N 
ATOM     36  H   UNK A   0      -8.167  -1.196 128.613  0.00  0.00    +0.000 HD
BRANCH  35  37
ATOM     37  C   UNK A   0      -6.840  -2.179 129.775  0.00  0.00    +0.000 C 
ATOM     38  C   UNK A   0      -7.634  -1.628 130.941  0.00  0.00    +0.000 C 
ATOM     39  C   UNK A   0      -7.274  -3.625 129.511  0.00  0.00    +0.000 C 
ENDBRANCH  35  37
ENDBRANCH  23  33
ENDBRANCH   8  23
TORSDOF 8
ENDMDL
MODEL 3
REMARK VINA RESULT:      -8.1      3.580      7.591
REMARK  Name = CHEMBL257916
REMARK  12 active torsions:
REMARK  status: ('A' for Active; 'I' for Inactive)
REMARK    1  A    between atoms: CD1_1  and  CG_2
REMARK    2  A    between atoms: CG_2  and  CD2_3
REMARK    3  A    between atoms: CG_2  and  CB_4
REMARK    4  A    between atoms: CB_4  and  CA_5
REMARK    5  A    between atoms: C_9  and  C_10
REMARK    6  A    between atoms: N_21  and  C_22
REMARK    7  A    between atoms: C_22  and  C_23
REMARK    8  A    between atoms: C_22  and  C_29
REMARK    9  A    between atoms: N_25  and  C_26
REMARK   10  A    between atoms: C_26  and  C_27
REMARK   11  A    between atoms: C_26  and  C_28
REMARK   12  A    between atoms: C_32  and  C_33
REMARK                            x       y       z     vdW  Elec       q    Type
REMARK                         _______ _______ _______ _____ _____    ______ ____
ROOT
ATOM      1  CA  LEU A   2      -7.778   0.822 129.561  0.00  0.00    +0.000 C 
ATOM      2  C   LEU A   2      -6.857  -0.159 128.848  0.00  0.00    +0.000 C 
ATOM      3  O   LEU A   2      -6.072  -0.952 129.379  0.00  0.00    +0.000 OA
ATOM      4  N   UNK A   1      -7.051  -0.179 127.517  0.00  0.00    +0.000 N 
ATOM      5  C   UNK A   1      -8.095   0.602 126.873  0.00  0.00    +0.000 C 
ATOM      6  C   UNK A   1      -8.116   2.031 127.449  0.00  0.00    +0.000 C 
ATOM      7  O   UNK A   1      -8.443   2.953 126.708  0.00  0.00    +0.000 OA
ATOM      8  N   LEU A   2      -7.790   2.128 128.809  0.00  0.00    +0.000 N 
ATOM      9  H   UNK A   1      -6.509  -0.883 127.032  0.00  0.00    +0.000 HD
ENDROOT
BRANCH   5  10
ATOM     10  C   UNK A   1      -7.857   0.738 125.353  0.00  0.00    +0.000 C 
ATOM     11  C   UNK A   1      -9.005   0.113 124.547  0.00  0.00    +0.000 C 
ATOM     12  C   UNK A   1      -8.510  -1.292 124.384  0.00  0.00    +0.000 A 
ATOM     13  C   UNK A   1      -9.265  -2.432 124.187  0.00  0.00    +0.000 A 
ATOM     14  C   UNK A   1      -8.612  -3.666 124.213  0.00  0.00    +0.000 A 
ATOM     15  C   UNK A   1      -7.229  -3.746 124.443  0.00  0.00    +0.000 A 
ATOM     16  C   UNK A   1      -6.473  -2.593 124.655  0.00  0.00    +0.000 A 
ATOM     17  C   UNK A   1      -7.126  -1.372 124.613  0.00  0.00    +0.000 A 
ATOM     18  C   UNK A   1      -6.565  -0.019 124.927  0.00  0.00    +0.000 C 
ENDBRANCH   5  10
BRANCH   1  19
ATOM     19  CB  LEU A   2      -7.295   0.920 130.976  0.00  0.00    +0.000 C 
BRANCH  19  21
ATOM     20  CD1 LEU A   2      -9.604   1.044 131.832  0.00  0.00    +0.000 C 
ATOM     21  CG  LEU A   2      -8.166   0.612 132.161  0.00  0.00    +0.000 C 
ATOM     22  CD2 LEU A   2      -8.128  -0.893 132.341  0.00  0.00    +0.000 C 
ENDBRANCH  19  21
ENDBRANCH   1  19
BRANCH   8  23
ATOM     23  C   UNK A   0      -7.552   3.470 129.497  0.00  0.00    +0.000 C 
BRANCH  23  24
ATOM     24  C   UNK A   0      -8.776   4.384 129.488  0.00  0.00    +0.000 A 
ATOM     25  C   UNK A   0      -9.872   4.413 130.326  0.00  0.00    +0.000 A 
ATOM     26  O   UNK A   0     -10.592   5.535 130.084  0.00  0.00    +0.000 OA
ATOM     27  C   UNK A   0      -9.928   6.140 129.047  0.00  0.00    +0.000 A 
ATOM     28  N   UNK A   0      -8.923   5.414 128.566  0.00  0.00    +0.000 NA
BRANCH  27  29
ATOM     29  C   UNK A   0     -10.469   7.463 128.618  0.00  0.00    +0.000 C 
ATOM     30  F   UNK A   0     -10.536   7.551 127.260  0.00  0.00    +0.000 F 
ATOM     31  F   UNK A   0     -11.729   7.711 129.076  0.00  0.00    +0.000 F 
ATOM     32  F   UNK A   0      -9.699   8.507 129.032  0.00  0.00    +0.000 F 
ENDBRANCH  27  29
ENDBRANCH  23  24
BRANCH  23  33
ATOM     33  C   UNK A   0      -6.283   4.261 128.898  0.00  0.00    +0.000 C 
ATOM     34  O   UNK A   0      -5.930   5.374 129.287  0.00  0.00    +0.000 OA
ATOM     35  N   UNK A   0      -5.537   3.675 127.894  0.00  0.00    +0.000 N 
ATOM     36  H   UNK A   0      -5.415   2.680 127.897  0.00  0.00    +0.000 HD
BRANCH  35  37
ATOM     37  C   UNK A   0      -4.425   4.299 127.207  0.00  0.00    +0.000 C 
ATOM     38  C   UNK A   0      -3.180   3.697 127.824  0.00  0.00    +0.000 C 
ATOM     39  C   UNK A   0      -4.458   3.960 125.712  0.00  0.00    +0.000 C 
ENDBRANCH  35  37
ENDBRANCH  23  33
ENDBRANCH   8  23
TORSDOF 8
ENDMDL
MODEL 4
REMARK VINA RESULT:      -8.1      4.528      6.738
REMARK  Name = CHEMBL257916
REMARK  12 active torsions:
REMARK  status: ('A' for Active; 'I' for Inactive)
REMARK    1  A    between atoms: CD1_1  and  CG_2
REMARK    2  A    between atoms: CG_2  and  CD2_3
REMARK    3  A    between atoms: CG_2  and  CB_4
REMARK    4  A    between atoms: CB_4  and  CA_5
REMARK    5  A    between atoms: C_9  and  C_10
REMARK    6  A    between atoms: N_21  and  C_22
REMARK    7  A    between atoms: C_22  and  C_23
REMARK    8  A    between atoms: C_22  and  C_29
REMARK    9  A    between atoms: N_25  and  C_26
REMARK   10  A    between atoms: C_26  and  C_27
REMARK   11  A    between atoms: C_26  and  C_28
REMARK   12  A    between atoms: C_32  and  C_33
REMARK                            x       y       z     vdW  Elec       q    Type
REMARK                         _______ _______ _______ _____ _____    ______ ____
ROOT
ATOM      1  CA  LEU A   2      -4.734   1.911 128.140  0.00  0.00    +0.000 C 
ATOM      2  C   LEU A   2      -5.219   0.765 127.263  0.00  0.00    +0.000 C 
ATOM      3  O   LEU A   2      -4.808   0.476 126.134  0.00  0.00    +0.000 OA
ATOM      4  N   UNK A   1      -6.108  -0.028 127.888  0.00  0.00    +0.000 N 
ATOM      5  C   UNK A   1      -6.477   0.168 129.281  0.00  0.00    +0.000 C 
ATOM      6  C   UNK A   1      -6.728   1.663 129.555  0.00  0.00    +0.000 C 
ATOM      7  O   UNK A   1      -7.571   1.968 130.393  0.00  0.00    +0.000 OA
ATOM      8  N   LEU A   2      -5.917   2.545 128.827  0.00  0.00    +0.000 N 
ATOM      9  H   UNK A   1      -6.380  -0.843 127.354  0.00  0.00    +0.000 HD
ENDROOT
BRANCH   5  10
ATOM     10  C   UNK A   1      -7.782  -0.576 129.641  0.00  0.00    +0.000 C 
ATOM     11  C   UNK A   1      -7.861  -0.873 131.145  0.00  0.00    +0.000 C 
ATOM     12  C   UNK A   1      -7.210  -2.221 131.206  0.00  0.00    +0.000 A 
ATOM     13  C   UNK A   1      -6.560  -2.793 132.283  0.00  0.00    +0.000 A 
ATOM     14  C   UNK A   1      -5.888  -4.000 132.081  0.00  0.00    +0.000 A 
ATOM     15  C   UNK A   1      -5.865  -4.610 130.816  0.00  0.00    +0.000 A 
ATOM     16  C   UNK A   1      -6.511  -4.021 129.729  0.00  0.00    +0.000 A 
ATOM     17  C   UNK A   1      -7.188  -2.832 129.941  0.00  0.00    +0.000 A 
ATOM     18  C   UNK A   1      -7.847  -1.955 128.922  0.00  0.00    +0.000 C 
ENDBRANCH   5  10
BRANCH   1  19
ATOM     19  CB  LEU A   2      -3.956   2.836 127.256  0.00  0.00    +0.000 C 
BRANCH  19  21
ATOM     20  CD1 LEU A   2      -1.650   2.906 126.385  0.00  0.00    +0.000 C 
ATOM     21  CG  LEU A   2      -2.555   3.282 127.569  0.00  0.00    +0.000 C 
ATOM     22  CD2 LEU A   2      -2.605   4.792 127.697  0.00  0.00    +0.000 C 
ENDBRANCH  19  21
ENDBRANCH   1  19
BRANCH   8  23
ATOM     23  C   UNK A   0      -6.164   4.052 128.806  0.00  0.00    +0.000 C 
BRANCH  23  24
ATOM     24  C   UNK A   0      -5.466   4.799 129.940  0.00  0.00    +0.000 A 
ATOM     25  C   UNK A   0      -5.019   4.345 131.164  0.00  0.00    +0.000 A 
ATOM     26  O   UNK A   0      -4.259   5.303 131.747  0.00  0.00    +0.000 OA
ATOM     27  C   UNK A   0      -4.313   6.354 130.867  0.00  0.00    +0.000 A 
ATOM     28  N   UNK A   0      -5.141   6.148 129.846  0.00  0.00    +0.000 NA
BRANCH  27  29
ATOM     29  C   UNK A   0      -3.485   7.542 131.226  0.00  0.00    +0.000 C 
ATOM     30  F   UNK A   0      -3.622   7.858 132.544  0.00  0.00    +0.000 F 
ATOM     31  F   UNK A   0      -2.149   7.358 131.018  0.00  0.00    +0.000 F 
ATOM     32  F   UNK A   0      -3.830   8.657 130.527  0.00  0.00    +0.000 F 
ENDBRANCH  27  29
ENDBRANCH  23  24
BRANCH  23  33
ATOM     33  C   UNK A   0      -7.731   4.426 128.795  0.00  0.00    +0.000 C 
ATOM     34  O   UNK A   0      -8.453   4.299 127.806  0.00  0.00    +0.000 OA
ATOM     35  N   UNK A   0      -8.314   4.916 129.947  0.00  0.00    +0.000 N 
ATOM     36  H   UNK A   0      -7.998   4.574 130.835  0.00  0.00    +0.000 HD
BRANCH  35  37
ATOM     37  C   UNK A   0      -9.686   5.369 130.061  0.00  0.00    +0.000 C 
ATOM     38  C   UNK A   0     -10.446   4.207 130.664  0.00  0.00    +0.000 C 
ATOM     39  C   UNK A   0      -9.777   6.573 131.006  0.00  0.00    +0.000 C 
ENDBRANCH  35  37
ENDBRANCH  23  33
ENDBRANCH   8  23
TORSDOF 8
ENDMDL
MODEL 5
REMARK VINA RESULT:      -8.0      2.807      3.610
REMARK  Name = CHEMBL257916
REMARK  12 active torsions:
REMARK  status: ('A' for Active; 'I' for Inactive)
REMARK    1  A    between atoms: CD1_1  and  CG_2
REMARK    2  A    between atoms: CG_2  and  CD2_3
REMARK    3  A    between atoms: CG_2  and  CB_4
REMARK    4  A    between atoms: CB_4  and  CA_5
REMARK    5  A    between atoms: C_9  and  C_10
REMARK    6  A    between atoms: N_21  and  C_22
REMARK    7  A    between atoms: C_22  and  C_23
REMARK    8  A    between atoms: C_22  and  C_29
REMARK    9  A    between atoms: N_25  and  C_26
REMARK   10  A    between atoms: C_26  and  C_27
REMARK   11  A    between atoms: C_26  and  C_28
REMARK   12  A    between atoms: C_32  and  C_33
REMARK                            x       y       z     vdW  Elec       q    Type
REMARK                         _______ _______ _______ _____ _____    ______ ____
ROOT
ATOM      1  CA  LEU A   2      -5.474   2.548 128.187  0.00  0.00    +0.000 C 
ATOM      2  C   LEU A   2      -5.501   2.659 129.706  0.00  0.00    +0.000 C 
ATOM      3  O   LEU A   2      -4.526   2.783 130.453  0.00  0.00    +0.000 OA
ATOM      4  N   UNK A   1      -6.751   2.730 130.198  0.00  0.00    +0.000 N 
ATOM      5  C   UNK A   1      -7.923   2.778 129.339  0.00  0.00    +0.000 C 
ATOM      6  C   UNK A   1      -7.793   1.736 128.211  0.00  0.00    +0.000 C 
ATOM      7  O   UNK A   1      -8.816   1.208 127.786  0.00  0.00    +0.000 OA
ATOM      8  N   LEU A   2      -6.488   1.523 127.747  0.00  0.00    +0.000 N 
ATOM      9  H   UNK A   1      -6.792   2.889 131.197  0.00  0.00    +0.000 HD
ENDROOT
BRANCH   5  10
ATOM     10  C   UNK A   1      -9.217   2.440 130.110  0.00  0.00    +0.000 C 
ATOM     11  C   UNK A   1     -10.085   3.689 130.325  0.00  0.00    +0.000 C 
ATOM     12  C   UNK A   1      -9.563   4.179 131.641  0.00  0.00    +0.000 A 
ATOM     13  C   UNK A   1      -9.584   5.473 132.125  0.00  0.00    +0.000 A 
ATOM     14  C   UNK A   1      -8.905   5.742 133.314  0.00  0.00    +0.000 A 
ATOM     15  C   UNK A   1      -8.210   4.728 133.995  0.00  0.00    +0.000 A 
ATOM     16  C   UNK A   1      -8.180   3.426 133.494  0.00  0.00    +0.000 A 
ATOM     17  C   UNK A   1      -8.869   3.165 132.322  0.00  0.00    +0.000 A 
ATOM     18  C   UNK A   1      -8.886   1.893 131.530  0.00  0.00    +0.000 C 
ENDBRANCH   5  10
BRANCH   1  19
ATOM     19  CB  LEU A   2      -4.061   2.236 127.800  0.00  0.00    +0.000 C 
BRANCH  19  21
ATOM     20  CD1 LEU A   2      -4.251   3.742 125.857  0.00  0.00    +0.000 C 
ATOM     21  CG  LEU A   2      -3.271   3.076 126.837  0.00  0.00    +0.000 C 
ATOM     22  CD2 LEU A   2      -2.590   4.149 127.664  0.00  0.00    +0.000 C 
ENDBRANCH  19  21
ENDBRANCH   1  19
BRANCH   8  23
ATOM     23  C   UNK A   0      -6.138   0.385 126.791  0.00  0.00    +0.000 C 
BRANCH  23  24
ATOM     24  C   UNK A   0      -7.018   0.345 125.543  0.00  0.00    +0.000 A 
ATOM     25  C   UNK A   0      -7.182   1.277 124.539  0.00  0.00    +0.000 A 
ATOM     26  O   UNK A   0      -7.883   0.720 123.522  0.00  0.00    +0.000 OA
ATOM     27  C   UNK A   0      -8.178  -0.542 123.971  0.00  0.00    +0.000 A 
ATOM     28  N   UNK A   0      -7.805  -0.757 125.229  0.00  0.00    +0.000 NA
BRANCH  27  29
ATOM     29  C   UNK A   0      -8.893  -1.423 123.001  0.00  0.00    +0.000 C 
ATOM     30  F   UNK A   0      -9.512  -2.456 123.637  0.00  0.00    +0.000 F 
ATOM     31  F   UNK A   0      -9.864  -0.778 122.293  0.00  0.00    +0.000 F 
ATOM     32  F   UNK A   0      -8.058  -1.983 122.083  0.00  0.00    +0.000 F 
ENDBRANCH  27  29
ENDBRANCH  23  24
BRANCH  23  33
ATOM     33  C   UNK A   0      -6.151  -1.057 127.508  0.00  0.00    +0.000 C 
ATOM     34  O   UNK A   0      -5.146  -1.753 127.653  0.00  0.00    +0.000 OA
ATOM     35  N   UNK A   0      -7.344  -1.556 127.995  0.00  0.00    +0.000 N 
ATOM     36  H   UNK A   0      -8.016  -0.920 128.379  0.00  0.00    +0.000 HD
BRANCH  35  37
ATOM     37  C   UNK A   0      -7.521  -2.867 128.587  0.00  0.00    +0.000 C 
ATOM     38  C   UNK A   0      -7.888  -2.610 130.033  0.00  0.00    +0.000 C 
ATOM     39  C   UNK A   0      -8.671  -3.614 127.902  0.00  0.00    +0.000 C 
ENDBRANCH  35  37
ENDBRANCH  23  33
ENDBRANCH   8  23
TORSDOF 8
ENDMDL
MODEL 6
REMARK VINA RESULT:      -8.0      4.294      8.038
REMARK  Name = CHEMBL257916
REMARK  12 active torsions:
REMARK  status: ('A' for Active; 'I' for Inactive)
REMARK    1  A    between atoms: CD1_1  and  CG_2
REMARK    2  A    between atoms: CG_2  and  CD2_3
REMARK    3  A    between atoms: CG_2  and  CB_4
REMARK    4  A    between atoms: CB_4  and  CA_5
REMARK    5  A    between atoms: C_9  and  C_10
REMARK    6  A    between atoms: N_21  and  C_22
REMARK    7  A    between atoms: C_22  and  C_23
REMARK    8  A    between atoms: C_22  and  C_29
REMARK    9  A    between atoms: N_25  and  C_26
REMARK   10  A    between atoms: C_26  and  C_27
REMARK   11  A    between atoms: C_26  and  C_28
REMARK   12  A    between atoms: C_32  and  C_33
REMARK                            x       y       z     vdW  Elec       q    Type
REMARK                         _______ _______ _______ _____ _____    ______ ____
ROOT
ATOM      1  CA  LEU A   2      -5.026   3.396 127.017  0.00  0.00    +0.000 C 
ATOM      2  C   LEU A   2      -5.410   3.233 125.553  0.00  0.00    +0.000 C 
ATOM      3  O   LEU A   2      -4.962   3.876 124.597  0.00  0.00    +0.000 OA
ATOM      4  N   UNK A   1      -6.244   2.198 125.347  0.00  0.00    +0.000 N 
ATOM      5  C   UNK A   1      -6.646   1.300 126.418  0.00  0.00    +0.000 C 
ATOM      6  C   UNK A   1      -7.014   2.111 127.675  0.00  0.00    +0.000 C 
ATOM      7  O   UNK A   1      -7.890   1.672 128.415  0.00  0.00    +0.000 OA
ATOM      8  N   LEU A   2      -6.263   3.278 127.870  0.00  0.00    +0.000 N 
ATOM      9  H   UNK A   1      -6.446   2.019 124.371  0.00  0.00    +0.000 HD
ENDROOT
BRANCH   5  10
ATOM     10  C   UNK A   1      -7.895   0.475 126.038  0.00  0.00    +0.000 C 
ATOM     11  C   UNK A   1      -7.760  -0.987 126.490  0.00  0.00    +0.000 C 
ATOM     12  C   UNK A   1      -7.124  -1.603 125.280  0.00  0.00    +0.000 A 
ATOM     13  C   UNK A   1      -6.333  -2.735 125.231  0.00  0.00    +0.000 A 
ATOM     14  C   UNK A   1      -5.714  -3.052 124.020  0.00  0.00    +0.000 A 
ATOM     15  C   UNK A   1      -5.883  -2.238 122.888  0.00  0.00    +0.000 A 
ATOM     16  C   UNK A   1      -6.672  -1.089 122.947  0.00  0.00    +0.000 A 
ATOM     17  C   UNK A   1      -7.294  -0.790 124.147  0.00  0.00    +0.000 A 
ATOM     18  C   UNK A   1      -8.082   0.436 124.493  0.00  0.00    +0.000 C 
ENDBRANCH   5  10
BRANCH   1  19
ATOM     19  CB  LEU A   2      -4.308   4.706 127.134  0.00  0.00    +0.000 C 
BRANCH  19  21
ATOM     20  CD1 LEU A   2      -2.682   5.293 128.893  0.00  0.00    +0.000 C 
ATOM     21  CG  LEU A   2      -2.841   4.810 127.442  0.00  0.00    +0.000 C 
ATOM     22  CD2 LEU A   2      -2.277   3.408 127.321  0.00  0.00    +0.000 C 
ENDBRANCH  19  21
ENDBRANCH   1  19
BRANCH   8  23
ATOM     23  C   UNK A   0      -6.624   4.312 128.934  0.00  0.00    +0.000 C 
BRANCH  23  24
ATOM     24  C   UNK A   0      -6.408   3.817 130.363  0.00  0.00    +0.000 A 
ATOM     25  C   UNK A   0      -5.325   3.969 131.204  0.00  0.00    +0.000 A 
ATOM     26  O   UNK A   0      -5.667   3.566 132.452  0.00  0.00    +0.000 OA
ATOM     27  C   UNK A   0      -6.957   3.119 132.317  0.00  0.00    +0.000 A 
ATOM     28  N   UNK A   0      -7.388   3.117 131.058  0.00  0.00    +0.000 NA
BRANCH  27  29
ATOM     29  C   UNK A   0      -7.624   2.679 133.577  0.00  0.00    +0.000 C 
ATOM     30  F   UNK A   0      -7.630   3.676 134.505  0.00  0.00    +0.000 F 
ATOM     31  F   UNK A   0      -8.927   2.315 133.405  0.00  0.00    +0.000 F 
ATOM     32  F   UNK A   0      -7.004   1.617 134.159  0.00  0.00    +0.000 F 
ENDBRANCH  27  29
ENDBRANCH  23  24
BRANCH  23  33
ATOM     33  C   UNK A   0      -8.128   4.869 128.776  0.00  0.00    +0.000 C 
ATOM     34  O   UNK A   0      -8.729   4.906 127.703  0.00  0.00    +0.000 OA
ATOM     35  N   UNK A   0      -8.794   5.335 129.893  0.00  0.00    +0.000 N 
ATOM     36  H   UNK A   0      -8.630   4.891 130.777  0.00  0.00    +0.000 HD
BRANCH  35  37
ATOM     37  C   UNK A   0     -10.111   5.937 129.889  0.00  0.00    +0.000 C 
ATOM     38  C   UNK A   0     -10.694   5.643 131.255  0.00  0.00    +0.000 C 
ATOM     39  C   UNK A   0     -10.007   7.456 129.705  0.00  0.00    +0.000 C 
ENDBRANCH  35  37
ENDBRANCH  23  33
ENDBRANCH   8  23
TORSDOF 8
ENDMDL
MODEL 7
REMARK VINA RESULT:      -8.0      4.305      8.193
REMARK  Name = CHEMBL257916
REMARK  12 active torsions:
REMARK  status: ('A' for Active; 'I' for Inactive)
REMARK    1  A    between atoms: CD1_1  and  CG_2
REMARK    2  A    between atoms: CG_2  and  CD2_3
REMARK    3  A    between atoms: CG_2  and  CB_4
REMARK    4  A    between atoms: CB_4  and  CA_5
REMARK    5  A    between atoms: C_9  and  C_10
REMARK    6  A    between atoms: N_21  and  C_22
REMARK    7  A    between atoms: C_22  and  C_23
REMARK    8  A    between atoms: C_22  and  C_29
REMARK    9  A    between atoms: N_25  and  C_26
REMARK   10  A    between atoms: C_26  and  C_27
REMARK   11  A    between atoms: C_26  and  C_28
REMARK   12  A    between atoms: C_32  and  C_33
REMARK                            x       y       z     vdW  Elec       q    Type
REMARK                         _______ _______ _______ _____ _____    ______ ____
ROOT
ATOM      1  CA  LEU A   2      -4.784   2.770 127.167  0.00  0.00    +0.000 C 
ATOM      2  C   LEU A   2      -5.457   2.603 125.812  0.00  0.00    +0.000 C 
ATOM      3  O   LEU A   2      -5.386   3.379 124.853  0.00  0.00    +0.000 OA
ATOM      4  N   UNK A   1      -6.085   1.420 125.687  0.00  0.00    +0.000 N 
ATOM      5  C   UNK A   1      -6.033   0.400 126.722  0.00  0.00    +0.000 C 
ATOM      6  C   UNK A   1      -6.256   1.041 128.105  0.00  0.00    +0.000 C 
ATOM      7  O   UNK A   1      -6.826   0.380 128.968  0.00  0.00    +0.000 OA
ATOM      8  N   LEU A   2      -5.736   2.334 128.251  0.00  0.00    +0.000 N 
ATOM      9  H   UNK A   1      -6.468   1.252 124.765  0.00  0.00    +0.000 HD
ENDROOT
BRANCH   5  10
ATOM     10  C   UNK A   1      -7.140  -0.662 126.540  0.00  0.00    +0.000 C 
ATOM     11  C   UNK A   1      -6.562  -2.084 126.572  0.00  0.00    +0.000 C 
ATOM     12  C   UNK A   1      -6.266  -2.308 125.120  0.00  0.00    +0.000 A 
ATOM     13  C   UNK A   1      -5.325  -3.161 124.575  0.00  0.00    +0.000 A 
ATOM     14  C   UNK A   1      -5.106  -3.104 123.198  0.00  0.00    +0.000 A 
ATOM     15  C   UNK A   1      -5.814  -2.198 122.390  0.00  0.00    +0.000 A 
ATOM     16  C   UNK A   1      -6.753  -1.330 122.948  0.00  0.00    +0.000 A 
ATOM     17  C   UNK A   1      -6.975  -1.403 124.313  0.00  0.00    +0.000 A 
ATOM     18  C   UNK A   1      -7.831  -0.506 125.154  0.00  0.00    +0.000 C 
ENDBRANCH   5  10
BRANCH   1  19
ATOM     19  CB  LEU A   2      -4.343   4.199 127.260  0.00  0.00    +0.000 C 
BRANCH  19  21
ATOM     20  CD1 LEU A   2      -2.656   5.028 128.855  0.00  0.00    +0.000 C 
ATOM     21  CG  LEU A   2      -2.903   4.603 127.399  0.00  0.00    +0.000 C 
ATOM     22  CD2 LEU A   2      -2.079   3.366 127.095  0.00  0.00    +0.000 C 
ENDBRANCH  19  21
ENDBRANCH   1  19
BRANCH   8  23
ATOM     23  C   UNK A   0      -6.043   3.204 129.468  0.00  0.00    +0.000 C 
BRANCH  23  24
ATOM     24  C   UNK A   0      -5.106   2.954 130.648  0.00  0.00    +0.000 A 
ATOM     25  C   UNK A   0      -4.288   1.878 130.923  0.00  0.00    +0.000 A 
ATOM     26  O   UNK A   0      -3.467   2.191 131.955  0.00  0.00    +0.000 OA
ATOM     27  C   UNK A   0      -3.857   3.455 132.320  0.00  0.00    +0.000 A 
ATOM     28  N   UNK A   0      -4.927   3.890 131.660  0.00  0.00    +0.000 NA
BRANCH  27  29
ATOM     29  C   UNK A   0      -3.054   4.091 133.405  0.00  0.00    +0.000 C 
ATOM     30  F   UNK A   0      -3.446   5.378 133.619  0.00  0.00    +0.000 F 
ATOM     31  F   UNK A   0      -3.165   3.457 134.607  0.00  0.00    +0.000 F 
ATOM     32  F   UNK A   0      -1.724   4.138 133.119  0.00  0.00    +0.000 F 
ENDBRANCH  27  29
ENDBRANCH  23  24
BRANCH  23  33
ATOM     33  C   UNK A   0      -7.573   3.075 129.956  0.00  0.00    +0.000 C 
ATOM     34  O   UNK A   0      -8.531   3.498 129.309  0.00  0.00    +0.000 OA
ATOM     35  N   UNK A   0      -7.845   2.459 131.162  0.00  0.00    +0.000 N 
ATOM     36  H   UNK A   0      -7.273   1.690 131.455  0.00  0.00    +0.000 HD
BRANCH  35  37
ATOM     37  C   UNK A   0      -9.158   2.344 131.764  0.00  0.00    +0.000 C 
ATOM     38  C   UNK A   0      -9.452   0.859 131.811  0.00  0.00    +0.000 C 
ATOM     39  C   UNK A   0      -9.144   2.898 133.194  0.00  0.00    +0.000 C 
ENDBRANCH  35  37
ENDBRANCH  23  33
ENDBRANCH   8  23
TORSDOF 8
ENDMDL
MODEL 8
REMARK VINA RESULT:      -7.9      4.578      7.323
REMARK  Name = CHEMBL257916
REMARK  12 active torsions:
REMARK  status: ('A' for Active; 'I' for Inactive)
REMARK    1  A    between atoms: CD1_1  and  CG_2
REMARK    2  A    between atoms: CG_2  and  CD2_3
REMARK    3  A    between atoms: CG_2  and  CB_4
REMARK    4  A    between atoms: CB_4  and  CA_5
REMARK    5  A    between atoms: C_9  and  C_10
REMARK    6  A    between atoms: N_21  and  C_22
REMARK    7  A    between atoms: C_22  and  C_23
REMARK    8  A    between atoms: C_22  and  C_29
REMARK    9  A    between atoms: N_25  and  C_26
REMARK   10  A    between atoms: C_26  and  C_27
REMARK   11  A    between atoms: C_26  and  C_28
REMARK   12  A    between atoms: C_32  and  C_33
REMARK                            x       y       z     vdW  Elec       q    Type
REMARK                         _______ _______ _______ _____ _____    ______ ____
ROOT
ATOM      1  CA  LEU A   2      -7.083   2.262 131.264  0.00  0.00    +0.000 C 
ATOM      2  C   LEU A   2      -5.841   1.395 131.103  0.00  0.00    +0.000 C 
ATOM      3  O   LEU A   2      -4.788   1.491 131.741  0.00  0.00    +0.000 OA
ATOM      4  N   UNK A   1      -6.025   0.382 130.237  0.00  0.00    +0.000 N 
ATOM      5  C   UNK A   1      -7.309   0.122 129.606  0.00  0.00    +0.000 C 
ATOM      6  C   UNK A   1      -7.928   1.442 129.107  0.00  0.00    +0.000 C 
ATOM      7  O   UNK A   1      -8.624   1.413 128.097  0.00  0.00    +0.000 OA
ATOM      8  N   LEU A   2      -7.658   2.564 129.903  0.00  0.00    +0.000 N 
ATOM      9  H   UNK A   1      -5.241  -0.256 130.177  0.00  0.00    +0.000 HD
ENDROOT
BRANCH   5  10
ATOM     10  C   UNK A   1      -7.170  -0.798 128.374  0.00  0.00    +0.000 C 
ATOM     11  C   UNK A   1      -7.771  -2.185 128.640  0.00  0.00    +0.000 C 
ATOM     12  C   UNK A   1      -6.579  -2.917 129.179  0.00  0.00    +0.000 A 
ATOM     13  C   UNK A   1      -6.575  -4.009 130.025  0.00  0.00    +0.000 A 
ATOM     14  C   UNK A   1      -5.349  -4.445 130.531  0.00  0.00    +0.000 A 
ATOM     15  C   UNK A   1      -4.154  -3.784 130.198  0.00  0.00    +0.000 A 
ATOM     16  C   UNK A   1      -4.166  -2.672 129.354  0.00  0.00    +0.000 A 
ATOM     17  C   UNK A   1      -5.385  -2.257 128.845  0.00  0.00    +0.000 A 
ATOM     18  C   UNK A   1      -5.670  -1.034 128.028  0.00  0.00    +0.000 C 
ENDBRANCH   5  10
BRANCH   1  19
ATOM     19  CB  LEU A   2      -6.671   3.469 132.050  0.00  0.00    +0.000 C 
BRANCH  19  21
ATOM     20  CD1 LEU A   2      -7.942   5.359 132.993  0.00  0.00    +0.000 C 
ATOM     21  CG  LEU A   2      -7.411   3.944 133.269  0.00  0.00    +0.000 C 
ATOM     22  CD2 LEU A   2      -8.584   3.000 133.452  0.00  0.00    +0.000 C 
ENDBRANCH  19  21
ENDBRANCH   1  19
BRANCH   8  23
ATOM     23  C   UNK A   0      -8.004   3.983 129.459  0.00  0.00    +0.000 C 
BRANCH  23  24
ATOM     24  C   UNK A   0      -9.454   4.372 129.739  0.00  0.00    +0.000 A 
ATOM     25  C   UNK A   0     -10.469   3.655 130.339  0.00  0.00    +0.000 A 
ATOM     26  O   UNK A   0     -11.517   4.479 130.581  0.00  0.00    +0.000 OA
ATOM     27  C   UNK A   0     -11.121   5.685 130.060  0.00  0.00    +0.000 A 
ATOM     28  N   UNK A   0      -9.957   5.628 129.419  0.00  0.00    +0.000 NA
BRANCH  27  29
ATOM     29  C   UNK A   0     -12.070   6.819 130.260  0.00  0.00    +0.000 C 
ATOM     30  F   UNK A   0     -12.568   6.827 131.528  0.00  0.00    +0.000 F 
ATOM     31  F   UNK A   0     -11.503   8.044 130.070  0.00  0.00    +0.000 F 
ATOM     32  F   UNK A   0     -13.144   6.761 129.426  0.00  0.00    +0.000 F 
ENDBRANCH  27  29
ENDBRANCH  23  24
BRANCH  23  33
ATOM     33  C   UNK A   0      -7.662   4.250 127.907  0.00  0.00    +0.000 C 
ATOM     34  O   UNK A   0      -8.415   4.848 127.139  0.00  0.00    +0.000 OA
ATOM     35  N   UNK A   0      -6.464   3.792 127.393  0.00  0.00    +0.000 N 
ATOM     36  H   UNK A   0      -5.652   3.793 127.980  0.00  0.00    +0.000 HD
BRANCH  35  37
ATOM     37  C   UNK A   0      -6.061   3.887 126.005  0.00  0.00    +0.000 C 
ATOM     38  C   UNK A   0      -4.565   4.119 126.034  0.00  0.00    +0.000 C 
ATOM     39  C   UNK A   0      -6.350   2.573 125.270  0.00  0.00    +0.000 C 
ENDBRANCH  35  37
ENDBRANCH  23  33
ENDBRANCH   8  23
TORSDOF 8
ENDMDL
MODEL 9
REMARK VINA RESULT:      -7.7      4.200      7.656
REMARK  Name = CHEMBL257916
REMARK  12 active torsions:
REMARK  status: ('A' for Active; 'I' for Inactive)
REMARK    1  A    between atoms: CD1_1  and  CG_2
REMARK    2  A    between atoms: CG_2  and  CD2_3
REMARK    3  A    between atoms: CG_2  and  CB_4
REMARK    4  A    between atoms: CB_4  and  CA_5
REMARK    5  A    between atoms: C_9  and  C_10
REMARK    6  A    between atoms: N_21  and  C_22
REMARK    7  A    between atoms: C_22  and  C_23
REMARK    8  A    between atoms: C_22  and  C_29
REMARK    9  A    between atoms: N_25  and  C_26
REMARK   10  A    between atoms: C_26  and  C_27
REMARK   11  A    between atoms: C_26  and  C_28
REMARK   12  A    between atoms: C_32  and  C_33
REMARK                            x       y       z     vdW  Elec       q    Type
REMARK                         _______ _______ _______ _____ _____    ______ ____
ROOT
ATOM      1  CA  LEU A   2      -8.700   2.525 130.563  0.00  0.00    +0.000 C 
ATOM      2  C   LEU A   2      -9.131   1.238 131.252  0.00  0.00    +0.000 C 
ATOM      3  O   LEU A   2     -10.096   1.096 132.010  0.00  0.00    +0.000 OA
ATOM      4  N   UNK A   1      -8.403   0.174 130.867  0.00  0.00    +0.000 N 
ATOM      5  C   UNK A   1      -7.381   0.265 129.836  0.00  0.00    +0.000 C 
ATOM      6  C   UNK A   1      -6.515   1.519 130.062  0.00  0.00    +0.000 C 
ATOM      7  O   UNK A   1      -5.332   1.475 129.739  0.00  0.00    +0.000 OA
ATOM      8  N   LEU A   2      -7.196   2.624 130.591  0.00  0.00    +0.000 N 
ATOM      9  H   UNK A   1      -8.726  -0.706 131.249  0.00  0.00    +0.000 HD
ENDROOT
BRANCH   5  10
ATOM     10  C   UNK A   1      -6.425  -0.948 129.866  0.00  0.00    +0.000 C 
ATOM     11  C   UNK A   1      -5.894  -1.277 128.464  0.00  0.00    +0.000 C 
ATOM     12  C   UNK A   1      -6.930  -2.249 127.984  0.00  0.00    +0.000 A 
ATOM     13  C   UNK A   1      -7.281  -2.527 126.677  0.00  0.00    +0.000 A 
ATOM     14  C   UNK A   1      -8.381  -3.357 126.454  0.00  0.00    +0.000 A 
ATOM     15  C   UNK A   1      -9.117  -3.885 127.529  0.00  0.00    +0.000 A 
ATOM     16  C   UNK A   1      -8.766  -3.589 128.846  0.00  0.00    +0.000 A 
ATOM     17  C   UNK A   1      -7.665  -2.778 129.059  0.00  0.00    +0.000 A 
ATOM     18  C   UNK A   1      -7.168  -2.224 130.359  0.00  0.00    +0.000 C 
ENDBRANCH   5  10
BRANCH   1  19
ATOM     19  CB  LEU A   2      -9.413   3.648 131.253  0.00  0.00    +0.000 C 
BRANCH  19  21
ATOM     20  CD1 LEU A   2     -11.351   4.864 130.335  0.00  0.00    +0.000 C 
ATOM     21  CG  LEU A   2      -9.830   4.908 130.549  0.00  0.00    +0.000 C 
ATOM     22  CD2 LEU A   2      -9.493   6.053 131.485  0.00  0.00    +0.000 C 
ENDBRANCH  19  21
ENDBRANCH   1  19
BRANCH   8  23
ATOM     23  C   UNK A   0      -6.467   3.874 131.078  0.00  0.00    +0.000 C 
BRANCH  23  24
ATOM     24  C   UNK A   0      -5.631   4.553 129.994  0.00  0.00    +0.000 A 
ATOM     25  C   UNK A   0      -5.873   4.698 128.643  0.00  0.00    +0.000 A 
ATOM     26  O   UNK A   0      -4.975   5.566 128.119  0.00  0.00    +0.000 OA
ATOM     27  C   UNK A   0      -4.163   5.888 129.177  0.00  0.00    +0.000 A 
ATOM     28  N   UNK A   0      -4.431   5.194 130.280  0.00  0.00    +0.000 NA
BRANCH  27  29
ATOM     29  C   UNK A   0      -3.111   6.908 128.898  0.00  0.00    +0.000 C 
ATOM     30  F   UNK A   0      -2.388   6.581 127.791  0.00  0.00    +0.000 F 
ATOM     31  F   UNK A   0      -3.609   8.157 128.670  0.00  0.00    +0.000 F 
ATOM     32  F   UNK A   0      -2.215   7.034 129.916  0.00  0.00    +0.000 F 
ENDBRANCH  27  29
ENDBRANCH  23  24
BRANCH  23  33
ATOM     33  C   UNK A   0      -5.551   3.597 132.373  0.00  0.00    +0.000 C 
ATOM     34  O   UNK A   0      -5.902   3.861 133.523  0.00  0.00    +0.000 OA
ATOM     35  N   UNK A   0      -4.301   3.033 132.205  0.00  0.00    +0.000 N 
ATOM     36  H   UNK A   0      -4.167   2.358 131.477  0.00  0.00    +0.000 HD
BRANCH  35  37
ATOM     37  C   UNK A   0      -3.340   2.803 133.265  0.00  0.00    +0.000 C 
ATOM     38  C   UNK A   0      -3.028   1.322 133.212  0.00  0.00    +0.000 C 
ATOM     39  C   UNK A   0      -2.054   3.596 133.004  0.00  0.00    +0.000 C 
ENDBRANCH  35  37
ENDBRANCH  23  33
ENDBRANCH   8  23
TORSDOF 8
ENDMDL
