MODEL 1
REMARK VINA RESULT:      -8.1      0.000      0.000
REMARK  Name = CHEMBL271266
REMARK  11 active torsions:
REMARK  status: ('A' for Active; 'I' for Inactive)
REMARK    1  A    between atoms: CD1_1  and  CG_2
REMARK    2  A    between atoms: CG_2  and  CD2_3
REMARK    3  A    between atoms: CG_2  and  CB_4
REMARK    4  A    between atoms: CB_4  and  CA_5
REMARK    5  A    between atoms: C_9  and  C_10
REMARK    6  A    between atoms: N_21  and  C_22
REMARK    7  A    between atoms: C_22  and  C_23
REMARK    8  A    between atoms: C_22  and  C_29
REMARK    9  A    between atoms: N_25  and  C_26
REMARK   10  A    between atoms: C_26  and  C_27
REMARK   11  A    between atoms: C_26  and  C_28
REMARK                            x       y       z     vdW  Elec       q    Type
REMARK                         _______ _______ _______ _____ _____    ______ ____
ROOT
ATOM      1  CA  LEU A   2      -6.727   4.406 132.389  0.00  0.00    +0.000 C 
ATOM      2  C   LEU A   2      -6.109   5.584 133.197  0.00  0.00    +0.000 C 
ATOM      3  O   LEU A   2      -6.353   5.878 134.352  0.00  0.00    +0.000 OA
ATOM      4  N   UNK A   1      -5.154   6.262 132.507  0.00  0.00    +0.000 N 
ATOM      5  C   UNK A   1      -4.653   5.749 131.257  0.00  0.00    +0.000 C 
ATOM      6  C   UNK A   1      -5.815   5.470 130.327  0.00  0.00    +0.000 C 
ATOM      7  O   UNK A   1      -5.640   5.656 129.147  0.00  0.00    +0.000 OA
ATOM      8  N   LEU A   2      -6.949   4.911 130.957  0.00  0.00    +0.000 N 
ATOM      9  H   UNK A   1      -4.670   6.973 133.044  0.00  0.00    +0.000 HD
ENDROOT
BRANCH   5  10
ATOM     10  C   UNK A   1      -3.671   6.685 130.534  0.00  0.00    +0.000 C 
ATOM     11  C   UNK A   1      -2.293   6.027 130.590  0.00  0.00    +0.000 C 
ATOM     12  C   UNK A   1      -1.681   6.739 131.756  0.00  0.00    +0.000 A 
ATOM     13  C   UNK A   1      -0.631   6.308 132.542  0.00  0.00    +0.000 A 
ATOM     14  C   UNK A   1      -0.219   7.122 133.599  0.00  0.00    +0.000 A 
ATOM     15  C   UNK A   1      -0.854   8.349 133.851  0.00  0.00    +0.000 A 
ATOM     16  C   UNK A   1      -1.937   8.761 133.074  0.00  0.00    +0.000 A 
ATOM     17  C   UNK A   1      -2.354   7.932 132.047  0.00  0.00    +0.000 A 
ATOM     18  C   UNK A   1      -3.509   8.119 131.119  0.00  0.00    +0.000 C 
ENDBRANCH   5  10
BRANCH   1  19
ATOM     19  CB  LEU A   2      -7.961   4.037 133.169  0.00  0.00    +0.000 C 
BRANCH  19  21
ATOM     20  CD1 LEU A   2      -9.625   2.227 132.388  0.00  0.00    +0.000 C 
ATOM     21  CG  LEU A   2      -8.392   2.562 133.243  0.00  0.00    +0.000 C 
ATOM     22  CD2 LEU A   2      -7.340   1.519 132.910  0.00  0.00    +0.000 C 
ENDBRANCH  19  21
ENDBRANCH   1  19
BRANCH   8  23
ATOM     23  C   UNK A   0      -8.290   4.928 130.212  0.00  0.00    +0.000 C 
BRANCH  23  24
ATOM     24  C   UNK A   0      -8.286   4.022 128.993  0.00  0.00    +0.000 A 
ATOM     25  C   UNK A   0      -8.172   2.642 128.880  0.00  0.00    +0.000 A 
ATOM     26  C   UNK A   0      -7.852   2.385 127.526  0.00  0.00    +0.000 A 
ATOM     27  C   UNK A   0      -7.977   3.587 126.872  0.00  0.00    +0.000 A 
ATOM     28  O   UNK A   0      -8.245   4.580 127.752  0.00  0.00    +0.000 OA
ENDBRANCH  23  24
BRANCH  23  29
ATOM     29  C   UNK A   0      -9.033   6.327 129.922  0.00  0.00    +0.000 C 
ATOM     30  O   UNK A   0      -8.662   7.417 130.352  0.00  0.00    +0.000 OA
ATOM     31  N   UNK A   0     -10.163   6.305 129.115  0.00  0.00    +0.000 N 
ATOM     32  H   UNK A   0     -10.275   5.577 128.442  0.00  0.00    +0.000 HD
BRANCH  31  33
ATOM     33  C   UNK A   0     -11.140   7.367 128.954  0.00  0.00    +0.000 C 
ATOM     34  C   UNK A   0     -10.752   8.036 127.659  0.00  0.00    +0.000 C 
ATOM     35  C   UNK A   0     -12.594   6.846 128.872  0.00  0.00    +0.000 C 
ENDBRANCH  31  33
ENDBRANCH  23  29
ENDBRANCH   8  23
TORSDOF 7
ENDMDL
MODEL 2
REMARK VINA RESULT:      -8.0      1.827      7.320
REMARK  Name = CHEMBL271266
REMARK  11 active torsions:
REMARK  status: ('A' for Active; 'I' for Inactive)
REMARK    1  A    between atoms: CD1_1  and  CG_2
REMARK    2  A    between atoms: CG_2  and  CD2_3
REMARK    3  A    between atoms: CG_2  and  CB_4
REMARK    4  A    between atoms: CB_4  and  CA_5
REMARK    5  A    between atoms: C_9  and  C_10
REMARK    6  A    between atoms: N_21  and  C_22
REMARK    7  A    between atoms: C_22  and  C_23
REMARK    8  A    between atoms: C_22  and  C_29
REMARK    9  A    between atoms: N_25  and  C_26
REMARK   10  A    between atoms: C_26  and  C_27
REMARK   11  A    between atoms: C_26  and  C_28
REMARK                            x       y       z     vdW  Elec       q    Type
REMARK                         _______ _______ _______ _____ _____    ______ ____
ROOT
ATOM      1  CA  LEU A   2      -8.230   2.903 130.818  0.00  0.00    +0.000 C 
ATOM      2  C   LEU A   2      -8.783   3.494 129.488  0.00  0.00    +0.000 C 
ATOM      3  O   LEU A   2      -8.877   2.916 128.421  0.00  0.00    +0.000 OA
ATOM      4  N   UNK A   1      -9.262   4.759 129.623  0.00  0.00    +0.000 N 
ATOM      5  C   UNK A   1      -9.423   5.343 130.930  0.00  0.00    +0.000 C 
ATOM      6  C   UNK A   1      -8.119   5.235 131.693  0.00  0.00    +0.000 C 
ATOM      7  O   UNK A   1      -7.840   6.135 132.447  0.00  0.00    +0.000 OA
ATOM      8  N   LEU A   2      -7.428   4.017 131.505  0.00  0.00    +0.000 N 
ATOM      9  H   UNK A   1      -9.713   5.130 128.795  0.00  0.00    +0.000 HD
ENDROOT
BRANCH   5  10
ATOM     10  C   UNK A   1      -9.854   6.818 130.919  0.00  0.00    +0.000 C 
ATOM     11  C   UNK A   1     -11.378   6.846 131.033  0.00  0.00    +0.000 C 
ATOM     12  C   UNK A   1     -11.772   7.007 129.598  0.00  0.00    +0.000 A 
ATOM     13  C   UNK A   1     -12.986   6.688 129.023  0.00  0.00    +0.000 A 
ATOM     14  C   UNK A   1     -13.145   6.903 127.653  0.00  0.00    +0.000 A 
ATOM     15  C   UNK A   1     -12.099   7.435 126.883  0.00  0.00    +0.000 A 
ATOM     16  C   UNK A   1     -10.863   7.722 127.464  0.00  0.00    +0.000 A 
ATOM     17  C   UNK A   1     -10.709   7.477 128.818  0.00  0.00    +0.000 A 
ATOM     18  C   UNK A   1      -9.483   7.646 129.654  0.00  0.00    +0.000 C 
ENDBRANCH   5  10
BRANCH   1  19
ATOM     19  CB  LEU A   2      -7.453   1.689 130.382  0.00  0.00    +0.000 C 
BRANCH  19  21
ATOM     20  CD1 LEU A   2      -9.129   0.286 131.753  0.00  0.00    +0.000 C 
ATOM     21  CG  LEU A   2      -7.794   0.318 130.992  0.00  0.00    +0.000 C 
ATOM     22  CD2 LEU A   2      -7.805  -0.872 130.049  0.00  0.00    +0.000 C 
ENDBRANCH  19  21
ENDBRANCH   1  19
BRANCH   8  23
ATOM     23  C   UNK A   0      -5.953   3.935 131.915  0.00  0.00    +0.000 C 
BRANCH  23  24
ATOM     24  C   UNK A   0      -5.764   4.034 133.419  0.00  0.00    +0.000 A 
ATOM     25  C   UNK A   0      -6.443   3.424 134.467  0.00  0.00    +0.000 A 
ATOM     26  C   UNK A   0      -6.105   4.157 135.630  0.00  0.00    +0.000 A 
ATOM     27  C   UNK A   0      -5.113   5.029 135.254  0.00  0.00    +0.000 A 
ATOM     28  O   UNK A   0      -4.897   4.955 133.920  0.00  0.00    +0.000 OA
ENDBRANCH  23  24
BRANCH  23  29
ATOM     29  C   UNK A   0      -4.844   4.782 131.111  0.00  0.00    +0.000 C 
ATOM     30  O   UNK A   0      -4.048   4.303 130.307  0.00  0.00    +0.000 OA
ATOM     31  N   UNK A   0      -4.793   6.152 131.328  0.00  0.00    +0.000 N 
ATOM     32  H   UNK A   0      -5.614   6.635 131.626  0.00  0.00    +0.000 HD
BRANCH  31  33
ATOM     33  C   UNK A   0      -3.723   7.056 130.948  0.00  0.00    +0.000 C 
ATOM     34  C   UNK A   0      -4.390   8.069 130.052  0.00  0.00    +0.000 C 
ATOM     35  C   UNK A   0      -3.067   7.762 132.159  0.00  0.00    +0.000 C 
ENDBRANCH  31  33
ENDBRANCH  23  29
ENDBRANCH   8  23
TORSDOF 7
ENDMDL
MODEL 3
REMARK VINA RESULT:      -7.9      4.174      7.761
REMARK  Name = CHEMBL271266
REMARK  11 active torsions:
REMARK  status: ('A' for Active; 'I' for Inactive)
REMARK    1  A    between atoms: CD1_1  and  CG_2
REMARK    2  A    between atoms: CG_2  and  CD2_3
REMARK    3  A    between atoms: CG_2  and  CB_4
REMARK    4  A    between atoms: CB_4  and  CA_5
REMARK    5  A    between atoms: C_9  and  C_10
REMARK    6  A    between atoms: N_21  and  C_22
REMARK    7  A    between atoms: C_22  and  C_23
REMARK    8  A    between atoms: C_22  and  C_29
REMARK    9  A    between atoms: N_25  and  C_26
REMARK   10  A    between atoms: C_26  and  C_27
REMARK   11  A    between atoms: C_26  and  C_28
REMARK                            x       y       z     vdW  Elec       q    Type
REMARK                         _______ _______ _______ _____ _____    ______ ____
ROOT
ATOM      1  CA  LEU A   2      -5.341   2.665 127.642  0.00  0.00    +0.000 C 
ATOM      2  C   LEU A   2      -5.310   2.189 129.124  0.00  0.00    +0.000 C 
ATOM      3  O   LEU A   2      -4.319   1.941 129.785  0.00  0.00    +0.000 OA
ATOM      4  N   UNK A   1      -6.542   2.142 129.696  0.00  0.00    +0.000 N 
ATOM      5  C   UNK A   1      -7.683   2.706 129.021  0.00  0.00    +0.000 C 
ATOM      6  C   UNK A   1      -7.775   2.129 127.623  0.00  0.00    +0.000 C 
ATOM      7  O   UNK A   1      -8.879   1.952 127.167  0.00  0.00    +0.000 OA
ATOM      8  N   LEU A   2      -6.533   1.968 126.971  0.00  0.00    +0.000 N 
ATOM      9  H   UNK A   1      -6.540   1.927 130.686  0.00  0.00    +0.000 HD
ENDROOT
BRANCH   5  10
ATOM     10  C   UNK A   1      -9.024   2.466 129.731  0.00  0.00    +0.000 C 
ATOM     11  C   UNK A   1      -9.633   3.837 130.025  0.00  0.00    +0.000 C 
ATOM     12  C   UNK A   1      -9.228   4.032 131.453  0.00  0.00    +0.000 A 
ATOM     13  C   UNK A   1      -9.123   5.226 132.137  0.00  0.00    +0.000 A 
ATOM     14  C   UNK A   1      -8.710   5.191 133.470  0.00  0.00    +0.000 A 
ATOM     15  C   UNK A   1      -8.415   3.970 134.099  0.00  0.00    +0.000 A 
ATOM     16  C   UNK A   1      -8.490   2.770 133.391  0.00  0.00    +0.000 A 
ATOM     17  C   UNK A   1      -8.872   2.822 132.061  0.00  0.00    +0.000 A 
ATOM     18  C   UNK A   1      -8.974   1.697 131.084  0.00  0.00    +0.000 C 
ENDBRANCH   5  10
BRANCH   1  19
ATOM     19  CB  LEU A   2      -3.975   2.310 127.116  0.00  0.00    +0.000 C 
BRANCH  19  21
ATOM     20  CD1 LEU A   2      -2.968   4.604 127.729  0.00  0.00    +0.000 C 
ATOM     21  CG  LEU A   2      -3.001   3.437 126.731  0.00  0.00    +0.000 C 
ATOM     22  CD2 LEU A   2      -1.556   3.043 126.479  0.00  0.00    +0.000 C 
ENDBRANCH  19  21
ENDBRANCH   1  19
BRANCH   8  23
ATOM     23  C   UNK A   0      -6.462   1.070 125.730  0.00  0.00    +0.000 C 
BRANCH  23  24
ATOM     24  C   UNK A   0      -7.244   1.639 124.559  0.00  0.00    +0.000 A 
ATOM     25  C   UNK A   0      -7.149   2.861 123.904  0.00  0.00    +0.000 A 
ATOM     26  C   UNK A   0      -8.346   3.001 123.161  0.00  0.00    +0.000 A 
ATOM     27  C   UNK A   0      -8.996   1.795 123.258  0.00  0.00    +0.000 A 
ATOM     28  O   UNK A   0      -8.332   0.965 124.097  0.00  0.00    +0.000 OA
ENDBRANCH  23  24
BRANCH  23  29
ATOM     29  C   UNK A   0      -6.663  -0.521 125.873  0.00  0.00    +0.000 C 
ATOM     30  O   UNK A   0      -6.958  -1.095 126.919  0.00  0.00    +0.000 OA
ATOM     31  N   UNK A   0      -6.509  -1.299 124.733  0.00  0.00    +0.000 N 
ATOM     32  H   UNK A   0      -6.668  -0.895 123.835  0.00  0.00    +0.000 HD
BRANCH  31  33
ATOM     33  C   UNK A   0      -6.361  -2.741 124.676  0.00  0.00    +0.000 C 
ATOM     34  C   UNK A   0      -7.690  -3.233 124.160  0.00  0.00    +0.000 C 
ATOM     35  C   UNK A   0      -5.220  -3.196 123.735  0.00  0.00    +0.000 C 
ENDBRANCH  31  33
ENDBRANCH  23  29
ENDBRANCH   8  23
TORSDOF 7
ENDMDL
MODEL 4
REMARK VINA RESULT:      -7.8      2.670      7.684
REMARK  Name = CHEMBL271266
REMARK  11 active torsions:
REMARK  status: ('A' for Active; 'I' for Inactive)
REMARK    1  A    between atoms: CD1_1  and  CG_2
REMARK    2  A    between atoms: CG_2  and  CD2_3
REMARK    3  A    between atoms: CG_2  and  CB_4
REMARK    4  A    between atoms: CB_4  and  CA_5
REMARK    5  A    between atoms: C_9  and  C_10
REMARK    6  A    between atoms: N_21  and  C_22
REMARK    7  A    between atoms: C_22  and  C_23
REMARK    8  A    between atoms: C_22  and  C_29
REMARK    9  A    between atoms: N_25  and  C_26
REMARK   10  A    between atoms: C_26  and  C_27
REMARK   11  A    between atoms: C_26  and  C_28
REMARK                            x       y       z     vdW  Elec       q    Type
REMARK                         _______ _______ _______ _____ _____    ______ ____
ROOT
ATOM      1  CA  LEU A   2      -8.501   2.691 130.780  0.00  0.00    +0.000 C 
ATOM      2  C   LEU A   2      -8.721   3.468 129.449  0.00  0.00    +0.000 C 
ATOM      3  O   LEU A   2      -8.584   3.030 128.322  0.00  0.00    +0.000 OA
ATOM      4  N   UNK A   1      -9.187   4.730 129.638  0.00  0.00    +0.000 N 
ATOM      5  C   UNK A   1      -9.627   5.159 130.942  0.00  0.00    +0.000 C 
ATOM      6  C   UNK A   1      -8.533   4.888 131.955  0.00  0.00    +0.000 C 
ATOM      7  O   UNK A   1      -8.411   5.674 132.863  0.00  0.00    +0.000 OA
ATOM      8  N   LEU A   2      -7.849   3.667 131.768  0.00  0.00    +0.000 N 
ATOM      9  H   UNK A   1      -9.428   5.224 128.787  0.00  0.00    +0.000 HD
ENDROOT
BRANCH   5  10
ATOM     10  C   UNK A   1     -10.006   6.645 131.028  0.00  0.00    +0.000 C 
ATOM     11  C   UNK A   1     -11.531   6.721 131.099  0.00  0.00    +0.000 C 
ATOM     12  C   UNK A   1     -11.873   7.001 129.669  0.00  0.00    +0.000 A 
ATOM     13  C   UNK A   1     -13.077   6.770 129.035  0.00  0.00    +0.000 A 
ATOM     14  C   UNK A   1     -13.185   7.091 127.681  0.00  0.00    +0.000 A 
ATOM     15  C   UNK A   1     -12.096   7.640 126.984  0.00  0.00    +0.000 A 
ATOM     16  C   UNK A   1     -10.871   7.838 127.622  0.00  0.00    +0.000 A 
ATOM     17  C   UNK A   1     -10.769   7.488 128.958  0.00  0.00    +0.000 A 
ATOM     18  C   UNK A   1      -9.566   7.551 129.840  0.00  0.00    +0.000 C 
ENDBRANCH   5  10
BRANCH   1  19
ATOM     19  CB  LEU A   2      -7.675   1.498 130.373  0.00  0.00    +0.000 C 
BRANCH  19  21
ATOM     20  CD1 LEU A   2      -7.408  -1.020 129.878  0.00  0.00    +0.000 C 
ATOM     21  CG  LEU A   2      -8.282   0.089 130.487  0.00  0.00    +0.000 C 
ATOM     22  CD2 LEU A   2      -8.672  -0.384 131.876  0.00  0.00    +0.000 C 
ENDBRANCH  19  21
ENDBRANCH   1  19
BRANCH   8  23
ATOM     23  C   UNK A   0      -6.508   3.456 132.482  0.00  0.00    +0.000 C 
BRANCH  23  24
ATOM     24  C   UNK A   0      -5.331   3.961 131.663  0.00  0.00    +0.000 A 
ATOM     25  C   UNK A   0      -5.203   4.203 130.302  0.00  0.00    +0.000 A 
ATOM     26  C   UNK A   0      -3.813   4.292 130.050  0.00  0.00    +0.000 A 
ATOM     27  C   UNK A   0      -3.203   4.288 131.281  0.00  0.00    +0.000 A 
ATOM     28  O   UNK A   0      -4.116   4.095 132.261  0.00  0.00    +0.000 OA
ENDBRANCH  23  24
BRANCH  23  29
ATOM     29  C   UNK A   0      -6.187   2.048 133.194  0.00  0.00    +0.000 C 
ATOM     30  O   UNK A   0      -6.860   1.552 134.094  0.00  0.00    +0.000 OA
ATOM     31  N   UNK A   0      -5.081   1.335 132.751  0.00  0.00    +0.000 N 
ATOM     32  H   UNK A   0      -4.754   1.462 131.817  0.00  0.00    +0.000 HD
BRANCH  31  33
ATOM     33  C   UNK A   0      -4.443   0.213 133.415  0.00  0.00    +0.000 C 
ATOM     34  C   UNK A   0      -4.796  -0.977 132.559  0.00  0.00    +0.000 C 
ATOM     35  C   UNK A   0      -2.906   0.363 133.517  0.00  0.00    +0.000 C 
ENDBRANCH  31  33
ENDBRANCH  23  29
ENDBRANCH   8  23
TORSDOF 7
ENDMDL
MODEL 5
REMARK VINA RESULT:      -7.8      3.902      8.698
REMARK  Name = CHEMBL271266
REMARK  11 active torsions:
REMARK  status: ('A' for Active; 'I' for Inactive)
REMARK    1  A    between atoms: CD1_1  and  CG_2
REMARK    2  A    between atoms: CG_2  and  CD2_3
REMARK    3  A    between atoms: CG_2  and  CB_4
REMARK    4  A    between atoms: CB_4  and  CA_5
REMARK    5  A    between atoms: C_9  and  C_10
REMARK    6  A    between atoms: N_21  and  C_22
REMARK    7  A    between atoms: C_22  and  C_23
REMARK    8  A    between atoms: C_22  and  C_29
REMARK    9  A    between atoms: N_25  and  C_26
REMARK   10  A    between atoms: C_26  and  C_27
REMARK   11  A    between atoms: C_26  and  C_28
REMARK                            x       y       z     vdW  Elec       q    Type
REMARK                         _______ _______ _______ _____ _____    ______ ____
ROOT
ATOM      1  CA  LEU A   2      -4.911   3.023 127.106  0.00  0.00    +0.000 C 
ATOM      2  C   LEU A   2      -5.588   2.911 125.709  0.00  0.00    +0.000 C 
ATOM      3  O   LEU A   2      -5.443   3.670 124.769  0.00  0.00    +0.000 OA
ATOM      4  N   UNK A   1      -6.343   1.789 125.570  0.00  0.00    +0.000 N 
ATOM      5  C   UNK A   1      -6.290   0.746 126.562  0.00  0.00    +0.000 C 
ATOM      6  C   UNK A   1      -6.554   1.340 127.930  0.00  0.00    +0.000 C 
ATOM      7  O   UNK A   1      -7.156   0.660 128.725  0.00  0.00    +0.000 OA
ATOM      8  N   LEU A   2      -5.955   2.601 128.148  0.00  0.00    +0.000 N 
ATOM      9  H   UNK A   1      -6.717   1.645 124.639  0.00  0.00    +0.000 HD
ENDROOT
BRANCH   5  10
ATOM     10  C   UNK A   1      -7.289  -0.399 126.334  0.00  0.00    +0.000 C 
ATOM     11  C   UNK A   1      -6.521  -1.711 126.494  0.00  0.00    +0.000 C 
ATOM     12  C   UNK A   1      -6.229  -2.050 125.066  0.00  0.00    +0.000 A 
ATOM     13  C   UNK A   1      -5.231  -2.877 124.589  0.00  0.00    +0.000 A 
ATOM     14  C   UNK A   1      -5.119  -3.050 123.209  0.00  0.00    +0.000 A 
ATOM     15  C   UNK A   1      -6.003  -2.404 122.329  0.00  0.00    +0.000 A 
ATOM     16  C   UNK A   1      -6.986  -1.542 122.816  0.00  0.00    +0.000 A 
ATOM     17  C   UNK A   1      -7.068  -1.356 124.186  0.00  0.00    +0.000 A 
ATOM     18  C   UNK A   1      -7.987  -0.455 124.943  0.00  0.00    +0.000 C 
ENDBRANCH   5  10
BRANCH   1  19
ATOM     19  CB  LEU A   2      -4.440   4.453 127.169  0.00  0.00    +0.000 C 
BRANCH  19  21
ATOM     20  CD1 LEU A   2      -2.577   5.410 128.674  0.00  0.00    +0.000 C 
ATOM     21  CG  LEU A   2      -2.940   4.745 127.336  0.00  0.00    +0.000 C 
ATOM     22  CD2 LEU A   2      -1.986   3.577 127.163  0.00  0.00    +0.000 C 
ENDBRANCH  19  21
ENDBRANCH   1  19
BRANCH   8  23
ATOM     23  C   UNK A   0      -6.442   3.456 129.324  0.00  0.00    +0.000 C 
BRANCH  23  24
ATOM     24  C   UNK A   0      -5.441   3.491 130.467  0.00  0.00    +0.000 A 
ATOM     25  C   UNK A   0      -4.291   2.747 130.696  0.00  0.00    +0.000 A 
ATOM     26  C   UNK A   0      -3.974   2.930 132.064  0.00  0.00    +0.000 A 
ATOM     27  C   UNK A   0      -4.824   3.905 132.523  0.00  0.00    +0.000 A 
ATOM     28  O   UNK A   0      -5.710   4.253 131.561  0.00  0.00    +0.000 OA
ENDBRANCH  23  24
BRANCH  23  29
ATOM     29  C   UNK A   0      -7.957   3.312 129.853  0.00  0.00    +0.000 C 
ATOM     30  O   UNK A   0      -8.946   3.727 129.255  0.00  0.00    +0.000 OA
ATOM     31  N   UNK A   0      -8.161   2.660 131.061  0.00  0.00    +0.000 N 
ATOM     32  H   UNK A   0      -7.499   1.983 131.375  0.00  0.00    +0.000 HD
BRANCH  31  33
ATOM     33  C   UNK A   0      -9.374   2.663 131.859  0.00  0.00    +0.000 C 
ATOM     34  C   UNK A   0      -9.808   1.219 131.883  0.00  0.00    +0.000 C 
ATOM     35  C   UNK A   0      -9.150   3.178 133.301  0.00  0.00    +0.000 C 
ENDBRANCH  31  33
ENDBRANCH  23  29
ENDBRANCH   8  23
TORSDOF 7
ENDMDL
MODEL 6
REMARK VINA RESULT:      -7.8      2.471      7.349
REMARK  Name = CHEMBL271266
REMARK  11 active torsions:
REMARK  status: ('A' for Active; 'I' for Inactive)
REMARK    1  A    between atoms: CD1_1  and  CG_2
REMARK    2  A    between atoms: CG_2  and  CD2_3
REMARK    3  A    between atoms: CG_2  and  CB_4
REMARK    4  A    between atoms: CB_4  and  CA_5
REMARK    5  A    between atoms: C_9  and  C_10
REMARK    6  A    between atoms: N_21  and  C_22
REMARK    7  A    between atoms: C_22  and  C_23
REMARK    8  A    between atoms: C_22  and  C_29
REMARK    9  A    between atoms: N_25  and  C_26
REMARK   10  A    between atoms: C_26  and  C_27
REMARK   11  A    between atoms: C_26  and  C_28
REMARK                            x       y       z     vdW  Elec       q    Type
REMARK                         _______ _______ _______ _____ _____    ______ ____
ROOT
ATOM      1  CA  LEU A   2      -8.165   1.849 130.829  0.00  0.00    +0.000 C 
ATOM      2  C   LEU A   2      -8.714   2.813 129.738  0.00  0.00    +0.000 C 
ATOM      3  O   LEU A   2      -9.080   2.508 128.618  0.00  0.00    +0.000 OA
ATOM      4  N   UNK A   1      -8.845   4.094 130.173  0.00  0.00    +0.000 N 
ATOM      5  C   UNK A   1      -8.694   4.409 131.571  0.00  0.00    +0.000 C 
ATOM      6  C   UNK A   1      -7.372   3.860 132.069  0.00  0.00    +0.000 C 
ATOM      7  O   UNK A   1      -6.788   4.498 132.912  0.00  0.00    +0.000 OA
ATOM      8  N   LEU A   2      -7.034   2.589 131.555  0.00  0.00    +0.000 N 
ATOM      9  H   UNK A   1      -9.289   4.721 129.513  0.00  0.00    +0.000 HD
ENDROOT
BRANCH   5  10
ATOM     10  C   UNK A   1      -8.743   5.911 131.893  0.00  0.00    +0.000 C 
ATOM     11  C   UNK A   1     -10.084   6.185 132.574  0.00  0.00    +0.000 C 
ATOM     12  C   UNK A   1     -10.896   6.687 131.421  0.00  0.00    +0.000 A 
ATOM     13  C   UNK A   1     -12.272   6.704 131.312  0.00  0.00    +0.000 A 
ATOM     14  C   UNK A   1     -12.835   7.204 130.137  0.00  0.00    +0.000 A 
ATOM     15  C   UNK A   1     -12.022   7.683 129.096  0.00  0.00    +0.000 A 
ATOM     16  C   UNK A   1     -10.632   7.630 129.200  0.00  0.00    +0.000 A 
ATOM     17  C   UNK A   1     -10.085   7.104 130.358  0.00  0.00    +0.000 A 
ATOM     18  C   UNK A   1      -8.644   6.890 130.686  0.00  0.00    +0.000 C 
ENDBRANCH   5  10
BRANCH   1  19
ATOM     19  CB  LEU A   2      -7.773   0.614 130.061  0.00  0.00    +0.000 C 
BRANCH  19  21
ATOM     20  CD1 LEU A   2      -7.775  -1.938 129.685  0.00  0.00    +0.000 C 
ATOM     21  CG  LEU A   2      -8.218  -0.766 130.575  0.00  0.00    +0.000 C 
ATOM     22  CD2 LEU A   2      -7.827  -1.131 131.996  0.00  0.00    +0.000 C 
ENDBRANCH  19  21
ENDBRANCH   1  19
BRANCH   8  23
ATOM     23  C   UNK A   0      -5.585   2.102 131.687  0.00  0.00    +0.000 C 
BRANCH  23  24
ATOM     24  C   UNK A   0      -5.254   1.648 133.098  0.00  0.00    +0.000 A 
ATOM     25  C   UNK A   0      -6.067   1.168 134.118  0.00  0.00    +0.000 A 
ATOM     26  C   UNK A   0      -5.302   1.263 135.305  0.00  0.00    +0.000 A 
ATOM     27  C   UNK A   0      -4.032   1.607 134.911  0.00  0.00    +0.000 A 
ATOM     28  O   UNK A   0      -3.995   1.836 133.577  0.00  0.00    +0.000 OA
ENDBRANCH  23  24
BRANCH  23  29
ATOM     29  C   UNK A   0      -4.386   2.952 131.030  0.00  0.00    +0.000 C 
ATOM     30  O   UNK A   0      -3.883   2.716 129.934  0.00  0.00    +0.000 OA
ATOM     31  N   UNK A   0      -3.896   4.038 131.742  0.00  0.00    +0.000 N 
ATOM     32  H   UNK A   0      -4.486   4.506 132.396  0.00  0.00    +0.000 HD
BRANCH  31  33
ATOM     33  C   UNK A   0      -2.660   4.758 131.494  0.00  0.00    +0.000 C 
ATOM     34  C   UNK A   0      -3.079   6.206 131.431  0.00  0.00    +0.000 C 
ATOM     35  C   UNK A   0      -1.605   4.554 132.606  0.00  0.00    +0.000 C 
ENDBRANCH  31  33
ENDBRANCH  23  29
ENDBRANCH   8  23
TORSDOF 7
ENDMDL
MODEL 7
REMARK VINA RESULT:      -7.7      4.106      7.218
REMARK  Name = CHEMBL271266
REMARK  11 active torsions:
REMARK  status: ('A' for Active; 'I' for Inactive)
REMARK    1  A    between atoms: CD1_1  and  CG_2
REMARK    2  A    between atoms: CG_2  and  CD2_3
REMARK    3  A    between atoms: CG_2  and  CB_4
REMARK    4  A    between atoms: CB_4  and  CA_5
REMARK    5  A    between atoms: C_9  and  C_10
REMARK    6  A    between atoms: N_21  and  C_22
REMARK    7  A    between atoms: C_22  and  C_23
REMARK    8  A    between atoms: C_22  and  C_29
REMARK    9  A    between atoms: N_25  and  C_26
REMARK   10  A    between atoms: C_26  and  C_27
REMARK   11  A    between atoms: C_26  and  C_28
REMARK                            x       y       z     vdW  Elec       q    Type
REMARK                         _______ _______ _______ _____ _____    ______ ____
ROOT
ATOM      1  CA  LEU A   2      -7.415   2.224 131.441  0.00  0.00    +0.000 C 
ATOM      2  C   LEU A   2      -6.189   1.267 131.392  0.00  0.00    +0.000 C 
ATOM      3  O   LEU A   2      -5.243   1.260 132.157  0.00  0.00    +0.000 OA
ATOM      4  N   UNK A   1      -6.289   0.320 130.422  0.00  0.00    +0.000 N 
ATOM      5  C   UNK A   1      -7.525   0.136 129.706  0.00  0.00    +0.000 C 
ATOM      6  C   UNK A   1      -7.978   1.464 129.135  0.00  0.00    +0.000 C 
ATOM      7  O   UNK A   1      -8.544   1.447 128.069  0.00  0.00    +0.000 OA
ATOM      8  N   LEU A   2      -7.774   2.570 129.989  0.00  0.00    +0.000 N 
ATOM      9  H   UNK A   1      -5.550  -0.373 130.431  0.00  0.00    +0.000 HD
ENDROOT
BRANCH   5  10
ATOM     10  C   UNK A   1      -7.448  -0.881 128.556  0.00  0.00    +0.000 C 
ATOM     11  C   UNK A   1      -7.957  -2.217 129.098  0.00  0.00    +0.000 C 
ATOM     12  C   UNK A   1      -6.669  -2.905 129.425  0.00  0.00    +0.000 A 
ATOM     13  C   UNK A   1      -6.479  -3.948 130.309  0.00  0.00    +0.000 A 
ATOM     14  C   UNK A   1      -5.184  -4.440 130.482  0.00  0.00    +0.000 A 
ATOM     15  C   UNK A   1      -4.105  -3.891 129.770  0.00  0.00    +0.000 A 
ATOM     16  C   UNK A   1      -4.300  -2.815 128.905  0.00  0.00    +0.000 A 
ATOM     17  C   UNK A   1      -5.584  -2.317 128.764  0.00  0.00    +0.000 A 
ATOM     18  C   UNK A   1      -6.039  -1.150 127.951  0.00  0.00    +0.000 C 
ENDBRANCH   5  10
BRANCH   1  19
ATOM     19  CB  LEU A   2      -6.952   3.366 132.307  0.00  0.00    +0.000 C 
BRANCH  19  21
ATOM     20  CD1 LEU A   2      -7.699   5.253 133.900  0.00  0.00    +0.000 C 
ATOM     21  CG  LEU A   2      -7.782   3.761 133.541  0.00  0.00    +0.000 C 
ATOM     22  CD2 LEU A   2      -9.258   3.404 133.521  0.00  0.00    +0.000 C 
ENDBRANCH  19  21
ENDBRANCH   1  19
BRANCH   8  23
ATOM     23  C   UNK A   0      -7.843   3.983 129.397  0.00  0.00    +0.000 C 
BRANCH  23  24
ATOM     24  C   UNK A   0      -9.071   4.746 129.864  0.00  0.00    +0.000 A 
ATOM     25  C   UNK A   0      -9.194   5.969 130.511  0.00  0.00    +0.000 A 
ATOM     26  C   UNK A   0     -10.511   6.005 131.031  0.00  0.00    +0.000 A 
ATOM     27  C   UNK A   0     -11.152   4.907 130.514  0.00  0.00    +0.000 A 
ATOM     28  O   UNK A   0     -10.289   4.144 129.802  0.00  0.00    +0.000 OA
ENDBRANCH  23  24
BRANCH  23  29
ATOM     29  C   UNK A   0      -7.547   4.216 127.831  0.00  0.00    +0.000 C 
ATOM     30  O   UNK A   0      -8.309   4.788 127.055  0.00  0.00    +0.000 OA
ATOM     31  N   UNK A   0      -6.339   3.755 127.325  0.00  0.00    +0.000 N 
ATOM     32  H   UNK A   0      -5.553   3.661 127.932  0.00  0.00    +0.000 HD
BRANCH  31  33
ATOM     33  C   UNK A   0      -5.984   3.596 125.926  0.00  0.00    +0.000 C 
ATOM     34  C   UNK A   0      -4.507   3.899 125.880  0.00  0.00    +0.000 C 
ATOM     35  C   UNK A   0      -6.255   2.171 125.389  0.00  0.00    +0.000 C 
ENDBRANCH  31  33
ENDBRANCH  23  29
ENDBRANCH   8  23
TORSDOF 7
ENDMDL
MODEL 8
REMARK VINA RESULT:      -7.7      3.917      8.251
REMARK  Name = CHEMBL271266
REMARK  11 active torsions:
REMARK  status: ('A' for Active; 'I' for Inactive)
REMARK    1  A    between atoms: CD1_1  and  CG_2
REMARK    2  A    between atoms: CG_2  and  CD2_3
REMARK    3  A    between atoms: CG_2  and  CB_4
REMARK    4  A    between atoms: CB_4  and  CA_5
REMARK    5  A    between atoms: C_9  and  C_10
REMARK    6  A    between atoms: N_21  and  C_22
REMARK    7  A    between atoms: C_22  and  C_23
REMARK    8  A    between atoms: C_22  and  C_29
REMARK    9  A    between atoms: N_25  and  C_26
REMARK   10  A    between atoms: C_26  and  C_27
REMARK   11  A    between atoms: C_26  and  C_28
REMARK                            x       y       z     vdW  Elec       q    Type
REMARK                         _______ _______ _______ _____ _____    ______ ____
ROOT
ATOM      1  CA  LEU A   2      -8.093   1.044 129.853  0.00  0.00    +0.000 C 
ATOM      2  C   LEU A   2      -7.260  -0.080 129.170  0.00  0.00    +0.000 C 
ATOM      3  O   LEU A   2      -6.664  -0.982 129.728  0.00  0.00    +0.000 OA
ATOM      4  N   UNK A   1      -7.312  -0.034 127.813  0.00  0.00    +0.000 N 
ATOM      5  C   UNK A   1      -8.241   0.844 127.147  0.00  0.00    +0.000 C 
ATOM      6  C   UNK A   1      -8.067   2.253 127.674  0.00  0.00    +0.000 C 
ATOM      7  O   UNK A   1      -8.230   3.161 126.895  0.00  0.00    +0.000 OA
ATOM      8  N   LEU A   2      -7.836   2.336 129.065  0.00  0.00    +0.000 N 
ATOM      9  H   UNK A   1      -6.857  -0.810 127.346  0.00  0.00    +0.000 HD
ENDROOT
BRANCH   5  10
ATOM     10  C   UNK A   1      -8.097   0.879 125.618  0.00  0.00    +0.000 C 
ATOM     11  C   UNK A   1      -9.208   0.006 125.036  0.00  0.00    +0.000 C 
ATOM     12  C   UNK A   1      -8.472  -1.276 124.799  0.00  0.00    +0.000 A 
ATOM     13  C   UNK A   1      -9.012  -2.541 124.680  0.00  0.00    +0.000 A 
ATOM     14  C   UNK A   1      -8.143  -3.614 124.475  0.00  0.00    +0.000 A 
ATOM     15  C   UNK A   1      -6.757  -3.410 124.386  0.00  0.00    +0.000 A 
ATOM     16  C   UNK A   1      -6.216  -2.133 124.542  0.00  0.00    +0.000 A 
ATOM     17  C   UNK A   1      -7.086  -1.082 124.775  0.00  0.00    +0.000 A 
ATOM     18  C   UNK A   1      -6.755   0.352 125.028  0.00  0.00    +0.000 C 
ENDBRANCH   5  10
BRANCH   1  19
ATOM     19  CB  LEU A   2      -7.623   1.028 131.284  0.00  0.00    +0.000 C 
BRANCH  19  21
ATOM     20  CD1 LEU A   2      -8.068   2.634 133.253  0.00  0.00    +0.000 C 
ATOM     21  CG  LEU A   2      -8.588   1.466 132.399  0.00  0.00    +0.000 C 
ATOM     22  CD2 LEU A   2     -10.001   1.832 131.982  0.00  0.00    +0.000 C 
ENDBRANCH  19  21
ENDBRANCH   1  19
BRANCH   8  23
ATOM     23  C   UNK A   0      -7.286   3.644 129.645  0.00  0.00    +0.000 C 
BRANCH  23  24
ATOM     24  C   UNK A   0      -8.390   4.602 130.060  0.00  0.00    +0.000 A 
ATOM     25  C   UNK A   0      -8.418   5.600 131.026  0.00  0.00    +0.000 A 
ATOM     26  C   UNK A   0      -9.785   5.903 131.234  0.00  0.00    +0.000 A 
ATOM     27  C   UNK A   0     -10.477   5.221 130.264  0.00  0.00    +0.000 A 
ATOM     28  O   UNK A   0      -9.639   4.437 129.546  0.00  0.00    +0.000 OA
ENDBRANCH  23  24
BRANCH  23  29
ATOM     29  C   UNK A   0      -6.072   4.405 128.910  0.00  0.00    +0.000 C 
ATOM     30  O   UNK A   0      -5.740   5.567 129.132  0.00  0.00    +0.000 OA
ATOM     31  N   UNK A   0      -5.336   3.694 127.971  0.00  0.00    +0.000 N 
ATOM     32  H   UNK A   0      -5.284   2.700 128.035  0.00  0.00    +0.000 HD
BRANCH  31  33
ATOM     33  C   UNK A   0      -4.407   4.238 126.998  0.00  0.00    +0.000 C 
ATOM     34  C   UNK A   0      -3.054   3.761 127.466  0.00  0.00    +0.000 C 
ATOM     35  C   UNK A   0      -4.679   3.744 125.558  0.00  0.00    +0.000 C 
ENDBRANCH  31  33
ENDBRANCH  23  29
ENDBRANCH   8  23
TORSDOF 7
ENDMDL
MODEL 9
REMARK VINA RESULT:      -7.7      3.574      8.677
REMARK  Name = CHEMBL271266
REMARK  11 active torsions:
REMARK  status: ('A' for Active; 'I' for Inactive)
REMARK    1  A    between atoms: CD1_1  and  CG_2
REMARK    2  A    between atoms: CG_2  and  CD2_3
REMARK    3  A    between atoms: CG_2  and  CB_4
REMARK    4  A    between atoms: CB_4  and  CA_5
REMARK    5  A    between atoms: C_9  and  C_10
REMARK    6  A    between atoms: N_21  and  C_22
REMARK    7  A    between atoms: C_22  and  C_23
REMARK    8  A    between atoms: C_22  and  C_29
REMARK    9  A    between atoms: N_25  and  C_26
REMARK   10  A    between atoms: C_26  and  C_27
REMARK   11  A    between atoms: C_26  and  C_28
REMARK                            x       y       z     vdW  Elec       q    Type
REMARK                         _______ _______ _______ _____ _____    ______ ____
ROOT
ATOM      1  CA  LEU A   2      -5.120   2.972 126.761  0.00  0.00    +0.000 C 
ATOM      2  C   LEU A   2      -6.053   2.834 125.523  0.00  0.00    +0.000 C 
ATOM      3  O   LEU A   2      -5.915   3.384 124.446  0.00  0.00    +0.000 OA
ATOM      4  N   UNK A   1      -7.056   1.935 125.707  0.00  0.00    +0.000 N 
ATOM      5  C   UNK A   1      -7.059   1.071 126.859  0.00  0.00    +0.000 C 
ATOM      6  C   UNK A   1      -6.921   1.907 128.115  0.00  0.00    +0.000 C 
ATOM      7  O   UNK A   1      -7.504   1.528 129.102  0.00  0.00    +0.000 OA
ATOM      8  N   LEU A   2      -6.021   2.989 128.003  0.00  0.00    +0.000 N 
ATOM      9  H   UNK A   1      -7.619   1.758 124.884  0.00  0.00    +0.000 HD
ENDROOT
BRANCH   5  10
ATOM     10  C   UNK A   1      -8.318   0.200 126.996  0.00  0.00    +0.000 C 
ATOM     11  C   UNK A   1      -7.852  -1.237 127.229  0.00  0.00    +0.000 C 
ATOM     12  C   UNK A   1      -7.950  -1.799 125.845  0.00  0.00    +0.000 A 
ATOM     13  C   UNK A   1      -7.289  -2.902 125.341  0.00  0.00    +0.000 A 
ATOM     14  C   UNK A   1      -7.511  -3.253 124.008  0.00  0.00    +0.000 A 
ATOM     15  C   UNK A   1      -8.387  -2.507 123.204  0.00  0.00    +0.000 A 
ATOM     16  C   UNK A   1      -9.025  -1.373 123.710  0.00  0.00    +0.000 A 
ATOM     17  C   UNK A   1      -8.774  -1.019 125.025  0.00  0.00    +0.000 A 
ATOM     18  C   UNK A   1      -9.284   0.167 125.776  0.00  0.00    +0.000 C 
ENDBRANCH   5  10
BRANCH   1  19
ATOM     19  CB  LEU A   2      -4.332   4.226 126.486  0.00  0.00    +0.000 C 
BRANCH  19  21
ATOM     20  CD1 LEU A   2      -2.524   5.240 128.022  0.00  0.00    +0.000 C 
ATOM     21  CG  LEU A   2      -2.842   4.278 126.866  0.00  0.00    +0.000 C 
ATOM     22  CD2 LEU A   2      -2.171   2.959 127.205  0.00  0.00    +0.000 C 
ENDBRANCH  19  21
ENDBRANCH   1  19
BRANCH   8  23
ATOM     23  C   UNK A   0      -6.072   4.103 129.056  0.00  0.00    +0.000 C 
BRANCH  23  24
ATOM     24  C   UNK A   0      -5.039   3.910 130.153  0.00  0.00    +0.000 A 
ATOM     25  C   UNK A   0      -4.188   2.847 130.430  0.00  0.00    +0.000 A 
ATOM     26  C   UNK A   0      -3.734   3.044 131.756  0.00  0.00    +0.000 A 
ATOM     27  C   UNK A   0      -4.178   4.290 132.127  0.00  0.00    +0.000 A 
ATOM     28  O   UNK A   0      -4.962   4.822 131.160  0.00  0.00    +0.000 OA
ENDBRANCH  23  24
BRANCH  23  29
ATOM     29  C   UNK A   0      -7.489   4.595 129.641  0.00  0.00    +0.000 C 
ATOM     30  O   UNK A   0      -8.280   5.317 129.039  0.00  0.00    +0.000 OA
ATOM     31  N   UNK A   0      -7.852   4.161 130.909  0.00  0.00    +0.000 N 
ATOM     32  H   UNK A   0      -7.481   3.305 131.262  0.00  0.00    +0.000 HD
BRANCH  31  33
ATOM     33  C   UNK A   0      -8.918   4.689 131.740  0.00  0.00    +0.000 C 
ATOM     34  C   UNK A   0      -9.188   3.595 132.742  0.00  0.00    +0.000 C 
ATOM     35  C   UNK A   0      -8.528   5.997 132.468  0.00  0.00    +0.000 C 
ENDBRANCH  31  33
ENDBRANCH  23  29
ENDBRANCH   8  23
TORSDOF 7
ENDMDL
