MODEL 1
REMARK VINA RESULT:      -8.4      0.000      0.000
REMARK  Name = CHEMBL408691
REMARK  11 active torsions:
REMARK  status: ('A' for Active; 'I' for Inactive)
REMARK    1  A    between atoms: C_1  and  C_2
REMARK    2  A    between atoms: C_4  and  C_5
REMARK    3  A    between atoms: C_5  and  C_6
REMARK    4  A    between atoms: C_5  and  N_11
REMARK    5  A    between atoms: N_8  and  C_9
REMARK    6  A    between atoms: N_8  and  C_10
REMARK    7  A    between atoms: C_14  and  C_15
REMARK    8  A    between atoms: CA_27  and  CB_28
REMARK    9  A    between atoms: CB_28  and  CG_29
REMARK   10  A    between atoms: CG_29  and  CD1_30
REMARK   11  A    between atoms: CG_29  and  CD2_31
REMARK                            x       y       z     vdW  Elec       q    Type
REMARK                         _______ _______ _______ _____ _____    ______ ____
ROOT
ATOM      1  N   LEU A   1      -8.443   3.911 129.133  0.00  0.00    +0.000 N 
ATOM      2  C   UNK A   2      -8.354   4.207 127.783  0.00  0.00    +0.000 C 
ATOM      3  O   UNK A   2      -8.687   5.243 127.307  0.00  0.00    +0.000 OA
ATOM      4  C   UNK A   2      -7.865   3.159 126.791  0.00  0.00    +0.000 C 
ATOM      5  N   UNK A   2      -6.709   2.588 127.382  0.00  0.00    +0.000 N 
ATOM      6  C   LEU A   1      -6.997   1.864 128.491  0.00  0.00    +0.000 C 
ATOM      7  O   LEU A   1      -6.392   0.813 128.653  0.00  0.00    +0.000 OA
ATOM      8  CA  LEU A   1      -8.070   2.515 129.437  0.00  0.00    +0.000 C 
ATOM      9  H   UNK A   2      -5.961   2.192 126.826  0.00  0.00    +0.000 HD
ENDROOT
BRANCH   4  10
ATOM     10  C   UNK A   2      -7.520   3.788 125.450  0.00  0.00    +0.000 C 
ATOM     11  C   UNK A   2      -6.002   3.990 125.218  0.00  0.00    +0.000 C 
ATOM     12  C   UNK A   2      -5.956   4.001 123.727  0.00  0.00    +0.000 A 
ATOM     13  C   UNK A   2      -4.913   4.439 122.933  0.00  0.00    +0.000 A 
ATOM     14  C   UNK A   2      -5.080   4.395 121.551  0.00  0.00    +0.000 A 
ATOM     15  C   UNK A   2      -6.258   3.881 120.986  0.00  0.00    +0.000 A 
ATOM     16  C   UNK A   2      -7.283   3.390 121.796  0.00  0.00    +0.000 A 
ATOM     17  C   UNK A   2      -7.121   3.463 123.167  0.00  0.00    +0.000 A 
ATOM     18  C   UNK A   2      -8.061   2.994 124.228  0.00  0.00    +0.000 C 
ENDBRANCH   4  10
BRANCH   1  19
ATOM     19  C   UNK A   0      -8.909   5.029 130.203  0.00  0.00    +0.000 C 
BRANCH  19  23
ATOM     20  C   UNK A   0     -13.069   6.900 127.555  0.00  0.00    +0.000 C 
ATOM     21  C   UNK A   0     -11.862   6.887 128.528  0.00  0.00    +0.000 A 
ATOM     22  N   UNK A   0     -11.349   5.887 129.259  0.00  0.00    +0.000 NA
ATOM     23  C   UNK A   0      -9.992   6.181 129.725  0.00  0.00    +0.000 A 
ATOM     24  C   UNK A   0      -9.761   7.541 129.621  0.00  0.00    +0.000 A 
ATOM     25  S   UNK A   0     -10.909   8.320 128.606  0.00  0.00    +0.000 S 
ENDBRANCH  19  23
BRANCH  19  26
ATOM     26  C   UNK A   0      -7.565   5.695 130.681  0.00  0.00    +0.000 C 
ATOM     27  O   UNK A   0      -6.623   5.840 129.889  0.00  0.00    +0.000 OA
ATOM     28  N   UNK A   0      -7.353   5.966 132.040  0.00  0.00    +0.000 N 
ATOM     29  C   UNK A   0      -8.375   5.964 133.107  0.00  0.00    +0.000 C 
ATOM     30  C   UNK A   0      -5.969   5.977 132.494  0.00  0.00    +0.000 C 
ENDBRANCH  19  26
ENDBRANCH   1  19
BRANCH   8  31
ATOM     31  CB  LEU A   1      -7.449   2.541 130.778  0.00  0.00    +0.000 C 
BRANCH  31  32
ATOM     32  CG  LEU A   1      -7.968   1.647 131.867  0.00  0.00    +0.000 C 
ATOM     33  CD1 LEU A   1      -7.981   2.386 133.217  0.00  0.00    +0.000 C 
ATOM     34  CD2 LEU A   1      -9.394   1.396 131.609  0.00  0.00    +0.000 C 
ENDBRANCH  31  32
ENDBRANCH   8  31
TORSDOF 6
ENDMDL
MODEL 2
REMARK VINA RESULT:      -8.3      2.575      3.950
REMARK  Name = CHEMBL408691
REMARK  11 active torsions:
REMARK  status: ('A' for Active; 'I' for Inactive)
REMARK    1  A    between atoms: C_1  and  C_2
REMARK    2  A    between atoms: C_4  and  C_5
REMARK    3  A    between atoms: C_5  and  C_6
REMARK    4  A    between atoms: C_5  and  N_11
REMARK    5  A    between atoms: N_8  and  C_9
REMARK    6  A    between atoms: N_8  and  C_10
REMARK    7  A    between atoms: C_14  and  C_15
REMARK    8  A    between atoms: CA_27  and  CB_28
REMARK    9  A    between atoms: CB_28  and  CG_29
REMARK   10  A    between atoms: CG_29  and  CD1_30
REMARK   11  A    between atoms: CG_29  and  CD2_31
REMARK                            x       y       z     vdW  Elec       q    Type
REMARK                         _______ _______ _______ _____ _____    ______ ____
ROOT
ATOM      1  N   LEU A   1      -8.108   1.041 127.654  0.00  0.00    +0.000 N 
ATOM      2  C   UNK A   2      -8.217   1.904 126.575  0.00  0.00    +0.000 C 
ATOM      3  O   UNK A   2      -8.227   3.087 126.670  0.00  0.00    +0.000 OA
ATOM      4  C   UNK A   2      -8.400   1.360 125.164  0.00  0.00    +0.000 C 
ATOM      5  N   UNK A   2      -7.448   0.315 125.034  0.00  0.00    +0.000 N 
ATOM      6  C   LEU A   1      -7.735  -0.749 125.823  0.00  0.00    +0.000 C 
ATOM      7  O   LEU A   1      -7.557  -1.865 125.354  0.00  0.00    +0.000 OA
ATOM      8  CA  LEU A   1      -8.237  -0.378 127.265  0.00  0.00    +0.000 C 
ATOM      9  H   UNK A   2      -7.053   0.057 124.139  0.00  0.00    +0.000 HD
ENDROOT
BRANCH   4  10
ATOM     10  C   UNK A   2      -8.150   2.438 124.121  0.00  0.00    +0.000 C 
ATOM     11  C   UNK A   2      -6.710   2.444 123.550  0.00  0.00    +0.000 C 
ATOM     12  C   UNK A   2      -6.947   3.097 122.229  0.00  0.00    +0.000 A 
ATOM     13  C   UNK A   2      -5.993   3.641 121.392  0.00  0.00    +0.000 A 
ATOM     14  C   UNK A   2      -6.424   4.237 120.208  0.00  0.00    +0.000 A 
ATOM     15  C   UNK A   2      -7.784   4.243 119.862  0.00  0.00    +0.000 A 
ATOM     16  C   UNK A   2      -8.734   3.641 120.689  0.00  0.00    +0.000 A 
ATOM     17  C   UNK A   2      -8.302   3.077 121.874  0.00  0.00    +0.000 A 
ATOM     18  C   UNK A   2      -9.117   2.369 122.905  0.00  0.00    +0.000 C 
ENDBRANCH   4  10
BRANCH   1  19
ATOM     19  C   UNK A   0      -7.860   1.603 129.148  0.00  0.00    +0.000 C 
BRANCH  19  23
ATOM     20  C   UNK A   0      -7.972   6.494 131.118  0.00  0.00    +0.000 C 
ATOM     21  C   UNK A   0      -8.488   5.192 130.454  0.00  0.00    +0.000 A 
ATOM     22  N   UNK A   0      -7.851   4.306 129.675  0.00  0.00    +0.000 NA
ATOM     23  C   UNK A   0      -8.566   3.030 129.587  0.00  0.00    +0.000 A 
ATOM     24  C   UNK A   0      -9.874   3.214 130.001  0.00  0.00    +0.000 A 
ATOM     25  S   UNK A   0     -10.082   4.684 130.867  0.00  0.00    +0.000 S 
ENDBRANCH  19  23
BRANCH  19  26
ATOM     26  C   UNK A   0      -6.294   1.697 129.275  0.00  0.00    +0.000 C 
ATOM     27  O   UNK A   0      -5.611   2.081 128.315  0.00  0.00    +0.000 OA
ATOM     28  N   UNK A   0      -5.642   1.183 130.404  0.00  0.00    +0.000 N 
ATOM     29  C   UNK A   0      -6.274   0.789 131.681  0.00  0.00    +0.000 C 
ATOM     30  C   UNK A   0      -4.269   0.734 130.216  0.00  0.00    +0.000 C 
ENDBRANCH  19  26
ENDBRANCH   1  19
BRANCH   8  31
ATOM     31  CB  LEU A   1      -7.371  -1.135 128.192  0.00  0.00    +0.000 C 
BRANCH  31  32
ATOM     32  CG  LEU A   1      -7.973  -2.120 129.153  0.00  0.00    +0.000 C 
ATOM     33  CD1 LEU A   1      -8.365  -3.418 128.425  0.00  0.00    +0.000 C 
ATOM     34  CD2 LEU A   1      -6.917  -2.560 130.076  0.00  0.00    +0.000 C 
ENDBRANCH  31  32
ENDBRANCH   8  31
TORSDOF 6
ENDMDL
MODEL 3
REMARK VINA RESULT:      -8.0      1.960      2.718
REMARK  Name = CHEMBL408691
REMARK  11 active torsions:
REMARK  status: ('A' for Active; 'I' for Inactive)
REMARK    1  A    between atoms: C_1  and  C_2
REMARK    2  A    between atoms: C_4  and  C_5
REMARK    3  A    between atoms: C_5  and  C_6
REMARK    4  A    between atoms: C_5  and  N_11
REMARK    5  A    between atoms: N_8  and  C_9
REMARK    6  A    between atoms: N_8  and  C_10
REMARK    7  A    between atoms: C_14  and  C_15
REMARK    8  A    between atoms: CA_27  and  CB_28
REMARK    9  A    between atoms: CB_28  and  CG_29
REMARK   10  A    between atoms: CG_29  and  CD1_30
REMARK   11  A    between atoms: CG_29  and  CD2_31
REMARK                            x       y       z     vdW  Elec       q    Type
REMARK                         _______ _______ _______ _____ _____    ______ ____
ROOT
ATOM      1  N   LEU A   1      -7.135   2.698 127.755  0.00  0.00    +0.000 N 
ATOM      2  C   UNK A   2      -7.511   3.194 126.518  0.00  0.00    +0.000 C 
ATOM      3  O   UNK A   2      -8.079   4.225 126.361  0.00  0.00    +0.000 OA
ATOM      4  C   UNK A   2      -7.261   2.386 125.251  0.00  0.00    +0.000 C 
ATOM      5  N   UNK A   2      -5.926   1.919 125.356  0.00  0.00    +0.000 N 
ATOM      6  C   LEU A   1      -5.773   1.008 126.348  0.00  0.00    +0.000 C 
ATOM      7  O   LEU A   1      -5.046   0.048 126.127  0.00  0.00    +0.000 OA
ATOM      8  CA  LEU A   1      -6.547   1.346 127.673  0.00  0.00    +0.000 C 
ATOM      9  H   UNK A   2      -5.359   1.724 124.541  0.00  0.00    +0.000 HD
ENDROOT
BRANCH   4  10
ATOM     10  C   UNK A   2      -7.426   3.246 124.008  0.00  0.00    +0.000 C 
ATOM     11  C   UNK A   2      -6.162   3.316 123.115  0.00  0.00    +0.000 C 
ATOM     12  C   UNK A   2      -6.780   3.643 121.797  0.00  0.00    +0.000 A 
ATOM     13  C   UNK A   2      -6.132   4.118 120.673  0.00  0.00    +0.000 A 
ATOM     14  C   UNK A   2      -6.898   4.394 119.543  0.00  0.00    +0.000 A 
ATOM     15  C   UNK A   2      -8.281   4.154 119.538  0.00  0.00    +0.000 A 
ATOM     16  C   UNK A   2      -8.918   3.622 120.660  0.00  0.00    +0.000 A 
ATOM     17  C   UNK A   2      -8.155   3.378 121.787  0.00  0.00    +0.000 A 
ATOM     18  C   UNK A   2      -8.601   2.802 123.090  0.00  0.00    +0.000 C 
ENDBRANCH   4  10
BRANCH   1  19
ATOM     19  C   UNK A   0      -7.345   3.567 129.101  0.00  0.00    +0.000 C 
BRANCH  19  23
ATOM     20  C   UNK A   0     -10.518   7.770 129.389  0.00  0.00    +0.000 C 
ATOM     21  C   UNK A   0     -10.089   6.281 129.397  0.00  0.00    +0.000 A 
ATOM     22  N   UNK A   0      -9.097   5.662 128.742  0.00  0.00    +0.000 NA
ATOM     23  C   UNK A   0      -8.781   4.354 129.322  0.00  0.00    +0.000 A 
ATOM     24  C   UNK A   0      -9.832   3.948 130.125  0.00  0.00    +0.000 A 
ATOM     25  S   UNK A   0     -10.890   5.245 130.517  0.00  0.00    +0.000 S 
ENDBRANCH  19  23
BRANCH  19  26
ATOM     26  C   UNK A   0      -6.148   4.589 129.096  0.00  0.00    +0.000 C 
ATOM     27  O   UNK A   0      -5.593   4.896 128.031  0.00  0.00    +0.000 OA
ATOM     28  N   UNK A   0      -5.582   5.025 130.302  0.00  0.00    +0.000 N 
ATOM     29  C   UNK A   0      -6.158   4.860 131.653  0.00  0.00    +0.000 C 
ATOM     30  C   UNK A   0      -4.182   5.424 130.259  0.00  0.00    +0.000 C 
ENDBRANCH  19  26
ENDBRANCH   1  19
BRANCH   8  31
ATOM     31  CB  LEU A   1      -5.538   1.274 128.750  0.00  0.00    +0.000 C 
BRANCH  31  32
ATOM     32  CG  LEU A   1      -5.715   0.309 129.887  0.00  0.00    +0.000 C 
ATOM     33  CD1 LEU A   1      -4.648  -0.799 129.830  0.00  0.00    +0.000 C 
ATOM     34  CD2 LEU A   1      -5.398   1.014 131.137  0.00  0.00    +0.000 C 
ENDBRANCH  31  32
ENDBRANCH   8  31
TORSDOF 6
ENDMDL
MODEL 4
REMARK VINA RESULT:      -7.8      3.892      6.934
REMARK  Name = CHEMBL408691
REMARK  11 active torsions:
REMARK  status: ('A' for Active; 'I' for Inactive)
REMARK    1  A    between atoms: C_1  and  C_2
REMARK    2  A    between atoms: C_4  and  C_5
REMARK    3  A    between atoms: C_5  and  C_6
REMARK    4  A    between atoms: C_5  and  N_11
REMARK    5  A    between atoms: N_8  and  C_9
REMARK    6  A    between atoms: N_8  and  C_10
REMARK    7  A    between atoms: C_14  and  C_15
REMARK    8  A    between atoms: CA_27  and  CB_28
REMARK    9  A    between atoms: CB_28  and  CG_29
REMARK   10  A    between atoms: CG_29  and  CD1_30
REMARK   11  A    between atoms: CG_29  and  CD2_31
REMARK                            x       y       z     vdW  Elec       q    Type
REMARK                         _______ _______ _______ _____ _____    ______ ____
ROOT
ATOM      1  N   LEU A   1      -6.742   3.742 131.289  0.00  0.00    +0.000 N 
ATOM      2  C   UNK A   2      -7.535   4.565 130.505  0.00  0.00    +0.000 C 
ATOM      3  O   UNK A   2      -7.319   4.801 129.362  0.00  0.00    +0.000 OA
ATOM      4  C   UNK A   2      -8.734   5.287 131.106  0.00  0.00    +0.000 C 
ATOM      5  N   UNK A   2      -9.418   4.310 131.875  0.00  0.00    +0.000 N 
ATOM      6  C   LEU A   1      -8.709   3.916 132.961  0.00  0.00    +0.000 C 
ATOM      7  O   LEU A   1      -9.325   3.738 134.004  0.00  0.00    +0.000 OA
ATOM      8  CA  LEU A   1      -7.173   3.713 132.702  0.00  0.00    +0.000 C 
ATOM      9  H   UNK A   2     -10.415   4.360 132.042  0.00  0.00    +0.000 HD
ENDROOT
BRANCH   4  10
ATOM     10  C   UNK A   2      -9.644   5.841 130.021  0.00  0.00    +0.000 C 
ATOM     11  C   UNK A   2     -11.113   5.360 130.122  0.00  0.00    +0.000 C 
ATOM     12  C   UNK A   2     -11.810   6.471 129.409  0.00  0.00    +0.000 A 
ATOM     13  C   UNK A   2     -13.103   6.462 128.923  0.00  0.00    +0.000 A 
ATOM     14  C   UNK A   2     -13.560   7.596 128.255  0.00  0.00    +0.000 A 
ATOM     15  C   UNK A   2     -12.740   8.728 128.121  0.00  0.00    +0.000 A 
ATOM     16  C   UNK A   2     -11.455   8.748 128.664  0.00  0.00    +0.000 A 
ATOM     17  C   UNK A   2     -11.000   7.609 129.301  0.00  0.00    +0.000 A 
ATOM     18  C   UNK A   2      -9.681   7.395 129.968  0.00  0.00    +0.000 C 
ENDBRANCH   4  10
BRANCH   1  19
ATOM     19  C   UNK A   0      -5.500   2.929 130.653  0.00  0.00    +0.000 C 
BRANCH  19  23
ATOM     20  C   UNK A   0      -1.963   3.189 126.749  0.00  0.00    +0.000 C 
ATOM     21  C   UNK A   0      -2.991   3.677 127.802  0.00  0.00    +0.000 A 
ATOM     22  N   UNK A   0      -4.076   3.068 128.299  0.00  0.00    +0.000 NA
ATOM     23  C   UNK A   0      -4.539   3.688 129.543  0.00  0.00    +0.000 A 
ATOM     24  C   UNK A   0      -3.981   4.949 129.657  0.00  0.00    +0.000 A 
ATOM     25  S   UNK A   0      -2.648   5.168 128.594  0.00  0.00    +0.000 S 
ENDBRANCH  19  23
BRANCH  19  26
ATOM     26  C   UNK A   0      -6.154   1.641 130.030  0.00  0.00    +0.000 C 
ATOM     27  O   UNK A   0      -7.288   1.694 129.534  0.00  0.00    +0.000 OA
ATOM     28  N   UNK A   0      -5.544   0.388 130.188  0.00  0.00    +0.000 N 
ATOM     29  C   UNK A   0      -4.163   0.136 130.647  0.00  0.00    +0.000 C 
ATOM     30  C   UNK A   0      -6.424  -0.773 130.169  0.00  0.00    +0.000 C 
ENDBRANCH  19  26
ENDBRANCH   1  19
BRANCH   8  31
ATOM     31  CB  LEU A   1      -6.865   2.354 133.193  0.00  0.00    +0.000 C 
BRANCH  31  32
ATOM     32  CG  LEU A   1      -6.019   2.170 134.421  0.00  0.00    +0.000 C 
ATOM     33  CD1 LEU A   1      -4.593   1.735 134.037  0.00  0.00    +0.000 C 
ATOM     34  CD2 LEU A   1      -5.812   3.491 135.033  0.00  0.00    +0.000 C 
ENDBRANCH  31  32
ENDBRANCH   8  31
TORSDOF 6
ENDMDL
MODEL 5
REMARK VINA RESULT:      -7.5      3.326      7.185
REMARK  Name = CHEMBL408691
REMARK  11 active torsions:
REMARK  status: ('A' for Active; 'I' for Inactive)
REMARK    1  A    between atoms: C_1  and  C_2
REMARK    2  A    between atoms: C_4  and  C_5
REMARK    3  A    between atoms: C_5  and  C_6
REMARK    4  A    between atoms: C_5  and  N_11
REMARK    5  A    between atoms: N_8  and  C_9
REMARK    6  A    between atoms: N_8  and  C_10
REMARK    7  A    between atoms: C_14  and  C_15
REMARK    8  A    between atoms: CA_27  and  CB_28
REMARK    9  A    between atoms: CB_28  and  CG_29
REMARK   10  A    between atoms: CG_29  and  CD1_30
REMARK   11  A    between atoms: CG_29  and  CD2_31
REMARK                            x       y       z     vdW  Elec       q    Type
REMARK                         _______ _______ _______ _____ _____    ______ ____
ROOT
ATOM      1  N   LEU A   1      -5.793   4.383 128.721  0.00  0.00    +0.000 N 
ATOM      2  C   UNK A   2      -5.267   5.182 129.723  0.00  0.00    +0.000 C 
ATOM      3  O   UNK A   2      -5.841   5.452 130.726  0.00  0.00    +0.000 OA
ATOM      4  C   UNK A   2      -3.899   5.830 129.558  0.00  0.00    +0.000 C 
ATOM      5  N   UNK A   2      -3.050   4.805 129.067  0.00  0.00    +0.000 N 
ATOM      6  C   LEU A   1      -3.373   4.423 127.807  0.00  0.00    +0.000 C 
ATOM      7  O   LEU A   1      -2.454   4.194 127.033  0.00  0.00    +0.000 OA
ATOM      8  CA  LEU A   1      -4.916   4.302 127.535  0.00  0.00    +0.000 C 
ATOM      9  H   UNK A   2      -2.053   4.802 129.245  0.00  0.00    +0.000 HD
ENDROOT
BRANCH   4  10
ATOM     10  C   UNK A   2      -3.378   6.362 130.884  0.00  0.00    +0.000 C 
ATOM     11  C   UNK A   2      -1.911   5.967 131.191  0.00  0.00    +0.000 C 
ATOM     12  C   UNK A   2      -1.525   7.065 132.124  0.00  0.00    +0.000 A 
ATOM     13  C   UNK A   2      -0.428   7.093 132.963  0.00  0.00    +0.000 A 
ATOM     14  C   UNK A   2      -0.261   8.205 133.785  0.00  0.00    +0.000 A 
ATOM     15  C   UNK A   2      -1.160   9.281 133.728  0.00  0.00    +0.000 A 
ATOM     16  C   UNK A   2      -2.235   9.268 132.838  0.00  0.00    +0.000 A 
ATOM     17  C   UNK A   2      -2.410   8.149 132.046  0.00  0.00    +0.000 A 
ATOM     18  C   UNK A   2      -3.465   7.909 131.017  0.00  0.00    +0.000 C 
ENDBRANCH   4  10
BRANCH   1  19
ATOM     19  C   UNK A   0      -7.219   3.645 128.905  0.00  0.00    +0.000 C 
BRANCH  19  23
ATOM     20  C   UNK A   0     -10.343   7.883 129.215  0.00  0.00    +0.000 C 
ATOM     21  C   UNK A   0      -9.826   6.447 129.484  0.00  0.00    +0.000 A 
ATOM     22  N   UNK A   0      -9.133   5.614 128.694  0.00  0.00    +0.000 NA
ATOM     23  C   UNK A   0      -8.505   4.528 129.451  0.00  0.00    +0.000 A 
ATOM     24  C   UNK A   0      -9.107   4.433 130.693  0.00  0.00    +0.000 A 
ATOM     25  S   UNK A   0     -10.021   5.835 131.082  0.00  0.00    +0.000 S 
ENDBRANCH  19  23
BRANCH  19  26
ATOM     26  C   UNK A   0      -6.916   2.448 129.879  0.00  0.00    +0.000 C 
ATOM     27  O   UNK A   0      -6.316   2.645 130.945  0.00  0.00    +0.000 OA
ATOM     28  N   UNK A   0      -7.158   1.127 129.476  0.00  0.00    +0.000 N 
ATOM     29  C   UNK A   0      -7.953   0.696 128.307  0.00  0.00    +0.000 C 
ATOM     30  C   UNK A   0      -6.332   0.096 130.090  0.00  0.00    +0.000 C 
ENDBRANCH  19  26
ENDBRANCH   1  19
BRANCH   8  31
ATOM     31  CB  LEU A   1      -5.113   2.950 126.973  0.00  0.00    +0.000 C 
BRANCH  31  32
ATOM     32  CG  LEU A   1      -5.246   2.763 125.489  0.00  0.00    +0.000 C 
ATOM     33  CD1 LEU A   1      -6.478   1.901 125.158  0.00  0.00    +0.000 C 
ATOM     34  CD2 LEU A   1      -5.580   4.065 124.894  0.00  0.00    +0.000 C 
ENDBRANCH  31  32
ENDBRANCH   8  31
TORSDOF 6
ENDMDL
MODEL 6
REMARK VINA RESULT:      -7.4      3.362      4.307
REMARK  Name = CHEMBL408691
REMARK  11 active torsions:
REMARK  status: ('A' for Active; 'I' for Inactive)
REMARK    1  A    between atoms: C_1  and  C_2
REMARK    2  A    between atoms: C_4  and  C_5
REMARK    3  A    between atoms: C_5  and  C_6
REMARK    4  A    between atoms: C_5  and  N_11
REMARK    5  A    between atoms: N_8  and  C_9
REMARK    6  A    between atoms: N_8  and  C_10
REMARK    7  A    between atoms: C_14  and  C_15
REMARK    8  A    between atoms: CA_27  and  CB_28
REMARK    9  A    between atoms: CB_28  and  CG_29
REMARK   10  A    between atoms: CG_29  and  CD1_30
REMARK   11  A    between atoms: CG_29  and  CD2_31
REMARK                            x       y       z     vdW  Elec       q    Type
REMARK                         _______ _______ _______ _____ _____    ______ ____
ROOT
ATOM      1  N   LEU A   1      -6.957   2.060 129.525  0.00  0.00    +0.000 N 
ATOM      2  C   UNK A   2      -7.714   1.443 128.542  0.00  0.00    +0.000 C 
ATOM      3  O   UNK A   2      -8.576   1.985 127.930  0.00  0.00    +0.000 OA
ATOM      4  C   UNK A   2      -7.518  -0.034 128.226  0.00  0.00    +0.000 C 
ATOM      5  N   UNK A   2      -6.114  -0.220 128.141  0.00  0.00    +0.000 N 
ATOM      6  C   LEU A   1      -5.497  -0.068 129.338  0.00  0.00    +0.000 C 
ATOM      7  O   LEU A   1      -4.589  -0.843 129.609  0.00  0.00    +0.000 OA
ATOM      8  CA  LEU A   1      -6.036   1.127 130.205  0.00  0.00    +0.000 C 
ATOM      9  H   UNK A   2      -5.702  -0.944 127.565  0.00  0.00    +0.000 HD
ENDROOT
BRANCH   4  10
ATOM     10  C   UNK A   2      -8.184  -0.409 126.912  0.00  0.00    +0.000 C 
ATOM     11  C   UNK A   2      -7.317  -0.126 125.660  0.00  0.00    +0.000 C 
ATOM     12  C   UNK A   2      -7.903  -1.104 124.697  0.00  0.00    +0.000 A 
ATOM     13  C   UNK A   2      -7.739  -1.118 123.326  0.00  0.00    +0.000 A 
ATOM     14  C   UNK A   2      -8.401  -2.104 122.597  0.00  0.00    +0.000 A 
ATOM     15  C   UNK A   2      -9.175  -3.078 123.247  0.00  0.00    +0.000 A 
ATOM     16  C   UNK A   2      -9.290  -3.089 124.638  0.00  0.00    +0.000 A 
ATOM     17  C   UNK A   2      -8.653  -2.091 125.351  0.00  0.00    +0.000 A 
ATOM     18  C   UNK A   2      -8.616  -1.901 126.832  0.00  0.00    +0.000 C 
ENDBRANCH   4  10
BRANCH   1  19
ATOM     19  C   UNK A   0      -7.118   3.638 129.833  0.00  0.00    +0.000 C 
BRANCH  19  23
ATOM     20  C   UNK A   0     -10.553   7.498 128.780  0.00  0.00    +0.000 C 
ATOM     21  C   UNK A   0     -10.038   6.093 129.184  0.00  0.00    +0.000 A 
ATOM     22  N   UNK A   0      -8.935   5.433 128.804  0.00  0.00    +0.000 NA
ATOM     23  C   UNK A   0      -8.615   4.323 129.706  0.00  0.00    +0.000 A 
ATOM     24  C   UNK A   0      -9.732   4.018 130.464  0.00  0.00    +0.000 A 
ATOM     25  S   UNK A   0     -10.908   5.271 130.423  0.00  0.00    +0.000 S 
ENDBRANCH  19  23
BRANCH  19  26
ATOM     26  C   UNK A   0      -6.105   4.332 128.849  0.00  0.00    +0.000 C 
ATOM     27  O   UNK A   0      -5.955   3.899 127.698  0.00  0.00    +0.000 OA
ATOM     28  N   UNK A   0      -5.236   5.329 129.314  0.00  0.00    +0.000 N 
ATOM     29  C   UNK A   0      -5.330   6.047 130.601  0.00  0.00    +0.000 C 
ATOM     30  C   UNK A   0      -3.975   5.479 128.599  0.00  0.00    +0.000 C 
ENDBRANCH  19  26
ENDBRANCH   1  19
BRANCH   8  31
ATOM     31  CB  LEU A   1      -4.844   1.922 130.566  0.00  0.00    +0.000 C 
BRANCH  31  32
ATOM     32  CG  LEU A   1      -4.507   2.162 132.009  0.00  0.00    +0.000 C 
ATOM     33  CD1 LEU A   1      -3.778   0.945 132.606  0.00  0.00    +0.000 C 
ATOM     34  CD2 LEU A   1      -3.491   3.223 132.069  0.00  0.00    +0.000 C 
ENDBRANCH  31  32
ENDBRANCH   8  31
TORSDOF 6
ENDMDL
MODEL 7
REMARK VINA RESULT:      -7.4      4.548      7.342
REMARK  Name = CHEMBL408691
REMARK  11 active torsions:
REMARK  status: ('A' for Active; 'I' for Inactive)
REMARK    1  A    between atoms: C_1  and  C_2
REMARK    2  A    between atoms: C_4  and  C_5
REMARK    3  A    between atoms: C_5  and  C_6
REMARK    4  A    between atoms: C_5  and  N_11
REMARK    5  A    between atoms: N_8  and  C_9
REMARK    6  A    between atoms: N_8  and  C_10
REMARK    7  A    between atoms: C_14  and  C_15
REMARK    8  A    between atoms: CA_27  and  CB_28
REMARK    9  A    between atoms: CB_28  and  CG_29
REMARK   10  A    between atoms: CG_29  and  CD1_30
REMARK   11  A    between atoms: CG_29  and  CD2_31
REMARK                            x       y       z     vdW  Elec       q    Type
REMARK                         _______ _______ _______ _____ _____    ______ ____
ROOT
ATOM      1  N   LEU A   1      -6.193   4.547 132.620  0.00  0.00    +0.000 N 
ATOM      2  C   UNK A   2      -7.076   5.035 131.669  0.00  0.00    +0.000 C 
ATOM      3  O   UNK A   2      -7.072   4.706 130.529  0.00  0.00    +0.000 OA
ATOM      4  C   UNK A   2      -8.095   6.105 132.037  0.00  0.00    +0.000 C 
ATOM      5  N   UNK A   2      -8.670   5.677 133.261  0.00  0.00    +0.000 N 
ATOM      6  C   LEU A   1      -7.788   5.713 134.290  0.00  0.00    +0.000 C 
ATOM      7  O   LEU A   1      -8.200   6.104 135.374  0.00  0.00    +0.000 OA
ATOM      8  CA  LEU A   1      -6.344   5.208 133.931  0.00  0.00    +0.000 C 
ATOM      9  H   UNK A   2      -9.613   5.931 133.530  0.00  0.00    +0.000 HD
ENDROOT
BRANCH   4  10
ATOM     10  C   UNK A   2      -9.166   6.238 130.965  0.00  0.00    +0.000 C 
ATOM     11  C   UNK A   2     -10.607   6.356 131.522  0.00  0.00    +0.000 C 
ATOM     12  C   UNK A   2     -11.276   7.063 130.391  0.00  0.00    +0.000 A 
ATOM     13  C   UNK A   2     -12.635   7.185 130.179  0.00  0.00    +0.000 A 
ATOM     14  C   UNK A   2     -13.062   7.862 129.039  0.00  0.00    +0.000 A 
ATOM     15  C   UNK A   2     -12.133   8.438 128.157  0.00  0.00    +0.000 A 
ATOM     16  C   UNK A   2     -10.763   8.356 128.409  0.00  0.00    +0.000 A 
ATOM     17  C   UNK A   2     -10.348   7.658 129.528  0.00  0.00    +0.000 A 
ATOM     18  C   UNK A   2      -8.951   7.448 130.012  0.00  0.00    +0.000 C 
ENDBRANCH   4  10
BRANCH   1  19
ATOM     19  C   UNK A   0      -5.144   3.374 132.257  0.00  0.00    +0.000 C 
BRANCH  19  23
ATOM     20  C   UNK A   0      -2.594   5.759 128.304  0.00  0.00    +0.000 C 
ATOM     21  C   UNK A   0      -3.202   4.607 129.144  0.00  0.00    +0.000 A 
ATOM     22  N   UNK A   0      -3.378   4.500 130.468  0.00  0.00    +0.000 NA
ATOM     23  C   UNK A   0      -4.336   3.448 130.817  0.00  0.00    +0.000 A 
ATOM     24  C   UNK A   0      -4.498   2.605 129.733  0.00  0.00    +0.000 A 
ATOM     25  S   UNK A   0      -3.910   3.299 128.274  0.00  0.00    +0.000 S 
ENDBRANCH  19  23
BRANCH  19  26
ATOM     26  C   UNK A   0      -5.990   2.050 132.349  0.00  0.00    +0.000 C 
ATOM     27  O   UNK A   0      -7.207   2.069 132.119  0.00  0.00    +0.000 OA
ATOM     28  N   UNK A   0      -5.418   0.878 132.864  0.00  0.00    +0.000 N 
ATOM     29  C   UNK A   0      -3.980   0.627 133.088  0.00  0.00    +0.000 C 
ATOM     30  C   UNK A   0      -6.329  -0.071 133.491  0.00  0.00    +0.000 C 
ENDBRANCH  19  26
ENDBRANCH   1  19
BRANCH   8  31
ATOM     31  CB  LEU A   1      -6.022   4.182 134.944  0.00  0.00    +0.000 C 
BRANCH  31  32
ATOM     32  CG  LEU A   1      -4.887   4.399 135.904  0.00  0.00    +0.000 C 
ATOM     33  CD1 LEU A   1      -3.841   3.278 135.770  0.00  0.00    +0.000 C 
ATOM     34  CD2 LEU A   1      -4.151   5.597 135.473  0.00  0.00    +0.000 C 
ENDBRANCH  31  32
ENDBRANCH   8  31
TORSDOF 6
ENDMDL
MODEL 8
REMARK VINA RESULT:      -7.3      2.984      6.951
REMARK  Name = CHEMBL408691
REMARK  11 active torsions:
REMARK  status: ('A' for Active; 'I' for Inactive)
REMARK    1  A    between atoms: C_1  and  C_2
REMARK    2  A    between atoms: C_4  and  C_5
REMARK    3  A    between atoms: C_5  and  C_6
REMARK    4  A    between atoms: C_5  and  N_11
REMARK    5  A    between atoms: N_8  and  C_9
REMARK    6  A    between atoms: N_8  and  C_10
REMARK    7  A    between atoms: C_14  and  C_15
REMARK    8  A    between atoms: CA_27  and  CB_28
REMARK    9  A    between atoms: CB_28  and  CG_29
REMARK   10  A    between atoms: CG_29  and  CD1_30
REMARK   11  A    between atoms: CG_29  and  CD2_31
REMARK                            x       y       z     vdW  Elec       q    Type
REMARK                         _______ _______ _______ _____ _____    ______ ____
ROOT
ATOM      1  N   LEU A   1      -7.375   3.125 129.848  0.00  0.00    +0.000 N 
ATOM      2  C   UNK A   2      -7.888   4.403 130.007  0.00  0.00    +0.000 C 
ATOM      3  O   UNK A   2      -7.478   5.358 129.433  0.00  0.00    +0.000 OA
ATOM      4  C   UNK A   2      -9.004   4.671 131.008  0.00  0.00    +0.000 C 
ATOM      5  N   UNK A   2      -9.955   3.638 130.802  0.00  0.00    +0.000 N 
ATOM      6  C   LEU A   1      -9.486   2.421 131.169  0.00  0.00    +0.000 C 
ATOM      7  O   LEU A   1     -10.259   1.666 131.743  0.00  0.00    +0.000 OA
ATOM      8  CA  LEU A   1      -7.992   2.145 130.765  0.00  0.00    +0.000 C 
ATOM      9  H   UNK A   2     -10.939   3.767 131.001  0.00  0.00    +0.000 HD
ENDROOT
BRANCH   4  10
ATOM     10  C   UNK A   2      -9.639   6.032 130.774  0.00  0.00    +0.000 C 
ATOM     11  C   UNK A   2      -9.916   6.352 129.283  0.00  0.00    +0.000 C 
ATOM     12  C   UNK A   2     -11.021   7.346 129.421  0.00  0.00    +0.000 A 
ATOM     13  C   UNK A   2     -11.486   8.209 128.448  0.00  0.00    +0.000 A 
ATOM     14  C   UNK A   2     -12.512   9.088 128.788  0.00  0.00    +0.000 A 
ATOM     15  C   UNK A   2     -13.082   9.062 130.071  0.00  0.00    +0.000 A 
ATOM     16  C   UNK A   2     -12.643   8.149 131.030  0.00  0.00    +0.000 A 
ATOM     17  C   UNK A   2     -11.606   7.300 130.693  0.00  0.00    +0.000 A 
ATOM     18  C   UNK A   2     -10.980   6.237 131.535  0.00  0.00    +0.000 C 
ENDBRANCH   4  10
BRANCH   1  19
ATOM     19  C   UNK A   0      -6.229   2.817 128.752  0.00  0.00    +0.000 C 
BRANCH  19  23
ATOM     20  C   UNK A   0      -2.594   6.263 130.403  0.00  0.00    +0.000 C 
ATOM     21  C   UNK A   0      -3.405   5.377 129.423  0.00  0.00    +0.000 A 
ATOM     22  N   UNK A   0      -4.010   4.198 129.620  0.00  0.00    +0.000 NA
ATOM     23  C   UNK A   0      -4.990   3.895 128.574  0.00  0.00    +0.000 A 
ATOM     24  C   UNK A   0      -4.750   4.706 127.479  0.00  0.00    +0.000 A 
ATOM     25  S   UNK A   0      -3.733   6.037 127.866  0.00  0.00    +0.000 S 
ENDBRANCH  19  23
BRANCH  19  26
ATOM     26  C   UNK A   0      -7.017   2.651 127.400  0.00  0.00    +0.000 C 
ATOM     27  O   UNK A   0      -8.116   3.203 127.245  0.00  0.00    +0.000 OA
ATOM     28  N   UNK A   0      -6.577   1.739 126.431  0.00  0.00    +0.000 N 
ATOM     29  C   UNK A   0      -5.257   1.076 126.382  0.00  0.00    +0.000 C 
ATOM     30  C   UNK A   0      -7.595   1.179 125.552  0.00  0.00    +0.000 C 
ENDBRANCH  19  26
ENDBRANCH   1  19
BRANCH   8  31
ATOM     31  CB  LEU A   1      -8.010   0.860 130.036  0.00  0.00    +0.000 C 
BRANCH  31  32
ATOM     32  CG  LEU A   1      -7.107  -0.261 130.462  0.00  0.00    +0.000 C 
ATOM     33  CD1 LEU A   1      -7.918  -1.390 131.124  0.00  0.00    +0.000 C 
ATOM     34  CD2 LEU A   1      -6.572  -0.900 129.251  0.00  0.00    +0.000 C 
ENDBRANCH  31  32
ENDBRANCH   8  31
TORSDOF 6
ENDMDL
MODEL 9
REMARK VINA RESULT:      -7.3      4.763      6.297
REMARK  Name = CHEMBL408691
REMARK  11 active torsions:
REMARK  status: ('A' for Active; 'I' for Inactive)
REMARK    1  A    between atoms: C_1  and  C_2
REMARK    2  A    between atoms: C_4  and  C_5
REMARK    3  A    between atoms: C_5  and  C_6
REMARK    4  A    between atoms: C_5  and  N_11
REMARK    5  A    between atoms: N_8  and  C_9
REMARK    6  A    between atoms: N_8  and  C_10
REMARK    7  A    between atoms: C_14  and  C_15
REMARK    8  A    between atoms: CA_27  and  CB_28
REMARK    9  A    between atoms: CB_28  and  CG_29
REMARK   10  A    between atoms: CG_29  and  CD1_30
REMARK   11  A    between atoms: CG_29  and  CD2_31
REMARK                            x       y       z     vdW  Elec       q    Type
REMARK                         _______ _______ _______ _____ _____    ______ ____
ROOT
ATOM      1  N   LEU A   1      -7.102  -1.532 131.155  0.00  0.00    +0.000 N 
ATOM      2  C   UNK A   2      -7.335  -1.295 129.810  0.00  0.00    +0.000 C 
ATOM      3  O   UNK A   2      -7.556  -0.221 129.354  0.00  0.00    +0.000 OA
ATOM      4  C   UNK A   2      -7.384  -2.449 128.818  0.00  0.00    +0.000 C 
ATOM      5  N   UNK A   2      -6.260  -3.259 129.123  0.00  0.00    +0.000 N 
ATOM      6  C   LEU A   1      -6.375  -3.872 130.326  0.00  0.00    +0.000 C 
ATOM      7  O   LEU A   1      -5.991  -5.031 130.409  0.00  0.00    +0.000 OA
ATOM      8  CA  LEU A   1      -6.970  -2.969 131.467  0.00  0.00    +0.000 C 
ATOM      9  H   UNK A   2      -5.804  -3.831 128.422  0.00  0.00    +0.000 HD
ENDROOT
BRANCH   4  10
ATOM     10  C   UNK A   2      -7.303  -1.947 127.384  0.00  0.00    +0.000 C 
ATOM     11  C   UNK A   2      -5.938  -2.207 126.699  0.00  0.00    +0.000 C 
ATOM     12  C   UNK A   2      -6.351  -2.206 125.265  0.00  0.00    +0.000 A 
ATOM     13  C   UNK A   2      -5.524  -2.097 124.165  0.00  0.00    +0.000 A 
ATOM     14  C   UNK A   2      -6.111  -2.084 122.902  0.00  0.00    +0.000 A 
ATOM     15  C   UNK A   2      -7.501  -2.221 122.757  0.00  0.00    +0.000 A 
ATOM     16  C   UNK A   2      -8.323  -2.386 123.872  0.00  0.00    +0.000 A 
ATOM     17  C   UNK A   2      -7.735  -2.369 125.122  0.00  0.00    +0.000 A 
ATOM     18  C   UNK A   2      -8.396  -2.540 126.450  0.00  0.00    +0.000 C 
ENDBRANCH   4  10
BRANCH   1  19
ATOM     19  C   UNK A   0      -6.994  -0.312 132.210  0.00  0.00    +0.000 C 
BRANCH  19  23
ATOM     20  C   UNK A   0      -7.880   4.885 132.070  0.00  0.00    +0.000 C 
ATOM     21  C   UNK A   0      -8.148   3.368 131.892  0.00  0.00    +0.000 A 
ATOM     22  N   UNK A   0      -7.299   2.364 131.635  0.00  0.00    +0.000 NA
ATOM     23  C   UNK A   0      -7.882   1.054 131.937  0.00  0.00    +0.000 A 
ATOM     24  C   UNK A   0      -9.257   1.180 132.031  0.00  0.00    +0.000 A 
ATOM     25  S   UNK A   0      -9.749   2.817 132.209  0.00  0.00    +0.000 S 
ENDBRANCH  19  23
BRANCH  19  26
ATOM     26  C   UNK A   0      -5.458   0.026 132.259  0.00  0.00    +0.000 C 
ATOM     27  O   UNK A   0      -4.776  -0.011 131.225  0.00  0.00    +0.000 OA
ATOM     28  N   UNK A   0      -4.809   0.196 133.491  0.00  0.00    +0.000 N 
ATOM     29  C   UNK A   0      -5.455   0.382 134.806  0.00  0.00    +0.000 C 
ATOM     30  C   UNK A   0      -3.386  -0.112 133.525  0.00  0.00    +0.000 C 
ENDBRANCH  19  26
ENDBRANCH   1  19
BRANCH   8  31
ATOM     31  CB  LEU A   1      -6.006  -3.057 132.583  0.00  0.00    +0.000 C 
BRANCH  31  32
ATOM     32  CG  LEU A   1      -6.449  -3.574 133.922  0.00  0.00    +0.000 C 
ATOM     33  CD1 LEU A   1      -7.983  -3.518 134.045  0.00  0.00    +0.000 C 
ATOM     34  CD2 LEU A   1      -6.162  -5.015 133.971  0.00  0.00    +0.000 C 
ENDBRANCH  31  32
ENDBRANCH   8  31
TORSDOF 6
ENDMDL
