MODEL 1
REMARK VINA RESULT:      -9.7      0.000      0.000
REMARK  Name = CHEMBL457544
REMARK  10 active torsions:
REMARK  status: ('A' for Active; 'I' for Inactive)
REMARK    1  A    between atoms: C_1  and  O_2
REMARK    2  A    between atoms: O_2  and  C_3
REMARK    3  A    between atoms: C_6  and  S_7
REMARK    4  A    between atoms: S_7  and  N_10
REMARK    5  A    between atoms: N_10  and  C_11
REMARK    6  A    between atoms: N_10  and  C_25
REMARK    7  A    between atoms: C_11  and  C_12
REMARK    8  A    between atoms: C_15  and  C_16
REMARK    9  A    between atoms: C_28  and  O_29
REMARK   10  A    between atoms: O_29  and  C_30
REMARK                            x       y       z     vdW  Elec       q    Type
REMARK                         _______ _______ _______ _____ _____    ______ ____
ROOT
ATOM      1  N   UNL     1      -7.309   1.611 127.372  0.00  0.00    +0.000 N 
ENDROOT
BRANCH   1   2
ATOM      2  C   UNL     1      -7.794   0.795 126.274  0.00  0.00    +0.000 A 
ATOM      3  C   UNL     1      -6.968   0.315 125.269  0.00  0.00    +0.000 A 
ATOM      4  C   UNL     1      -7.522  -0.424 124.223  0.00  0.00    +0.000 A 
ATOM      5  C   UNL     1      -8.881  -0.708 124.217  0.00  0.00    +0.000 A 
ATOM      6  N   UNL     1      -9.699  -0.301 125.212  0.00  0.00    +0.000 NA
ATOM      7  C   UNL     1      -9.140   0.440 126.200  0.00  0.00    +0.000 A 
BRANCH   5   8
ATOM      8  O   UNL     1      -9.503  -1.426 123.228  0.00  0.00    +0.000 OA
ATOM      9  C   UNL     1      -9.116  -2.795 123.110  0.00  0.00    +0.000 C 
ENDBRANCH   5   8
ENDBRANCH   1   2
BRANCH   1  10
ATOM     10  S   UNL     1      -6.065   0.861 128.317  0.00  0.00    +0.000 S 
ATOM     11  O   UNL     1      -6.208   1.230 129.707  0.00  0.00    +0.000 OA
ATOM     12  O   UNL     1      -4.814   1.105 127.616  0.00  0.00    +0.000 OA
BRANCH  10  16
ATOM     13  C   UNL     1      -5.597  -3.936 130.231  0.00  0.00    +0.000 A 
ATOM     14  C   UNL     1      -7.102  -2.894 130.227  0.00  0.00    +0.000 A 
ATOM     15  C   UNL     1      -7.356  -1.490 129.282  0.00  0.00    +0.000 A 
ATOM     16  C   UNL     1      -6.303  -0.883 128.391  0.00  0.00    +0.000 A 
ATOM     17  C   UNL     1      -4.936  -1.676 128.152  0.00  0.00    +0.000 A 
ATOM     18  C   UNL     1      -4.198  -3.316 129.107  0.00  0.00    +0.000 A 
BRANCH  13  20
ATOM     19  C   UNL     1      -5.287  -5.129 131.989  0.00  0.00    +0.000 C 
ATOM     20  O   UNL     1      -5.900  -5.125 130.760  0.00  0.00    +0.000 OA
ENDBRANCH  13  20
ENDBRANCH  10  16
ENDBRANCH   1  10
BRANCH   1  21
ATOM     21  C   UNL     1      -7.933   3.020 127.395  0.00  0.00    +0.000 C 
BRANCH  21  22
ATOM     22  C   UNL     1      -7.789   4.165 126.238  0.00  0.00    +0.000 A 
ATOM     23  C   UNL     1      -6.061   4.461 126.227  0.00  0.00    +0.000 A 
ATOM     24  C   UNL     1      -5.177   3.936 124.792  0.00  0.00    +0.000 A 
ATOM     25  C   UNL     1      -6.252   3.184 123.151  0.00  0.00    +0.000 A 
ATOM     26  C   UNL     1      -8.061   3.198 123.390  0.00  0.00    +0.000 A 
ATOM     27  N   UNL     1      -8.784   3.710 124.865  0.00  0.00    +0.000 NA
BRANCH  25  28
ATOM     28  C   UNL     1      -6.323   3.638 121.514  0.00  0.00    +0.000 A 
ATOM     29  C   UNL     1      -7.455   3.740 120.613  0.00  0.00    +0.000 A 
ATOM     30  C   UNL     1      -7.192   4.400 119.398  0.00  0.00    +0.000 A 
ATOM     31  C   UNL     1      -6.036   5.182 119.210  0.00  0.00    +0.000 A 
ATOM     32  C   UNL     1      -5.073   5.231 120.153  0.00  0.00    +0.000 A 
ATOM     33  C   UNL     1      -5.183   4.351 121.160  0.00  0.00    +0.000 A 
ATOM     34  F   UNL     1      -4.217   4.597 122.017  0.00  0.00    +0.000 F 
ENDBRANCH  25  28
ENDBRANCH  21  22
ENDBRANCH   1  21
TORSDOF 8
ENDMDL
MODEL 2
REMARK VINA RESULT:      -9.2      5.270      8.296
REMARK  Name = CHEMBL457544
REMARK  10 active torsions:
REMARK  status: ('A' for Active; 'I' for Inactive)
REMARK    1  A    between atoms: C_1  and  O_2
REMARK    2  A    between atoms: O_2  and  C_3
REMARK    3  A    between atoms: C_6  and  S_7
REMARK    4  A    between atoms: S_7  and  N_10
REMARK    5  A    between atoms: N_10  and  C_11
REMARK    6  A    between atoms: N_10  and  C_25
REMARK    7  A    between atoms: C_11  and  C_12
REMARK    8  A    between atoms: C_15  and  C_16
REMARK    9  A    between atoms: C_28  and  O_29
REMARK   10  A    between atoms: O_29  and  C_30
REMARK                            x       y       z     vdW  Elec       q    Type
REMARK                         _______ _______ _______ _____ _____    ______ ____
ROOT
ATOM      1  N   UNL     1      -9.125   4.154 130.728  0.00  0.00    +0.000 N 
ENDROOT
BRANCH   1   2
ATOM      2  C   UNL     1      -9.922   5.307 130.352  0.00  0.00    +0.000 A 
ATOM      3  C   UNL     1      -9.365   6.492 129.894  0.00  0.00    +0.000 A 
ATOM      4  C   UNL     1     -10.199   7.570 129.598  0.00  0.00    +0.000 A 
ATOM      5  C   UNL     1     -11.576   7.437 129.722  0.00  0.00    +0.000 A 
ATOM      6  N   UNL     1     -12.149   6.278 130.113  0.00  0.00    +0.000 NA
ATOM      7  C   UNL     1     -11.313   5.255 130.422  0.00  0.00    +0.000 A 
BRANCH   5   8
ATOM      8  O   UNL     1     -12.464   8.446 129.452  0.00  0.00    +0.000 OA
ATOM      9  C   UNL     1     -13.298   8.258 128.309  0.00  0.00    +0.000 C 
ENDBRANCH   5   8
ENDBRANCH   1   2
BRANCH   1  10
ATOM     10  S   UNL     1      -8.409   4.270 132.304  0.00  0.00    +0.000 S 
ATOM     11  O   UNL     1      -8.142   2.949 132.825  0.00  0.00    +0.000 OA
ATOM     12  O   UNL     1      -9.228   5.207 133.057  0.00  0.00    +0.000 OA
BRANCH  10  16
ATOM     13  C   UNL     1      -4.111   6.017 129.989  0.00  0.00    +0.000 A 
ATOM     14  C   UNL     1      -5.366   7.012 130.876  0.00  0.00    +0.000 A 
ATOM     15  C   UNL     1      -6.563   6.410 131.941  0.00  0.00    +0.000 A 
ATOM     16  C   UNL     1      -6.785   4.944 132.203  0.00  0.00    +0.000 A 
ATOM     17  C   UNL     1      -5.742   3.883 131.618  0.00  0.00    +0.000 A 
ATOM     18  C   UNL     1      -4.238   4.143 130.269  0.00  0.00    +0.000 A 
BRANCH  13  20
ATOM     19  C   UNL     1      -3.155   6.762 128.216  0.00  0.00    +0.000 C 
ATOM     20  O   UNL     1      -3.126   6.827 129.588  0.00  0.00    +0.000 OA
ENDBRANCH  13  20
ENDBRANCH  10  16
ENDBRANCH   1  10
BRANCH   1  21
ATOM     21  C   UNL     1      -9.174   3.022 129.684  0.00  0.00    +0.000 C 
BRANCH  21  22
ATOM     22  C   UNL     1      -7.915   2.451 128.812  0.00  0.00    +0.000 A 
ATOM     23  C   UNL     1      -7.309   1.165 129.838  0.00  0.00    +0.000 A 
ATOM     24  C   UNL     1      -7.524  -0.485 129.250  0.00  0.00    +0.000 A 
ATOM     25  C   UNL     1      -8.297  -0.787 127.320  0.00  0.00    +0.000 A 
ATOM     26  C   UNL     1      -8.636   0.761 126.415  0.00  0.00    +0.000 A 
ATOM     27  N   UNL     1      -8.410   2.308 127.133  0.00  0.00    +0.000 NA
BRANCH  25  28
ATOM     28  C   UNL     1      -7.709  -1.619 125.960  0.00  0.00    +0.000 A 
ATOM     29  C   UNL     1      -6.359  -1.746 125.444  0.00  0.00    +0.000 A 
ATOM     30  C   UNL     1      -6.190  -2.727 124.448  0.00  0.00    +0.000 A 
ATOM     31  C   UNL     1      -7.160  -3.721 124.211  0.00  0.00    +0.000 A 
ATOM     32  C   UNL     1      -8.346  -3.697 124.851  0.00  0.00    +0.000 A 
ATOM     33  C   UNL     1      -8.621  -2.586 125.553  0.00  0.00    +0.000 A 
ATOM     34  F   UNL     1      -9.765  -2.773 126.171  0.00  0.00    +0.000 F 
ENDBRANCH  25  28
ENDBRANCH  21  22
ENDBRANCH   1  21
TORSDOF 8
ENDMDL
MODEL 3
REMARK VINA RESULT:      -9.1      6.688      9.377
REMARK  Name = CHEMBL457544
REMARK  10 active torsions:
REMARK  status: ('A' for Active; 'I' for Inactive)
REMARK    1  A    between atoms: C_1  and  O_2
REMARK    2  A    between atoms: O_2  and  C_3
REMARK    3  A    between atoms: C_6  and  S_7
REMARK    4  A    between atoms: S_7  and  N_10
REMARK    5  A    between atoms: N_10  and  C_11
REMARK    6  A    between atoms: N_10  and  C_25
REMARK    7  A    between atoms: C_11  and  C_12
REMARK    8  A    between atoms: C_15  and  C_16
REMARK    9  A    between atoms: C_28  and  O_29
REMARK   10  A    between atoms: O_29  and  C_30
REMARK                            x       y       z     vdW  Elec       q    Type
REMARK                         _______ _______ _______ _____ _____    ______ ____
ROOT
ATOM      1  N   UNL     1      -9.049   4.937 130.206  0.00  0.00    +0.000 N 
ENDROOT
BRANCH   1   2
ATOM      2  C   UNL     1      -9.939   6.055 129.951  0.00  0.00    +0.000 A 
ATOM      3  C   UNL     1     -10.760   6.603 130.925  0.00  0.00    +0.000 A 
ATOM      4  C   UNL     1     -11.621   7.647 130.584  0.00  0.00    +0.000 A 
ATOM      5  C   UNL     1     -11.620   8.156 129.292  0.00  0.00    +0.000 A 
ATOM      6  N   UNL     1     -10.791   7.678 128.339  0.00  0.00    +0.000 NA
ATOM      7  C   UNL     1      -9.986   6.644 128.688  0.00  0.00    +0.000 A 
BRANCH   5   8
ATOM      8  O   UNL     1     -12.434   9.178 128.877  0.00  0.00    +0.000 OA
ATOM      9  C   UNL     1     -13.047   9.949 129.910  0.00  0.00    +0.000 C 
ENDBRANCH   5   8
ENDBRANCH   1   2
BRANCH   1  10
ATOM     10  S   UNL     1      -9.821   3.386 130.134  0.00  0.00    +0.000 S 
ATOM     11  O   UNL     1      -9.301   2.626 129.020  0.00  0.00    +0.000 OA
ATOM     12  O   UNL     1     -11.249   3.633 130.255  0.00  0.00    +0.000 OA
BRANCH  10  16
ATOM     13  C   UNL     1      -6.543   0.952 133.331  0.00  0.00    +0.000 A 
ATOM     14  C   UNL     1      -7.554   2.431 133.708  0.00  0.00    +0.000 A 
ATOM     15  C   UNL     1      -8.888   3.000 132.799  0.00  0.00    +0.000 A 
ATOM     16  C   UNL     1      -9.335   2.384 131.500  0.00  0.00    +0.000 A 
ATOM     17  C   UNL     1      -8.667   1.014 131.017  0.00  0.00    +0.000 A 
ATOM     18  C   UNL     1      -7.030   0.040 131.738  0.00  0.00    +0.000 A 
BRANCH  13  20
ATOM     19  C   UNL     1      -5.980  -0.773 134.479  0.00  0.00    +0.000 C 
ATOM     20  O   UNL     1      -5.876   0.595 134.433  0.00  0.00    +0.000 OA
ENDBRANCH  13  20
ENDBRANCH  10  16
ENDBRANCH   1  10
BRANCH   1  21
ATOM     21  C   UNL     1      -7.579   5.366 130.382  0.00  0.00    +0.000 C 
BRANCH  21  22
ATOM     22  C   UNL     1      -7.035   6.623 131.273  0.00  0.00    +0.000 A 
ATOM     23  C   UNL     1      -6.705   5.864 132.818  0.00  0.00    +0.000 A 
ATOM     24  C   UNL     1      -5.009   5.738 133.292  0.00  0.00    +0.000 A 
ATOM     25  C   UNL     1      -3.546   6.653 132.096  0.00  0.00    +0.000 A 
ATOM     26  C   UNL     1      -4.227   7.551 130.660  0.00  0.00    +0.000 A 
ATOM     27  N   UNL     1      -5.910   7.559 130.302  0.00  0.00    +0.000 NA
BRANCH  25  28
ATOM     28  C   UNL     1      -2.344   7.810 132.427  0.00  0.00    +0.000 A 
ATOM     29  C   UNL     1      -2.440   9.116 133.051  0.00  0.00    +0.000 A 
ATOM     30  C   UNL     1      -1.209   9.698 133.409  0.00  0.00    +0.000 A 
ATOM     31  C   UNL     1      -0.019   8.947 133.465  0.00  0.00    +0.000 A 
ATOM     32  C   UNL     1       0.007   7.661 133.059  0.00  0.00    +0.000 A 
ATOM     33  C   UNL     1      -1.088   7.216 132.423  0.00  0.00    +0.000 A 
ATOM     34  F   UNL     1      -0.919   5.936 132.179  0.00  0.00    +0.000 F 
ENDBRANCH  25  28
ENDBRANCH  21  22
ENDBRANCH   1  21
TORSDOF 8
ENDMDL
MODEL 4
REMARK VINA RESULT:      -9.0      3.760      5.965
REMARK  Name = CHEMBL457544
REMARK  10 active torsions:
REMARK  status: ('A' for Active; 'I' for Inactive)
REMARK    1  A    between atoms: C_1  and  O_2
REMARK    2  A    between atoms: O_2  and  C_3
REMARK    3  A    between atoms: C_6  and  S_7
REMARK    4  A    between atoms: S_7  and  N_10
REMARK    5  A    between atoms: N_10  and  C_11
REMARK    6  A    between atoms: N_10  and  C_25
REMARK    7  A    between atoms: C_11  and  C_12
REMARK    8  A    between atoms: C_15  and  C_16
REMARK    9  A    between atoms: C_28  and  O_29
REMARK   10  A    between atoms: O_29  and  C_30
REMARK                            x       y       z     vdW  Elec       q    Type
REMARK                         _______ _______ _______ _____ _____    ______ ____
ROOT
ATOM      1  N   UNL     1      -6.949   3.365 129.451  0.00  0.00    +0.000 N 
ENDROOT
BRANCH   1   2
ATOM      2  C   UNL     1      -8.257   3.851 129.852  0.00  0.00    +0.000 A 
ATOM      3  C   UNL     1      -9.367   3.026 129.963  0.00  0.00    +0.000 A 
ATOM      4  C   UNL     1     -10.599   3.581 130.309  0.00  0.00    +0.000 A 
ATOM      5  C   UNL     1     -10.698   4.940 130.579  0.00  0.00    +0.000 A 
ATOM      6  N   UNL     1      -9.623   5.756 130.533  0.00  0.00    +0.000 NA
ATOM      7  C   UNL     1      -8.443   5.196 130.166  0.00  0.00    +0.000 A 
BRANCH   5   8
ATOM      8  O   UNL     1     -11.869   5.563 130.924  0.00  0.00    +0.000 OA
ATOM      9  C   UNL     1     -11.748   6.693 131.788  0.00  0.00    +0.000 C 
ENDBRANCH   5   8
ENDBRANCH   1   2
BRANCH   1  10
ATOM     10  S   UNL     1      -6.315   2.113 130.470  0.00  0.00    +0.000 S 
ATOM     11  O   UNL     1      -7.134   1.976 131.653  0.00  0.00    +0.000 OA
ATOM     12  O   UNL     1      -4.887   2.366 130.588  0.00  0.00    +0.000 OA
BRANCH  10  16
ATOM     13  C   UNL     1      -6.104  -3.055 130.111  0.00  0.00    +0.000 A 
ATOM     14  C   UNL     1      -7.607  -2.024 130.287  0.00  0.00    +0.000 A 
ATOM     15  C   UNL     1      -7.707  -0.334 130.033  0.00  0.00    +0.000 A 
ATOM     16  C   UNL     1      -6.517   0.533 129.718  0.00  0.00    +0.000 A 
ATOM     17  C   UNL     1      -5.108  -0.159 129.413  0.00  0.00    +0.000 A 
ATOM     18  C   UNL     1      -4.528  -2.095 129.663  0.00  0.00    +0.000 A 
BRANCH  13  20
ATOM     19  C   UNL     1      -5.597  -5.028 130.790  0.00  0.00    +0.000 C 
ATOM     20  O   UNL     1      -6.473  -4.334 129.992  0.00  0.00    +0.000 OA
ENDBRANCH  13  20
ENDBRANCH  10  16
ENDBRANCH   1  10
BRANCH   1  21
ATOM     21  C   UNL     1      -6.451   3.995 128.136  0.00  0.00    +0.000 C 
BRANCH  21  22
ATOM     22  C   UNL     1      -6.804   3.489 126.623  0.00  0.00    +0.000 A 
ATOM     23  C   UNL     1      -5.355   2.607 126.182  0.00  0.00    +0.000 A 
ATOM     24  C   UNL     1      -5.514   0.856 126.019  0.00  0.00    +0.000 A 
ATOM     25  C   UNL     1      -7.420  -0.014 126.172  0.00  0.00    +0.000 A 
ATOM     26  C   UNL     1      -8.761   1.197 126.425  0.00  0.00    +0.000 A 
ATOM     27  N   UNL     1      -8.451   2.881 126.600  0.00  0.00    +0.000 NA
BRANCH  25  28
ATOM     28  C   UNL     1      -8.322  -1.005 125.126  0.00  0.00    +0.000 A 
ATOM     29  C   UNL     1      -8.389  -1.031 123.676  0.00  0.00    +0.000 A 
ATOM     30  C   UNL     1      -9.035  -2.155 123.129  0.00  0.00    +0.000 A 
ATOM     31  C   UNL     1      -9.296  -3.309 123.894  0.00  0.00    +0.000 A 
ATOM     32  C   UNL     1      -9.043  -3.334 125.218  0.00  0.00    +0.000 A 
ATOM     33  C   UNL     1      -8.730  -2.158 125.785  0.00  0.00    +0.000 A 
ATOM     34  F   UNL     1      -8.436  -2.385 127.046  0.00  0.00    +0.000 F 
ENDBRANCH  25  28
ENDBRANCH  21  22
ENDBRANCH   1  21
TORSDOF 8
ENDMDL
MODEL 5
REMARK VINA RESULT:      -8.9      5.903      9.550
REMARK  Name = CHEMBL457544
REMARK  10 active torsions:
REMARK  status: ('A' for Active; 'I' for Inactive)
REMARK    1  A    between atoms: C_1  and  O_2
REMARK    2  A    between atoms: O_2  and  C_3
REMARK    3  A    between atoms: C_6  and  S_7
REMARK    4  A    between atoms: S_7  and  N_10
REMARK    5  A    between atoms: N_10  and  C_11
REMARK    6  A    between atoms: N_10  and  C_25
REMARK    7  A    between atoms: C_11  and  C_12
REMARK    8  A    between atoms: C_15  and  C_16
REMARK    9  A    between atoms: C_28  and  O_29
REMARK   10  A    between atoms: O_29  and  C_30
REMARK                            x       y       z     vdW  Elec       q    Type
REMARK                         _______ _______ _______ _____ _____    ______ ____
ROOT
ATOM      1  N   UNL     1      -6.751   5.192 131.436  0.00  0.00    +0.000 N 
ENDROOT
BRANCH   1   2
ATOM      2  C   UNL     1      -7.874   5.666 130.647  0.00  0.00    +0.000 A 
ATOM      3  C   UNL     1      -8.614   6.788 130.987  0.00  0.00    +0.000 A 
ATOM      4  C   UNL     1      -9.708   7.149 130.200  0.00  0.00    +0.000 A 
ATOM      5  C   UNL     1     -10.021   6.412 129.065  0.00  0.00    +0.000 A 
ATOM      6  N   UNL     1      -9.284   5.348 128.680  0.00  0.00    +0.000 NA
ATOM      7  C   UNL     1      -8.244   5.002 129.479  0.00  0.00    +0.000 A 
BRANCH   5   8
ATOM      8  O   UNL     1     -11.079   6.699 128.241  0.00  0.00    +0.000 OA
ATOM      9  C   UNL     1     -10.856   7.721 127.269  0.00  0.00    +0.000 C 
ENDBRANCH   5   8
ENDBRANCH   1   2
BRANCH   1  10
ATOM     10  S   UNL     1      -5.202   5.488 130.714  0.00  0.00    +0.000 S 
ATOM     11  O   UNL     1      -5.181   6.800 130.108  0.00  0.00    +0.000 OA
ATOM     12  O   UNL     1      -4.886   4.308 129.926  0.00  0.00    +0.000 OA
BRANCH  10  16
ATOM     13  C   UNL     1      -1.163   7.639 133.153  0.00  0.00    +0.000 A 
ATOM     14  C   UNL     1      -2.901   7.598 133.726  0.00  0.00    +0.000 A 
ATOM     15  C   UNL     1      -4.141   6.585 133.121  0.00  0.00    +0.000 A 
ATOM     16  C   UNL     1      -3.959   5.653 131.951  0.00  0.00    +0.000 A 
ATOM     17  C   UNL     1      -2.494   5.439 131.347  0.00  0.00    +0.000 A 
ATOM     18  C   UNL     1      -0.775   6.469 131.708  0.00  0.00    +0.000 A 
BRANCH  13  20
ATOM     19  C   UNL     1       0.083   9.357 133.481  0.00  0.00    +0.000 C 
ATOM     20  O   UNL     1      -0.415   8.231 134.089  0.00  0.00    +0.000 OA
ENDBRANCH  13  20
ENDBRANCH  10  16
ENDBRANCH   1  10
BRANCH   1  21
ATOM     21  C   UNL     1      -7.175   4.621 132.803  0.00  0.00    +0.000 C 
BRANCH  21  22
ATOM     22  C   UNL     1      -7.269   3.040 133.207  0.00  0.00    +0.000 A 
ATOM     23  C   UNL     1      -8.979   2.710 133.006  0.00  0.00    +0.000 A 
ATOM     24  C   UNL     1      -9.428   1.644 131.672  0.00  0.00    +0.000 A 
ATOM     25  C   UNL     1      -7.911   0.712 130.558  0.00  0.00    +0.000 A 
ATOM     26  C   UNL     1      -6.227   1.092 131.148  0.00  0.00    +0.000 A 
ATOM     27  N   UNL     1      -5.938   2.183 132.448  0.00  0.00    +0.000 NA
BRANCH  25  28
ATOM     28  C   UNL     1      -7.573  -0.918 130.210  0.00  0.00    +0.000 A 
ATOM     29  C   UNL     1      -7.570  -2.085 131.073  0.00  0.00    +0.000 A 
ATOM     30  C   UNL     1      -7.504  -3.321 130.403  0.00  0.00    +0.000 A 
ATOM     31  C   UNL     1      -7.754  -3.434 129.021  0.00  0.00    +0.000 A 
ATOM     32  C   UNL     1      -7.951  -2.337 128.262  0.00  0.00    +0.000 A 
ATOM     33  C   UNL     1      -7.694  -1.156 128.846  0.00  0.00    +0.000 A 
ATOM     34  F   UNL     1      -8.018  -0.208 127.996  0.00  0.00    +0.000 F 
ENDBRANCH  25  28
ENDBRANCH  21  22
ENDBRANCH   1  21
TORSDOF 8
ENDMDL
MODEL 6
REMARK VINA RESULT:      -8.9      4.791      7.367
REMARK  Name = CHEMBL457544
REMARK  10 active torsions:
REMARK  status: ('A' for Active; 'I' for Inactive)
REMARK    1  A    between atoms: C_1  and  O_2
REMARK    2  A    between atoms: O_2  and  C_3
REMARK    3  A    between atoms: C_6  and  S_7
REMARK    4  A    between atoms: S_7  and  N_10
REMARK    5  A    between atoms: N_10  and  C_11
REMARK    6  A    between atoms: N_10  and  C_25
REMARK    7  A    between atoms: C_11  and  C_12
REMARK    8  A    between atoms: C_15  and  C_16
REMARK    9  A    between atoms: C_28  and  O_29
REMARK   10  A    between atoms: O_29  and  C_30
REMARK                            x       y       z     vdW  Elec       q    Type
REMARK                         _______ _______ _______ _____ _____    ______ ____
ROOT
ATOM      1  N   UNL     1      -6.043   3.081 127.320  0.00  0.00    +0.000 N 
ENDROOT
BRANCH   1   2
ATOM      2  C   UNL     1      -6.077   3.233 125.876  0.00  0.00    +0.000 A 
ATOM      3  C   UNL     1      -5.505   4.312 125.218  0.00  0.00    +0.000 A 
ATOM      4  C   UNL     1      -5.624   4.406 123.831  0.00  0.00    +0.000 A 
ATOM      5  C   UNL     1      -6.271   3.405 123.119  0.00  0.00    +0.000 A 
ATOM      6  N   UNL     1      -6.788   2.317 123.729  0.00  0.00    +0.000 NA
ATOM      7  C   UNL     1      -6.685   2.265 125.080  0.00  0.00    +0.000 A 
BRANCH   5   8
ATOM      8  O   UNL     1      -6.431   3.423 121.757  0.00  0.00    +0.000 OA
ATOM      9  C   UNL     1      -5.314   3.894 121.002  0.00  0.00    +0.000 C 
ENDBRANCH   5   8
ENDBRANCH   1   2
BRANCH   1  10
ATOM     10  S   UNL     1      -7.224   4.031 128.161  0.00  0.00    +0.000 S 
ATOM     11  O   UNL     1      -8.363   4.276 127.305  0.00  0.00    +0.000 OA
ATOM     12  O   UNL     1      -6.503   5.142 128.762  0.00  0.00    +0.000 OA
BRANCH  10  16
ATOM     13  C   UNL     1      -7.504   0.400 131.851  0.00  0.00    +0.000 A 
ATOM     14  C   UNL     1      -7.374   2.210 132.095  0.00  0.00    +0.000 A 
ATOM     15  C   UNL     1      -7.655   3.411 130.908  0.00  0.00    +0.000 A 
ATOM     16  C   UNL     1      -7.958   3.102 129.465  0.00  0.00    +0.000 A 
ATOM     17  C   UNL     1      -8.223   1.586 129.033  0.00  0.00    +0.000 A 
ATOM     18  C   UNL     1      -7.933  -0.135 130.081  0.00  0.00    +0.000 A 
BRANCH  13  20
ATOM     19  C   UNL     1      -6.493  -0.974 133.155  0.00  0.00    +0.000 C 
ATOM     20  O   UNL     1      -7.613  -0.187 133.047  0.00  0.00    +0.000 OA
ENDBRANCH  13  20
ENDBRANCH  10  16
ENDBRANCH   1  10
BRANCH   1  21
ATOM     21  C   UNL     1      -5.028   2.020 127.789  0.00  0.00    +0.000 C 
BRANCH  21  22
ATOM     22  C   UNL     1      -3.670   2.293 128.656  0.00  0.00    +0.000 A 
ATOM     23  C   UNL     1      -2.748   3.325 127.582  0.00  0.00    +0.000 A 
ATOM     24  C   UNL     1      -2.533   5.003 128.088  0.00  0.00    +0.000 A 
ATOM     25  C   UNL     1      -3.215   5.591 129.985  0.00  0.00    +0.000 A 
ATOM     26  C   UNL     1      -3.946   4.230 130.956  0.00  0.00    +0.000 A 
ATOM     27  N   UNL     1      -4.122   2.642 130.317  0.00  0.00    +0.000 NA
BRANCH  25  28
ATOM     28  C   UNL     1      -2.440   6.312 131.316  0.00  0.00    +0.000 A 
ATOM     29  C   UNL     1      -1.088   6.153 131.819  0.00  0.00    +0.000 A 
ATOM     30  C   UNL     1      -0.695   7.101 132.783  0.00  0.00    +0.000 A 
ATOM     31  C   UNL     1      -1.419   8.290 132.996  0.00  0.00    +0.000 A 
ATOM     32  C   UNL     1      -2.590   8.510 132.364  0.00  0.00    +0.000 A 
ATOM     33  C   UNL     1      -3.111   7.467 131.699  0.00  0.00    +0.000 A 
ATOM     34  F   UNL     1      -4.195   7.884 131.083  0.00  0.00    +0.000 F 
ENDBRANCH  25  28
ENDBRANCH  21  22
ENDBRANCH   1  21
TORSDOF 8
ENDMDL
MODEL 7
REMARK VINA RESULT:      -8.9      4.607      7.662
REMARK  Name = CHEMBL457544
REMARK  10 active torsions:
REMARK  status: ('A' for Active; 'I' for Inactive)
REMARK    1  A    between atoms: C_1  and  O_2
REMARK    2  A    between atoms: O_2  and  C_3
REMARK    3  A    between atoms: C_6  and  S_7
REMARK    4  A    between atoms: S_7  and  N_10
REMARK    5  A    between atoms: N_10  and  C_11
REMARK    6  A    between atoms: N_10  and  C_25
REMARK    7  A    between atoms: C_11  and  C_12
REMARK    8  A    between atoms: C_15  and  C_16
REMARK    9  A    between atoms: C_28  and  O_29
REMARK   10  A    between atoms: O_29  and  C_30
REMARK                            x       y       z     vdW  Elec       q    Type
REMARK                         _______ _______ _______ _____ _____    ______ ____
ROOT
ATOM      1  N   UNL     1      -6.802   1.701 131.423  0.00  0.00    +0.000 N 
ENDROOT
BRANCH   1   2
ATOM      2  C   UNL     1      -6.844   0.328 130.953  0.00  0.00    +0.000 A 
ATOM      3  C   UNL     1      -8.004  -0.277 130.494  0.00  0.00    +0.000 A 
ATOM      4  C   UNL     1      -7.968  -1.615 130.103  0.00  0.00    +0.000 A 
ATOM      5  C   UNL     1      -6.771  -2.317 130.136  0.00  0.00    +0.000 A 
ATOM      6  N   UNL     1      -5.615  -1.737 130.526  0.00  0.00    +0.000 NA
ATOM      7  C   UNL     1      -5.684  -0.443 130.928  0.00  0.00    +0.000 A 
BRANCH   5   8
ATOM      8  O   UNL     1      -6.651  -3.633 129.770  0.00  0.00    +0.000 OA
ATOM      9  C   UNL     1      -5.787  -4.432 130.579  0.00  0.00    +0.000 C 
ENDBRANCH   5   8
ENDBRANCH   1   2
BRANCH   1  10
ATOM     10  S   UNL     1      -6.106   2.817 130.294  0.00  0.00    +0.000 S 
ATOM     11  O   UNL     1      -4.675   2.626 130.227  0.00  0.00    +0.000 OA
ATOM     12  O   UNL     1      -6.660   4.123 130.614  0.00  0.00    +0.000 OA
BRANCH  10  16
ATOM     13  C   UNL     1      -7.826  -0.171 126.421  0.00  0.00    +0.000 A 
ATOM     14  C   UNL     1      -8.729   1.191 127.245  0.00  0.00    +0.000 A 
ATOM     15  C   UNL     1      -8.043   2.398 128.245  0.00  0.00    +0.000 A 
ATOM     16  C   UNL     1      -6.591   2.422 128.647  0.00  0.00    +0.000 A 
ATOM     17  C   UNL     1      -5.579   1.388 127.966  0.00  0.00    +0.000 A 
ATOM     18  C   UNL     1      -5.966  -0.234 126.798  0.00  0.00    +0.000 A 
BRANCH  13  20
ATOM     19  C   UNL     1      -9.007  -1.882 125.883  0.00  0.00    +0.000 C 
ATOM     20  O   UNL     1      -8.587  -0.655 125.434  0.00  0.00    +0.000 OA
ENDBRANCH  13  20
ENDBRANCH  10  16
ENDBRANCH   1  10
BRANCH   1  21
ATOM     21  C   UNL     1      -7.487   1.889 132.791  0.00  0.00    +0.000 C 
BRANCH  21  22
ATOM     22  C   UNL     1      -8.960   2.546 133.057  0.00  0.00    +0.000 A 
ATOM     23  C   UNL     1      -8.572   3.921 134.071  0.00  0.00    +0.000 A 
ATOM     24  C   UNL     1      -8.794   5.520 133.356  0.00  0.00    +0.000 A 
ATOM     25  C   UNL     1      -9.668   5.673 131.453  0.00  0.00    +0.000 A 
ATOM     26  C   UNL     1     -10.159   4.066 130.739  0.00  0.00    +0.000 A 
ATOM     27  N   UNL     1      -9.847   2.576 131.541  0.00  0.00    +0.000 NA
BRANCH  25  28
ATOM     28  C   UNL     1     -11.033   6.506 130.874  0.00  0.00    +0.000 A 
ATOM     29  C   UNL     1     -12.257   6.893 131.550  0.00  0.00    +0.000 A 
ATOM     30  C   UNL     1     -13.065   7.804 130.844  0.00  0.00    +0.000 A 
ATOM     31  C   UNL     1     -12.579   8.531 129.741  0.00  0.00    +0.000 A 
ATOM     32  C   UNL     1     -11.349   8.291 129.242  0.00  0.00    +0.000 A 
ATOM     33  C   UNL     1     -10.717   7.206 129.716  0.00  0.00    +0.000 A 
ATOM     34  F   UNL     1      -9.514   7.178 129.187  0.00  0.00    +0.000 F 
ENDBRANCH  25  28
ENDBRANCH  21  22
ENDBRANCH   1  21
TORSDOF 8
ENDMDL
MODEL 8
REMARK VINA RESULT:      -8.9      4.572      8.553
REMARK  Name = CHEMBL457544
REMARK  10 active torsions:
REMARK  status: ('A' for Active; 'I' for Inactive)
REMARK    1  A    between atoms: C_1  and  O_2
REMARK    2  A    between atoms: O_2  and  C_3
REMARK    3  A    between atoms: C_6  and  S_7
REMARK    4  A    between atoms: S_7  and  N_10
REMARK    5  A    between atoms: N_10  and  C_11
REMARK    6  A    between atoms: N_10  and  C_25
REMARK    7  A    between atoms: C_11  and  C_12
REMARK    8  A    between atoms: C_15  and  C_16
REMARK    9  A    between atoms: C_28  and  O_29
REMARK   10  A    between atoms: O_29  and  C_30
REMARK                            x       y       z     vdW  Elec       q    Type
REMARK                         _______ _______ _______ _____ _____    ______ ____
ROOT
ATOM      1  N   UNL     1      -8.061   4.099 129.777  0.00  0.00    +0.000 N 
ENDROOT
BRANCH   1   2
ATOM      2  C   UNL     1      -8.126   2.897 130.589  0.00  0.00    +0.000 A 
ATOM      3  C   UNL     1      -9.322   2.285 130.934  0.00  0.00    +0.000 A 
ATOM      4  C   UNL     1      -9.300   1.159 131.757  0.00  0.00    +0.000 A 
ATOM      5  C   UNL     1      -8.087   0.636 132.187  0.00  0.00    +0.000 A 
ATOM      6  N   UNL     1      -6.906   1.179 131.820  0.00  0.00    +0.000 NA
ATOM      7  C   UNL     1      -6.958   2.290 131.044  0.00  0.00    +0.000 A 
BRANCH   5   8
ATOM      8  O   UNL     1      -7.979  -0.465 132.997  0.00  0.00    +0.000 OA
ATOM      9  C   UNL     1      -6.667  -1.008 133.144  0.00  0.00    +0.000 C 
ENDBRANCH   5   8
ENDBRANCH   1   2
BRANCH   1  10
ATOM     10  S   UNL     1      -8.671   5.519 130.564  0.00  0.00    +0.000 S 
ATOM     11  O   UNL     1      -7.786   6.636 130.325  0.00  0.00    +0.000 OA
ATOM     12  O   UNL     1      -9.007   5.123 131.922  0.00  0.00    +0.000 OA
BRANCH  10  16
ATOM     13  C   UNL     1     -12.582   8.763 129.531  0.00  0.00    +0.000 A 
ATOM     14  C   UNL     1     -11.180   8.345 128.432  0.00  0.00    +0.000 A 
ATOM     15  C   UNL     1     -10.114   7.019 128.616  0.00  0.00    +0.000 A 
ATOM     16  C   UNL     1     -10.153   6.073 129.788  0.00  0.00    +0.000 A 
ATOM     17  C   UNL     1     -11.361   6.177 130.831  0.00  0.00    +0.000 A 
ATOM     18  C   UNL     1     -12.785   7.618 131.033  0.00  0.00    +0.000 A 
BRANCH  13  20
ATOM     19  C   UNL     1     -13.480  10.709 129.668  0.00  0.00    +0.000 C 
ATOM     20  O   UNL     1     -13.408   9.588 128.879  0.00  0.00    +0.000 OA
ENDBRANCH  13  20
ENDBRANCH  10  16
ENDBRANCH   1  10
BRANCH   1  21
ATOM     21  C   UNL     1      -7.361   3.874 128.424  0.00  0.00    +0.000 C 
BRANCH  21  22
ATOM     22  C   UNL     1      -8.052   3.305 127.056  0.00  0.00    +0.000 A 
ATOM     23  C   UNL     1      -6.784   3.554 125.872  0.00  0.00    +0.000 A 
ATOM     24  C   UNL     1      -6.015   2.105 125.218  0.00  0.00    +0.000 A 
ATOM     25  C   UNL     1      -6.779   0.220 125.744  0.00  0.00    +0.000 A 
ATOM     26  C   UNL     1      -8.243   0.299 126.832  0.00  0.00    +0.000 A 
ATOM     27  N   UNL     1      -8.864   1.792 127.421  0.00  0.00    +0.000 NA
BRANCH  25  28
ATOM     28  C   UNL     1      -7.360  -1.086 124.823  0.00  0.00    +0.000 A 
ATOM     29  C   UNL     1      -7.534  -2.483 125.175  0.00  0.00    +0.000 A 
ATOM     30  C   UNL     1      -8.286  -3.239 124.257  0.00  0.00    +0.000 A 
ATOM     31  C   UNL     1      -9.079  -2.631 123.264  0.00  0.00    +0.000 A 
ATOM     32  C   UNL     1      -9.053  -1.296 123.079  0.00  0.00    +0.000 A 
ATOM     33  C   UNL     1      -8.097  -0.624 123.739  0.00  0.00    +0.000 A 
ATOM     34  F   UNL     1      -8.274   0.658 123.509  0.00  0.00    +0.000 F 
ENDBRANCH  25  28
ENDBRANCH  21  22
ENDBRANCH   1  21
TORSDOF 8
ENDMDL
MODEL 9
REMARK VINA RESULT:      -8.9      4.239      7.170
REMARK  Name = CHEMBL457544
REMARK  10 active torsions:
REMARK  status: ('A' for Active; 'I' for Inactive)
REMARK    1  A    between atoms: C_1  and  O_2
REMARK    2  A    between atoms: O_2  and  C_3
REMARK    3  A    between atoms: C_6  and  S_7
REMARK    4  A    between atoms: S_7  and  N_10
REMARK    5  A    between atoms: N_10  and  C_11
REMARK    6  A    between atoms: N_10  and  C_25
REMARK    7  A    between atoms: C_11  and  C_12
REMARK    8  A    between atoms: C_15  and  C_16
REMARK    9  A    between atoms: C_28  and  O_29
REMARK   10  A    between atoms: O_29  and  C_30
REMARK                            x       y       z     vdW  Elec       q    Type
REMARK                         _______ _______ _______ _____ _____    ______ ____
ROOT
ATOM      1  N   UNL     1      -7.887   3.805 128.920  0.00  0.00    +0.000 N 
ENDROOT
BRANCH   1   2
ATOM      2  C   UNL     1      -7.645   2.577 129.656  0.00  0.00    +0.000 A 
ATOM      3  C   UNL     1      -8.282   1.381 129.359  0.00  0.00    +0.000 A 
ATOM      4  C   UNL     1      -8.029   0.258 130.147  0.00  0.00    +0.000 A 
ATOM      5  C   UNL     1      -7.115   0.333 131.189  0.00  0.00    +0.000 A 
ATOM      6  N   UNL     1      -6.439   1.469 131.466  0.00  0.00    +0.000 NA
ATOM      7  C   UNL     1      -6.726   2.553 130.704  0.00  0.00    +0.000 A 
BRANCH   5   8
ATOM      8  O   UNL     1      -6.810  -0.723 132.009  0.00  0.00    +0.000 OA
ATOM      9  C   UNL     1      -7.355  -1.988 131.631  0.00  0.00    +0.000 C 
ENDBRANCH   5   8
ENDBRANCH   1   2
BRANCH   1  10
ATOM     10  S   UNL     1      -9.207   4.749 129.529  0.00  0.00    +0.000 S 
ATOM     11  O   UNL     1     -10.315   3.888 129.872  0.00  0.00    +0.000 OA
ATOM     12  O   UNL     1      -9.390   5.848 128.594  0.00  0.00    +0.000 OA
BRANCH  10  16
ATOM     13  C   UNL     1      -6.972   4.992 134.202  0.00  0.00    +0.000 A 
ATOM     14  C   UNL     1      -6.541   5.981 132.723  0.00  0.00    +0.000 A 
ATOM     15  C   UNL     1      -7.502   6.168 131.318  0.00  0.00    +0.000 A 
ATOM     16  C   UNL     1      -8.804   5.445 131.097  0.00  0.00    +0.000 A 
ATOM     17  C   UNL     1      -9.439   4.601 132.297  0.00  0.00    +0.000 A 
ATOM     18  C   UNL     1      -8.623   4.062 134.083  0.00  0.00    +0.000 A 
BRANCH  13  20
ATOM     19  C   UNL     1      -5.764   4.229 135.805  0.00  0.00    +0.000 C 
ATOM     20  O   UNL     1      -6.207   5.391 135.223  0.00  0.00    +0.000 OA
ENDBRANCH  13  20
ENDBRANCH  10  16
ENDBRANCH   1  10
BRANCH   1  21
ATOM     21  C   UNL     1      -6.844   4.057 127.814  0.00  0.00    +0.000 C 
BRANCH  21  22
ATOM     22  C   UNL     1      -6.838   3.402 126.317  0.00  0.00    +0.000 A 
ATOM     23  C   UNL     1      -5.483   2.295 126.404  0.00  0.00    +0.000 A 
ATOM     24  C   UNL     1      -5.865   0.571 126.364  0.00  0.00    +0.000 A 
ATOM     25  C   UNL     1      -7.851  -0.025 126.029  0.00  0.00    +0.000 A 
ATOM     26  C   UNL     1      -9.000   1.367 125.764  0.00  0.00    +0.000 A 
ATOM     27  N   UNL     1      -8.489   3.007 125.867  0.00  0.00    +0.000 NA
BRANCH  25  28
ATOM     28  C   UNL     1      -8.572  -1.027 124.860  0.00  0.00    +0.000 A 
ATOM     29  C   UNL     1      -8.393  -1.075 123.420  0.00  0.00    +0.000 A 
ATOM     30  C   UNL     1      -8.948  -2.204 122.788  0.00  0.00    +0.000 A 
ATOM     31  C   UNL     1      -9.345  -3.344 123.514  0.00  0.00    +0.000 A 
ATOM     32  C   UNL     1      -9.319  -3.349 124.862  0.00  0.00    +0.000 A 
ATOM     33  C   UNL     1      -9.097  -2.167 125.457  0.00  0.00    +0.000 A 
ATOM     34  F   UNL     1      -9.022  -2.376 126.752  0.00  0.00    +0.000 F 
ENDBRANCH  25  28
ENDBRANCH  21  22
ENDBRANCH   1  21
TORSDOF 8
ENDMDL
