MODEL 1
REMARK VINA RESULT:      -9.8      0.000      0.000
REMARK  Name = CHEMBL2037490
REMARK  10 active torsions:
REMARK  status: ('A' for Active; 'I' for Inactive)
REMARK    1  A    between atoms: CD1_1  and  CG_2
REMARK    2  A    between atoms: CG_2  and  CD2_3
REMARK    3  A    between atoms: CG_2  and  CB_4
REMARK    4  A    between atoms: CB_4  and  CA_5
REMARK    5  A    between atoms: C_9  and  C_10
REMARK    6  A    between atoms: N_21  and  C_22
REMARK    7  A    between atoms: C_22  and  C_23
REMARK    8  A    between atoms: C_22  and  C_31
REMARK    9  A    between atoms: N_35  and  C_36
REMARK   10  A    between atoms: N_35  and  C_37
REMARK                            x       y       z     vdW  Elec       q    Type
REMARK                         _______ _______ _______ _____ _____    ______ ____
ROOT
ATOM      1  CA  LEU A   2      -5.520   2.768 128.068  0.00  0.00    +0.000 C 
ATOM      2  C   LEU A   2      -5.533   2.164 129.511  0.00  0.00    +0.000 C 
ATOM      3  O   LEU A   2      -4.555   1.745 130.172  0.00  0.00    +0.000 OA
ATOM      4  N   UNK A   1      -6.744   2.162 130.084  0.00  0.00    +0.000 N 
ATOM      5  C   UNK A   1      -7.835   2.873 129.453  0.00  0.00    +0.000 C 
ATOM      6  C   UNK A   1      -7.946   2.407 128.012  0.00  0.00    +0.000 C 
ATOM      7  O   UNK A   1      -9.082   2.301 127.515  0.00  0.00    +0.000 OA
ATOM      8  N   LEU A   2      -6.734   2.191 127.362  0.00  0.00    +0.000 N 
ATOM      9  H   UNK A   1      -6.783   1.817 131.038  0.00  0.00    +0.000 HD
ENDROOT
BRANCH   5  10
ATOM     10  C   UNK A   1      -9.187   2.584 130.108  0.00  0.00    +0.000 C 
ATOM     11  C   UNK A   1      -9.914   3.891 130.416  0.00  0.00    +0.000 C 
ATOM     12  C   UNK A   1      -9.451   4.153 131.817  0.00  0.00    +0.000 A 
ATOM     13  C   UNK A   1      -9.376   5.373 132.458  0.00  0.00    +0.000 A 
ATOM     14  C   UNK A   1      -8.782   5.419 133.719  0.00  0.00    +0.000 A 
ATOM     15  C   UNK A   1      -8.254   4.260 134.313  0.00  0.00    +0.000 A 
ATOM     16  C   UNK A   1      -8.309   3.034 133.650  0.00  0.00    +0.000 A 
ATOM     17  C   UNK A   1      -8.921   2.994 132.409  0.00  0.00    +0.000 A 
ATOM     18  C   UNK A   1      -8.999   1.837 131.463  0.00  0.00    +0.000 C 
ENDBRANCH   5  10
BRANCH   1  19
ATOM     19  CB  LEU A   2      -4.282   2.354 127.327  0.00  0.00    +0.000 C 
BRANCH  19  21
ATOM     20  CD1 LEU A   2      -1.484   3.022 126.563  0.00  0.00    +0.000 C 
ATOM     21  CG  LEU A   2      -2.867   3.072 127.534  0.00  0.00    +0.000 C 
ATOM     22  CD2 LEU A   2      -3.350   4.455 127.229  0.00  0.00    +0.000 C 
ENDBRANCH  19  21
ENDBRANCH   1  19
BRANCH   8  23
ATOM     23  C   UNK A   0      -6.628   1.289 126.115  0.00  0.00    +0.000 C 
BRANCH  23  24
ATOM     24  C   UNK A   0      -6.945   2.078 124.807  0.00  0.00    +0.000 A 
ATOM     25  C   UNK A   0      -8.262   2.189 124.342  0.00  0.00    +0.000 A 
ATOM     26  C   UNK A   0      -8.514   2.650 123.050  0.00  0.00    +0.000 A 
ATOM     27  C   UNK A   0      -7.492   3.178 122.272  0.00  0.00    +0.000 A 
ATOM     28  N   UNK A   0      -7.693   3.699 121.016  0.00  0.00    +0.000 N 
ATOM     29  C   UNK A   0      -6.576   4.333 120.325  0.00  0.00    +0.000 C 
ATOM     30  C   UNK A   0      -8.998   3.781 120.400  0.00  0.00    +0.000 C 
ATOM     31  N   UNK A   0      -6.243   3.180 122.754  0.00  0.00    +0.000 NA
ATOM     32  C   UNK A   0      -5.994   2.615 123.957  0.00  0.00    +0.000 A 
ENDBRANCH  23  24
BRANCH  23  33
ATOM     33  C   UNK A   0      -7.266  -0.318 126.098  0.00  0.00    +0.000 C 
ATOM     34  O   UNK A   0      -8.019  -0.678 127.017  0.00  0.00    +0.000 OA
ATOM     35  N   UNK A   0      -7.339  -1.201 125.015  0.00  0.00    +0.000 N 
ATOM     36  C   UNK A   0      -6.313  -1.882 124.191  0.00  0.00    +0.000 C 
ATOM     37  C   UNK A   0      -6.809  -1.617 122.802  0.00  0.00    +0.000 C 
ATOM     38  O   UNK A   0      -8.022  -2.225 122.406  0.00  0.00    +0.000 OA
ATOM     39  C   UNK A   0      -9.051  -1.610 123.216  0.00  0.00    +0.000 C 
ATOM     40  C   UNK A   0      -8.642  -1.842 124.693  0.00  0.00    +0.000 C 
ENDBRANCH  23  33
ENDBRANCH   8  23
TORSDOF 6
ENDMDL
MODEL 2
REMARK VINA RESULT:      -9.8      4.250      7.641
REMARK  Name = CHEMBL2037490
REMARK  10 active torsions:
REMARK  status: ('A' for Active; 'I' for Inactive)
REMARK    1  A    between atoms: CD1_1  and  CG_2
REMARK    2  A    between atoms: CG_2  and  CD2_3
REMARK    3  A    between atoms: CG_2  and  CB_4
REMARK    4  A    between atoms: CB_4  and  CA_5
REMARK    5  A    between atoms: C_9  and  C_10
REMARK    6  A    between atoms: N_21  and  C_22
REMARK    7  A    between atoms: C_22  and  C_23
REMARK    8  A    between atoms: C_22  and  C_31
REMARK    9  A    between atoms: N_35  and  C_36
REMARK   10  A    between atoms: N_35  and  C_37
REMARK                            x       y       z     vdW  Elec       q    Type
REMARK                         _______ _______ _______ _____ _____    ______ ____
ROOT
ATOM      1  CA  LEU A   2      -6.554   4.540 132.571  0.00  0.00    +0.000 C 
ATOM      2  C   LEU A   2      -5.867   5.721 133.332  0.00  0.00    +0.000 C 
ATOM      3  O   LEU A   2      -6.101   6.118 134.497  0.00  0.00    +0.000 OA
ATOM      4  N   UNK A   1      -4.887   6.312 132.635  0.00  0.00    +0.000 N 
ATOM      5  C   UNK A   1      -4.423   5.713 131.404  0.00  0.00    +0.000 C 
ATOM      6  C   UNK A   1      -5.621   5.471 130.503  0.00  0.00    +0.000 C 
ATOM      7  O   UNK A   1      -5.477   5.635 129.278  0.00  0.00    +0.000 OA
ATOM      8  N   LEU A   2      -6.770   5.026 131.150  0.00  0.00    +0.000 N 
ATOM      9  H   UNK A   1      -4.389   7.056 133.115  0.00  0.00    +0.000 HD
ENDROOT
BRANCH   5  10
ATOM     10  C   UNK A   1      -3.471   6.624 130.625  0.00  0.00    +0.000 C 
ATOM     11  C   UNK A   1      -2.043   6.091 130.711  0.00  0.00    +0.000 C 
ATOM     12  C   UNK A   1      -1.535   6.827 131.914  0.00  0.00    +0.000 A 
ATOM     13  C   UNK A   1      -0.513   6.444 132.759  0.00  0.00    +0.000 A 
ATOM     14  C   UNK A   1      -0.288   7.203 133.908  0.00  0.00    +0.000 A 
ATOM     15  C   UNK A   1      -1.093   8.314 134.209  0.00  0.00    +0.000 A 
ATOM     16  C   UNK A   1      -2.142   8.682 133.366  0.00  0.00    +0.000 A 
ATOM     17  C   UNK A   1      -2.343   7.937 132.216  0.00  0.00    +0.000 A 
ATOM     18  C   UNK A   1      -3.459   8.060 131.227  0.00  0.00    +0.000 C 
ENDBRANCH   5  10
BRANCH   1  19
ATOM     19  CB  LEU A   2      -7.886   4.214 133.184  0.00  0.00    +0.000 C 
BRANCH  19  21
ATOM     20  CD1 LEU A   2      -9.583   1.878 132.461  0.00  0.00    +0.000 C 
ATOM     21  CG  LEU A   2      -8.418   2.715 133.356  0.00  0.00    +0.000 C 
ATOM     22  CD2 LEU A   2      -7.175   2.052 132.852  0.00  0.00    +0.000 C 
ENDBRANCH  19  21
ENDBRANCH   1  19
BRANCH   8  23
ATOM     23  C   UNK A   0      -8.170   5.184 130.521  0.00  0.00    +0.000 C 
BRANCH  23  24
ATOM     24  C   UNK A   0      -8.348   4.258 129.278  0.00  0.00    +0.000 A 
ATOM     25  C   UNK A   0      -8.483   2.872 129.434  0.00  0.00    +0.000 A 
ATOM     26  C   UNK A   0      -8.367   2.027 128.331  0.00  0.00    +0.000 A 
ATOM     27  C   UNK A   0      -8.301   2.543 127.043  0.00  0.00    +0.000 A 
ATOM     28  N   UNK A   0      -8.244   1.756 125.917  0.00  0.00    +0.000 N 
ATOM     29  C   UNK A   0      -8.293   2.392 124.606  0.00  0.00    +0.000 C 
ATOM     30  C   UNK A   0      -8.286   0.313 125.966  0.00  0.00    +0.000 C 
ATOM     31  N   UNK A   0      -8.285   3.871 126.876  0.00  0.00    +0.000 NA
ATOM     32  C   UNK A   0      -8.271   4.678 127.961  0.00  0.00    +0.000 A 
ENDBRANCH  23  24
BRANCH  23  33
ATOM     33  C   UNK A   0      -8.904   6.735 130.311  0.00  0.00    +0.000 C 
ATOM     34  O   UNK A   0      -8.179   7.733 130.180  0.00  0.00    +0.000 OA
ATOM     35  N   UNK A   0     -10.220   7.017 129.925  0.00  0.00    +0.000 N 
ATOM     36  C   UNK A   0     -11.537   6.772 130.559  0.00  0.00    +0.000 C 
ATOM     37  C   UNK A   0     -12.321   6.191 129.422  0.00  0.00    +0.000 C 
ATOM     38  O   UNK A   0     -12.621   7.034 128.328  0.00  0.00    +0.000 OA
ATOM     39  C   UNK A   0     -11.351   7.328 127.700  0.00  0.00    +0.000 C 
ATOM     40  C   UNK A   0     -10.456   7.956 128.797  0.00  0.00    +0.000 C 
ENDBRANCH  23  33
ENDBRANCH   8  23
TORSDOF 6
ENDMDL
MODEL 3
REMARK VINA RESULT:      -9.7      4.667      8.235
REMARK  Name = CHEMBL2037490
REMARK  10 active torsions:
REMARK  status: ('A' for Active; 'I' for Inactive)
REMARK    1  A    between atoms: CD1_1  and  CG_2
REMARK    2  A    between atoms: CG_2  and  CD2_3
REMARK    3  A    between atoms: CG_2  and  CB_4
REMARK    4  A    between atoms: CB_4  and  CA_5
REMARK    5  A    between atoms: C_9  and  C_10
REMARK    6  A    between atoms: N_21  and  C_22
REMARK    7  A    between atoms: C_22  and  C_23
REMARK    8  A    between atoms: C_22  and  C_31
REMARK    9  A    between atoms: N_35  and  C_36
REMARK   10  A    between atoms: N_35  and  C_37
REMARK                            x       y       z     vdW  Elec       q    Type
REMARK                         _______ _______ _______ _____ _____    ______ ____
ROOT
ATOM      1  CA  LEU A   2      -6.865   2.228 132.222  0.00  0.00    +0.000 C 
ATOM      2  C   LEU A   2      -5.695   1.201 132.078  0.00  0.00    +0.000 C 
ATOM      3  O   LEU A   2      -4.787   0.957 132.906  0.00  0.00    +0.000 OA
ATOM      4  N   UNK A   1      -5.740   0.488 130.944  0.00  0.00    +0.000 N 
ATOM      5  C   UNK A   1      -6.911   0.562 130.099  0.00  0.00    +0.000 C 
ATOM      6  C   UNK A   1      -7.200   2.022 129.800  0.00  0.00    +0.000 C 
ATOM      7  O   UNK A   1      -7.626   2.317 128.669  0.00  0.00    +0.000 OA
ATOM      8  N   LEU A   2      -7.004   2.896 130.866  0.00  0.00    +0.000 N 
ATOM      9  H   UNK A   1      -5.019  -0.220 130.837  0.00  0.00    +0.000 HD
ENDROOT
BRANCH   5  10
ATOM     10  C   UNK A   1      -6.710  -0.126 128.747  0.00  0.00    +0.000 C 
ATOM     11  C   UNK A   1      -7.608  -1.356 128.643  0.00  0.00    +0.000 C 
ATOM     12  C   UNK A   1      -6.694  -2.424 129.163  0.00  0.00    +0.000 A 
ATOM     13  C   UNK A   1      -7.054  -3.623 129.744  0.00  0.00    +0.000 A 
ATOM     14  C   UNK A   1      -6.047  -4.418 130.292  0.00  0.00    +0.000 A 
ATOM     15  C   UNK A   1      -4.706  -4.001 130.271  0.00  0.00    +0.000 A 
ATOM     16  C   UNK A   1      -4.349  -2.777 129.705  0.00  0.00    +0.000 A 
ATOM     17  C   UNK A   1      -5.352  -2.005 129.144  0.00  0.00    +0.000 A 
ATOM     18  C   UNK A   1      -5.241  -0.620 128.589  0.00  0.00    +0.000 C 
ENDBRANCH   5  10
BRANCH   1  19
ATOM     19  CB  LEU A   2      -6.535   3.273 133.249  0.00  0.00    +0.000 C 
BRANCH  19  21
ATOM     20  CD1 LEU A   2      -7.954   5.181 135.039  0.00  0.00    +0.000 C 
ATOM     21  CG  LEU A   2      -7.526   3.657 134.445  0.00  0.00    +0.000 C 
ATOM     22  CD2 LEU A   2      -8.786   3.296 133.721  0.00  0.00    +0.000 C 
ENDBRANCH  19  21
ENDBRANCH   1  19
BRANCH   8  23
ATOM     23  C   UNK A   0      -6.777   4.407 130.648  0.00  0.00    +0.000 C 
BRANCH  23  24
ATOM     24  C   UNK A   0      -8.125   5.167 130.448  0.00  0.00    +0.000 A 
ATOM     25  C   UNK A   0      -8.620   6.016 131.448  0.00  0.00    +0.000 A 
ATOM     26  C   UNK A   0      -9.937   6.474 131.391  0.00  0.00    +0.000 A 
ATOM     27  C   UNK A   0     -10.718   6.254 130.264  0.00  0.00    +0.000 A 
ATOM     28  N   UNK A   0     -12.000   6.733 130.131  0.00  0.00    +0.000 N 
ATOM     29  C   UNK A   0     -12.696   6.546 128.864  0.00  0.00    +0.000 C 
ATOM     30  C   UNK A   0     -12.643   7.543 131.139  0.00  0.00    +0.000 C 
ATOM     31  N   UNK A   0     -10.212   5.538 129.253  0.00  0.00    +0.000 NA
ATOM     32  C   UNK A   0      -8.981   4.993 129.374  0.00  0.00    +0.000 A 
ENDBRANCH  23  24
BRANCH  23  33
ATOM     33  C   UNK A   0      -5.517   4.999 129.623  0.00  0.00    +0.000 C 
ATOM     34  O   UNK A   0      -5.688   4.998 128.394  0.00  0.00    +0.000 OA
ATOM     35  N   UNK A   0      -4.432   5.809 129.978  0.00  0.00    +0.000 N 
ATOM     36  C   UNK A   0      -3.258   5.603 130.859  0.00  0.00    +0.000 C 
ATOM     37  C   UNK A   0      -3.259   6.862 131.670  0.00  0.00    +0.000 C 
ATOM     38  O   UNK A   0      -2.976   8.077 131.005  0.00  0.00    +0.000 OA
ATOM     39  C   UNK A   0      -4.086   8.298 130.104  0.00  0.00    +0.000 C 
ATOM     40  C   UNK A   0      -4.168   7.045 129.195  0.00  0.00    +0.000 C 
ENDBRANCH  23  33
ENDBRANCH   8  23
TORSDOF 6
ENDMDL
MODEL 4
REMARK VINA RESULT:      -9.7      4.400      8.319
REMARK  Name = CHEMBL2037490
REMARK  10 active torsions:
REMARK  status: ('A' for Active; 'I' for Inactive)
REMARK    1  A    between atoms: CD1_1  and  CG_2
REMARK    2  A    between atoms: CG_2  and  CD2_3
REMARK    3  A    between atoms: CG_2  and  CB_4
REMARK    4  A    between atoms: CB_4  and  CA_5
REMARK    5  A    between atoms: C_9  and  C_10
REMARK    6  A    between atoms: N_21  and  C_22
REMARK    7  A    between atoms: C_22  and  C_23
REMARK    8  A    between atoms: C_22  and  C_31
REMARK    9  A    between atoms: N_35  and  C_36
REMARK   10  A    between atoms: N_35  and  C_37
REMARK                            x       y       z     vdW  Elec       q    Type
REMARK                         _______ _______ _______ _____ _____    ______ ____
ROOT
ATOM      1  CA  LEU A   2      -7.659   2.809 129.032  0.00  0.00    +0.000 C 
ATOM      2  C   LEU A   2      -7.783   4.225 128.379  0.00  0.00    +0.000 C 
ATOM      3  O   LEU A   2      -7.293   4.610 127.292  0.00  0.00    +0.000 OA
ATOM      4  N   UNK A   1      -8.553   5.073 129.074  0.00  0.00    +0.000 N 
ATOM      5  C   UNK A   1      -9.337   4.580 130.185  0.00  0.00    +0.000 C 
ATOM      6  C   UNK A   1      -8.416   3.829 131.130  0.00  0.00    +0.000 C 
ATOM      7  O   UNK A   1      -8.626   3.922 132.353  0.00  0.00    +0.000 OA
ATOM      8  N   LEU A   2      -7.441   3.049 130.514  0.00  0.00    +0.000 N 
ATOM      9  H   UNK A   1      -8.692   5.989 128.657  0.00  0.00    +0.000 HD
ENDROOT
BRANCH   5  10
ATOM     10  C   UNK A   1      -9.975   5.705 131.004  0.00  0.00    +0.000 C 
ATOM     11  C   UNK A   1     -11.495   5.655 130.872  0.00  0.00    +0.000 C 
ATOM     12  C   UNK A   1     -11.711   6.573 129.707  0.00  0.00    +0.000 A 
ATOM     13  C   UNK A   1     -12.778   6.576 128.831  0.00  0.00    +0.000 A 
ATOM     14  C   UNK A   1     -12.720   7.423 127.724  0.00  0.00    +0.000 A 
ATOM     15  C   UNK A   1     -11.597   8.237 127.495  0.00  0.00    +0.000 A 
ATOM     16  C   UNK A   1     -10.510   8.212 128.369  0.00  0.00    +0.000 A 
ATOM     17  C   UNK A   1     -10.587   7.385 129.477  0.00  0.00    +0.000 A 
ATOM     18  C   UNK A   1      -9.517   7.100 130.483  0.00  0.00    +0.000 C 
ENDBRANCH   5  10
BRANCH   1  19
ATOM     19  CB  LEU A   2      -6.475   2.069 128.478  0.00  0.00    +0.000 C 
BRANCH  19  21
ATOM     20  CD1 LEU A   2      -5.577  -0.684 127.789  0.00  0.00    +0.000 C 
ATOM     21  CG  LEU A   2      -6.605   0.657 127.736  0.00  0.00    +0.000 C 
ATOM     22  CD2 LEU A   2      -7.740   0.149 128.570  0.00  0.00    +0.000 C 
ENDBRANCH  19  21
ENDBRANCH   1  19
BRANCH   8  23
ATOM     23  C   UNK A   0      -6.158   2.617 131.254  0.00  0.00    +0.000 C 
BRANCH  23  24
ATOM     24  C   UNK A   0      -6.300   1.187 131.862  0.00  0.00    +0.000 A 
ATOM     25  C   UNK A   0      -5.398   0.171 131.515  0.00  0.00    +0.000 A 
ATOM     26  C   UNK A   0      -5.680  -1.157 131.835  0.00  0.00    +0.000 A 
ATOM     27  C   UNK A   0      -6.753  -1.478 132.655  0.00  0.00    +0.000 A 
ATOM     28  N   UNK A   0      -7.042  -2.764 133.049  0.00  0.00    +0.000 N 
ATOM     29  C   UNK A   0      -8.122  -2.985 134.003  0.00  0.00    +0.000 C 
ATOM     30  C   UNK A   0      -6.231  -3.899 132.676  0.00  0.00    +0.000 C 
ATOM     31  N   UNK A   0      -7.558  -0.499 133.086  0.00  0.00    +0.000 NA
ATOM     32  C   UNK A   0      -7.347   0.768 132.665  0.00  0.00    +0.000 A 
ENDBRANCH  23  24
BRANCH  23  33
ATOM     33  C   UNK A   0      -5.295   3.700 132.289  0.00  0.00    +0.000 C 
ATOM     34  O   UNK A   0      -4.490   3.236 133.112  0.00  0.00    +0.000 OA
ATOM     35  N   UNK A   0      -5.105   5.077 132.123  0.00  0.00    +0.000 N 
ATOM     36  C   UNK A   0      -6.030   6.235 132.120  0.00  0.00    +0.000 C 
ATOM     37  C   UNK A   0      -5.591   6.976 130.894  0.00  0.00    +0.000 C 
ATOM     38  O   UNK A   0      -4.307   7.566 130.904  0.00  0.00    +0.000 OA
ATOM     39  C   UNK A   0      -3.369   6.464 130.943  0.00  0.00    +0.000 C 
ATOM     40  C   UNK A   0      -3.727   5.630 132.199  0.00  0.00    +0.000 C 
ENDBRANCH  23  33
ENDBRANCH   8  23
TORSDOF 6
ENDMDL
MODEL 5
REMARK VINA RESULT:      -9.6      3.527      6.884
REMARK  Name = CHEMBL2037490
REMARK  10 active torsions:
REMARK  status: ('A' for Active; 'I' for Inactive)
REMARK    1  A    between atoms: CD1_1  and  CG_2
REMARK    2  A    between atoms: CG_2  and  CD2_3
REMARK    3  A    between atoms: CG_2  and  CB_4
REMARK    4  A    between atoms: CB_4  and  CA_5
REMARK    5  A    between atoms: C_9  and  C_10
REMARK    6  A    between atoms: N_21  and  C_22
REMARK    7  A    between atoms: C_22  and  C_23
REMARK    8  A    between atoms: C_22  and  C_31
REMARK    9  A    between atoms: N_35  and  C_36
REMARK   10  A    between atoms: N_35  and  C_37
REMARK                            x       y       z     vdW  Elec       q    Type
REMARK                         _______ _______ _______ _____ _____    ______ ____
ROOT
ATOM      1  CA  LEU A   2      -5.822   2.965 130.752  0.00  0.00    +0.000 C 
ATOM      2  C   LEU A   2      -5.403   3.954 131.889  0.00  0.00    +0.000 C 
ATOM      3  O   LEU A   2      -5.617   3.839 133.118  0.00  0.00    +0.000 OA
ATOM      4  N   UNK A   1      -4.694   5.004 131.455  0.00  0.00    +0.000 N 
ATOM      5  C   UNK A   1      -4.213   5.028 130.091  0.00  0.00    +0.000 C 
ATOM      6  C   UNK A   1      -5.386   4.780 129.160  0.00  0.00    +0.000 C 
ATOM      7  O   UNK A   1      -5.416   5.391 128.077  0.00  0.00    +0.000 OA
ATOM      8  N   LEU A   2      -6.303   3.829 129.601  0.00  0.00    +0.000 N 
ATOM      9  H   UNK A   1      -4.368   5.646 132.172  0.00  0.00    +0.000 HD
ENDROOT
BRANCH   5  10
ATOM     10  C   UNK A   1      -3.624   6.384 129.695  0.00  0.00    +0.000 C 
ATOM     11  C   UNK A   1      -2.099   6.311 129.676  0.00  0.00    +0.000 C 
ATOM     12  C   UNK A   1      -1.775   6.739 131.075  0.00  0.00    +0.000 A 
ATOM     13  C   UNK A   1      -0.641   6.434 131.801  0.00  0.00    +0.000 A 
ATOM     14  C   UNK A   1      -0.595   6.814 133.143  0.00  0.00    +0.000 A 
ATOM     15  C   UNK A   1      -1.682   7.469 133.745  0.00  0.00    +0.000 A 
ATOM     16  C   UNK A   1      -2.836   7.753 133.015  0.00  0.00    +0.000 A 
ATOM     17  C   UNK A   1      -2.863   7.393 131.678  0.00  0.00    +0.000 A 
ATOM     18  C   UNK A   1      -4.015   7.483 130.728  0.00  0.00    +0.000 C 
ENDBRANCH   5  10
BRANCH   1  19
ATOM     19  CB  LEU A   2      -6.949   2.080 131.202  0.00  0.00    +0.000 C 
BRANCH  19  21
ATOM     20  CD1 LEU A   2      -7.962  -0.669 130.680  0.00  0.00    +0.000 C 
ATOM     21  CG  LEU A   2      -6.846   0.484 131.215  0.00  0.00    +0.000 C 
ATOM     22  CD2 LEU A   2      -5.827   0.387 130.122  0.00  0.00    +0.000 C 
ENDBRANCH  19  21
ENDBRANCH   1  19
BRANCH   8  23
ATOM     23  C   UNK A   0      -7.750   3.786 129.067  0.00  0.00    +0.000 C 
BRANCH  23  24
ATOM     24  C   UNK A   0      -7.880   2.832 127.839  0.00  0.00    +0.000 A 
ATOM     25  C   UNK A   0      -8.630   1.651 127.930  0.00  0.00    +0.000 A 
ATOM     26  C   UNK A   0      -8.524   0.674 126.939  0.00  0.00    +0.000 A 
ATOM     27  C   UNK A   0      -7.827   0.926 125.765  0.00  0.00    +0.000 A 
ATOM     28  N   UNK A   0      -7.739   0.023 124.732  0.00  0.00    +0.000 N 
ATOM     29  C   UNK A   0      -7.080   0.424 123.495  0.00  0.00    +0.000 C 
ATOM     30  C   UNK A   0      -8.398  -1.263 124.756  0.00  0.00    +0.000 C 
ATOM     31  N   UNK A   0      -7.198   2.100 125.621  0.00  0.00    +0.000 NA
ATOM     32  C   UNK A   0      -7.205   2.987 126.641  0.00  0.00    +0.000 A 
ENDBRANCH  23  24
BRANCH  23  33
ATOM     33  C   UNK A   0      -8.703   5.218 128.905  0.00  0.00    +0.000 C 
ATOM     34  O   UNK A   0      -9.120   5.542 127.782  0.00  0.00    +0.000 OA
ATOM     35  N   UNK A   0      -9.378   5.919 129.912  0.00  0.00    +0.000 N 
ATOM     36  C   UNK A   0      -8.922   6.673 131.103  0.00  0.00    +0.000 C 
ATOM     37  C   UNK A   0      -9.823   6.134 132.171  0.00  0.00    +0.000 C 
ATOM     38  O   UNK A   0     -11.202   6.434 132.086  0.00  0.00    +0.000 OA
ATOM     39  C   UNK A   0     -11.681   5.741 130.910  0.00  0.00    +0.000 C 
ATOM     40  C   UNK A   0     -10.817   6.242 129.725  0.00  0.00    +0.000 C 
ENDBRANCH  23  33
ENDBRANCH   8  23
TORSDOF 6
ENDMDL
MODEL 6
REMARK VINA RESULT:      -9.5      3.058      8.267
REMARK  Name = CHEMBL2037490
REMARK  10 active torsions:
REMARK  status: ('A' for Active; 'I' for Inactive)
REMARK    1  A    between atoms: CD1_1  and  CG_2
REMARK    2  A    between atoms: CG_2  and  CD2_3
REMARK    3  A    between atoms: CG_2  and  CB_4
REMARK    4  A    between atoms: CB_4  and  CA_5
REMARK    5  A    between atoms: C_9  and  C_10
REMARK    6  A    between atoms: N_21  and  C_22
REMARK    7  A    between atoms: C_22  and  C_23
REMARK    8  A    between atoms: C_22  and  C_31
REMARK    9  A    between atoms: N_35  and  C_36
REMARK   10  A    between atoms: N_35  and  C_37
REMARK                            x       y       z     vdW  Elec       q    Type
REMARK                         _______ _______ _______ _____ _____    ______ ____
ROOT
ATOM      1  CA  LEU A   2      -7.857   0.962 129.318  0.00  0.00    +0.000 C 
ATOM      2  C   LEU A   2      -6.920  -0.085 128.631  0.00  0.00    +0.000 C 
ATOM      3  O   LEU A   2      -6.166  -0.916 129.187  0.00  0.00    +0.000 OA
ATOM      4  N   UNK A   1      -7.006  -0.090 127.294  0.00  0.00    +0.000 N 
ATOM      5  C   UNK A   1      -8.050   0.670 126.642  0.00  0.00    +0.000 C 
ATOM      6  C   UNK A   1      -7.996   2.100 127.149  0.00  0.00    +0.000 C 
ATOM      7  O   UNK A   1      -8.241   3.018 126.346  0.00  0.00    +0.000 OA
ATOM      8  N   LEU A   2      -7.724   2.238 128.508  0.00  0.00    +0.000 N 
ATOM      9  H   UNK A   1      -6.443  -0.787 126.815  0.00  0.00    +0.000 HD
ENDROOT
BRANCH   5  10
ATOM     10  C   UNK A   1      -7.870   0.741 125.124  0.00  0.00    +0.000 C 
ATOM     11  C   UNK A   1      -9.033   0.044 124.422  0.00  0.00    +0.000 C 
ATOM     12  C   UNK A   1      -8.489  -1.345 124.279  0.00  0.00    +0.000 A 
ATOM     13  C   UNK A   1      -9.209  -2.517 124.161  0.00  0.00    +0.000 A 
ATOM     14  C   UNK A   1      -8.510  -3.725 124.180  0.00  0.00    +0.000 A 
ATOM     15  C   UNK A   1      -7.114  -3.749 124.337  0.00  0.00    +0.000 A 
ATOM     16  C   UNK A   1      -6.393  -2.564 124.482  0.00  0.00    +0.000 A 
ATOM     17  C   UNK A   1      -7.092  -1.370 124.438  0.00  0.00    +0.000 A 
ATOM     18  C   UNK A   1      -6.567   0.010 124.684  0.00  0.00    +0.000 C 
ENDBRANCH   5  10
BRANCH   1  19
ATOM     19  CB  LEU A   2      -7.414   1.230 130.727  0.00  0.00    +0.000 C 
BRANCH  19  21
ATOM     20  CD1 LEU A   2     -10.022   1.676 132.089  0.00  0.00    +0.000 C 
ATOM     21  CG  LEU A   2      -8.413   1.172 131.976  0.00  0.00    +0.000 C 
ATOM     22  CD2 LEU A   2      -8.605  -0.312 131.949  0.00  0.00    +0.000 C 
ENDBRANCH  19  21
ENDBRANCH   1  19
BRANCH   8  23
ATOM     23  C   UNK A   0      -7.165   3.551 129.096  0.00  0.00    +0.000 C 
BRANCH  23  24
ATOM     24  C   UNK A   0      -8.306   4.562 129.428  0.00  0.00    +0.000 A 
ATOM     25  C   UNK A   0      -8.747   4.730 130.748  0.00  0.00    +0.000 A 
ATOM     26  C   UNK A   0      -9.933   5.416 131.009  0.00  0.00    +0.000 A 
ATOM     27  C   UNK A   0     -10.597   6.099 129.998  0.00  0.00    +0.000 A 
ATOM     28  N   UNK A   0     -11.736   6.839 130.211  0.00  0.00    +0.000 N 
ATOM     29  C   UNK A   0     -12.294   7.611 129.107  0.00  0.00    +0.000 C 
ATOM     30  C   UNK A   0     -12.330   7.007 131.516  0.00  0.00    +0.000 C 
ATOM     31  N   UNK A   0     -10.118   6.037 128.749  0.00  0.00    +0.000 NA
ATOM     32  C   UNK A   0      -9.039   5.265 128.489  0.00  0.00    +0.000 A 
ENDBRANCH  23  24
BRANCH  23  33
ATOM     33  C   UNK A   0      -5.762   4.317 128.439  0.00  0.00    +0.000 C 
ATOM     34  O   UNK A   0      -5.844   4.886 127.339  0.00  0.00    +0.000 OA
ATOM     35  N   UNK A   0      -4.595   4.697 129.114  0.00  0.00    +0.000 N 
ATOM     36  C   UNK A   0      -3.531   3.933 129.806  0.00  0.00    +0.000 C 
ATOM     37  C   UNK A   0      -3.401   4.687 131.095  0.00  0.00    +0.000 C 
ATOM     38  O   UNK A   0      -2.894   6.006 131.041  0.00  0.00    +0.000 OA
ATOM     39  C   UNK A   0      -3.893   6.781 130.337  0.00  0.00    +0.000 C 
ATOM     40  C   UNK A   0      -4.096   6.089 128.965  0.00  0.00    +0.000 C 
ENDBRANCH  23  33
ENDBRANCH   8  23
TORSDOF 6
ENDMDL
MODEL 7
REMARK VINA RESULT:      -9.4      4.332      8.343
REMARK  Name = CHEMBL2037490
REMARK  10 active torsions:
REMARK  status: ('A' for Active; 'I' for Inactive)
REMARK    1  A    between atoms: CD1_1  and  CG_2
REMARK    2  A    between atoms: CG_2  and  CD2_3
REMARK    3  A    between atoms: CG_2  and  CB_4
REMARK    4  A    between atoms: CB_4  and  CA_5
REMARK    5  A    between atoms: C_9  and  C_10
REMARK    6  A    between atoms: N_21  and  C_22
REMARK    7  A    between atoms: C_22  and  C_23
REMARK    8  A    between atoms: C_22  and  C_31
REMARK    9  A    between atoms: N_35  and  C_36
REMARK   10  A    between atoms: N_35  and  C_37
REMARK                            x       y       z     vdW  Elec       q    Type
REMARK                         _______ _______ _______ _____ _____    ______ ____
ROOT
ATOM      1  CA  LEU A   2      -7.528   2.386 129.347  0.00  0.00    +0.000 C 
ATOM      2  C   LEU A   2      -8.039   3.668 128.610  0.00  0.00    +0.000 C 
ATOM      3  O   LEU A   2      -8.263   3.806 127.386  0.00  0.00    +0.000 OA
ATOM      4  N   UNK A   1      -8.300   4.693 129.432  0.00  0.00    +0.000 N 
ATOM      5  C   UNK A   1      -8.300   4.482 130.862  0.00  0.00    +0.000 C 
ATOM      6  C   UNK A   1      -6.986   3.830 131.255  0.00  0.00    +0.000 C 
ATOM      7  O   UNK A   1      -6.466   4.159 132.336  0.00  0.00    +0.000 OA
ATOM      8  N   LEU A   2      -6.513   2.866 130.368  0.00  0.00    +0.000 N 
ATOM      9  H   UNK A   1      -8.675   5.529 128.992  0.00  0.00    +0.000 HD
ENDROOT
BRANCH   5  10
ATOM     10  C   UNK A   1      -8.390   5.788 131.654  0.00  0.00    +0.000 C 
ATOM     11  C   UNK A   1      -9.691   5.832 132.452  0.00  0.00    +0.000 C 
ATOM     12  C   UNK A   1     -10.599   6.524 131.481  0.00  0.00    +0.000 A 
ATOM     13  C   UNK A   1     -11.975   6.442 131.419  0.00  0.00    +0.000 A 
ATOM     14  C   UNK A   1     -12.624   7.055 130.347  0.00  0.00    +0.000 A 
ATOM     15  C   UNK A   1     -11.896   7.719 129.346  0.00  0.00    +0.000 A 
ATOM     16  C   UNK A   1     -10.503   7.779 129.399  0.00  0.00    +0.000 A 
ATOM     17  C   UNK A   1      -9.870   7.187 130.479  0.00  0.00    +0.000 A 
ATOM     18  C   UNK A   1      -8.399   7.018 130.698  0.00  0.00    +0.000 C 
ENDBRANCH   5  10
BRANCH   1  19
ATOM     19  CB  LEU A   2      -6.850   1.453 128.386  0.00  0.00    +0.000 C 
BRANCH  19  21
ATOM     20  CD1 LEU A   2      -6.378  -1.452 127.944  0.00  0.00    +0.000 C 
ATOM     21  CG  LEU A   2      -7.314  -0.063 128.175  0.00  0.00    +0.000 C 
ATOM     22  CD2 LEU A   2      -7.764  -0.283 129.585  0.00  0.00    +0.000 C 
ENDBRANCH  19  21
ENDBRANCH   1  19
BRANCH   8  23
ATOM     23  C   UNK A   0      -5.026   2.457 130.329  0.00  0.00    +0.000 C 
BRANCH  23  24
ATOM     24  C   UNK A   0      -4.767   1.157 131.151  0.00  0.00    +0.000 A 
ATOM     25  C   UNK A   0      -4.103   0.067 130.571  0.00  0.00    +0.000 A 
ATOM     26  C   UNK A   0      -4.113  -1.178 131.201  0.00  0.00    +0.000 A 
ATOM     27  C   UNK A   0      -4.615  -1.318 132.488  0.00  0.00    +0.000 A 
ATOM     28  N   UNK A   0      -4.597  -2.507 133.179  0.00  0.00    +0.000 N 
ATOM     29  C   UNK A   0      -5.044  -2.526 134.566  0.00  0.00    +0.000 C 
ATOM     30  C   UNK A   0      -4.019  -3.717 132.642  0.00  0.00    +0.000 C 
ATOM     31  N   UNK A   0      -5.152  -0.253 133.097  0.00  0.00    +0.000 NA
ATOM     32  C   UNK A   0      -5.249   0.917 132.426  0.00  0.00    +0.000 A 
ENDBRANCH  23  24
BRANCH  23  33
ATOM     33  C   UNK A   0      -3.757   3.619 130.498  0.00  0.00    +0.000 C 
ATOM     34  O   UNK A   0      -3.423   4.296 129.512  0.00  0.00    +0.000 OA
ATOM     35  N   UNK A   0      -3.251   4.172 131.680  0.00  0.00    +0.000 N 
ATOM     36  C   UNK A   0      -2.523   3.599 132.836  0.00  0.00    +0.000 C 
ATOM     37  C   UNK A   0      -3.278   4.180 133.993  0.00  0.00    +0.000 C 
ATOM     38  O   UNK A   0      -3.199   5.576 134.199  0.00  0.00    +0.000 OA
ATOM     39  C   UNK A   0      -3.871   6.177 133.067  0.00  0.00    +0.000 C 
ATOM     40  C   UNK A   0      -3.151   5.650 131.801  0.00  0.00    +0.000 C 
ENDBRANCH  23  33
ENDBRANCH   8  23
TORSDOF 6
ENDMDL
MODEL 8
REMARK VINA RESULT:      -9.4      3.070      5.042
REMARK  Name = CHEMBL2037490
REMARK  10 active torsions:
REMARK  status: ('A' for Active; 'I' for Inactive)
REMARK    1  A    between atoms: CD1_1  and  CG_2
REMARK    2  A    between atoms: CG_2  and  CD2_3
REMARK    3  A    between atoms: CG_2  and  CB_4
REMARK    4  A    between atoms: CB_4  and  CA_5
REMARK    5  A    between atoms: C_9  and  C_10
REMARK    6  A    between atoms: N_21  and  C_22
REMARK    7  A    between atoms: C_22  and  C_23
REMARK    8  A    between atoms: C_22  and  C_31
REMARK    9  A    between atoms: N_35  and  C_36
REMARK   10  A    between atoms: N_35  and  C_37
REMARK                            x       y       z     vdW  Elec       q    Type
REMARK                         _______ _______ _______ _____ _____    ______ ____
ROOT
ATOM      1  CA  LEU A   2      -5.199   2.641 129.095  0.00  0.00    +0.000 C 
ATOM      2  C   LEU A   2      -5.417   3.213 130.534  0.00  0.00    +0.000 C 
ATOM      3  O   LEU A   2      -4.593   3.839 131.240  0.00  0.00    +0.000 OA
ATOM      4  N   UNK A   1      -6.658   3.030 131.004  0.00  0.00    +0.000 N 
ATOM      5  C   UNK A   1      -7.694   2.547 130.118  0.00  0.00    +0.000 C 
ATOM      6  C   UNK A   1      -7.205   1.275 129.450  0.00  0.00    +0.000 C 
ATOM      7  O   UNK A   1      -8.029   0.366 129.241  0.00  0.00    +0.000 OA
ATOM      8  N   LEU A   2      -5.862   1.276 129.081  0.00  0.00    +0.000 N 
ATOM      9  H   UNK A   1      -6.849   3.427 131.919  0.00  0.00    +0.000 HD
ENDROOT
BRANCH   5  10
ATOM     10  C   UNK A   1      -8.983   2.181 130.858  0.00  0.00    +0.000 C 
ATOM     11  C   UNK A   1     -10.180   2.867 130.203  0.00  0.00    +0.000 C 
ATOM     12  C   UNK A   1     -10.252   4.136 130.997  0.00  0.00    +0.000 A 
ATOM     13  C   UNK A   1     -10.796   5.341 130.600  0.00  0.00    +0.000 A 
ATOM     14  C   UNK A   1     -10.636   6.444 131.439  0.00  0.00    +0.000 A 
ATOM     15  C   UNK A   1      -9.922   6.338 132.644  0.00  0.00    +0.000 A 
ATOM     16  C   UNK A   1      -9.352   5.125 133.029  0.00  0.00    +0.000 A 
ATOM     17  C   UNK A   1      -9.536   4.030 132.202  0.00  0.00    +0.000 A 
ATOM     18  C   UNK A   1      -8.931   2.668 132.337  0.00  0.00    +0.000 C 
ENDBRANCH   5  10
BRANCH   1  19
ATOM     19  CB  LEU A   2      -3.735   2.475 128.803  0.00  0.00    +0.000 C 
BRANCH  19  21
ATOM     20  CD1 LEU A   2      -1.634   2.943 126.748  0.00  0.00    +0.000 C 
ATOM     21  CG  LEU A   2      -2.964   3.351 127.708  0.00  0.00    +0.000 C 
ATOM     22  CD2 LEU A   2      -4.052   3.304 126.681  0.00  0.00    +0.000 C 
ENDBRANCH  19  21
ENDBRANCH   1  19
BRANCH   8  23
ATOM     23  C   UNK A   0      -5.081  -0.034 128.848  0.00  0.00    +0.000 C 
BRANCH  23  24
ATOM     24  C   UNK A   0      -5.561  -0.765 127.556  0.00  0.00    +0.000 A 
ATOM     25  C   UNK A   0      -5.338  -0.201 126.292  0.00  0.00    +0.000 A 
ATOM     26  C   UNK A   0      -5.997  -0.706 125.171  0.00  0.00    +0.000 A 
ATOM     27  C   UNK A   0      -6.734  -1.880 125.250  0.00  0.00    +0.000 A 
ATOM     28  N   UNK A   0      -7.355  -2.454 124.165  0.00  0.00    +0.000 N 
ATOM     29  C   UNK A   0      -8.009  -3.747 124.327  0.00  0.00    +0.000 C 
ATOM     30  C   UNK A   0      -7.267  -1.908 122.831  0.00  0.00    +0.000 C 
ATOM     31  N   UNK A   0      -6.860  -2.491 126.434  0.00  0.00    +0.000 NA
ATOM     32  C   UNK A   0      -6.321  -1.922 127.536  0.00  0.00    +0.000 A 
ENDBRANCH  23  24
BRANCH  23  33
ATOM     33  C   UNK A   0      -4.726  -1.125 130.141  0.00  0.00    +0.000 C 
ATOM     34  O   UNK A   0      -3.552  -1.480 130.325  0.00  0.00    +0.000 OA
ATOM     35  N   UNK A   0      -5.522  -1.426 131.252  0.00  0.00    +0.000 N 
ATOM     36  C   UNK A   0      -6.839  -2.087 131.407  0.00  0.00    +0.000 C 
ATOM     37  C   UNK A   0      -7.549  -1.144 132.330  0.00  0.00    +0.000 C 
ATOM     38  O   UNK A   0      -7.069  -1.029 133.655  0.00  0.00    +0.000 OA
ATOM     39  C   UNK A   0      -5.762  -0.417 133.545  0.00  0.00    +0.000 C 
ATOM     40  C   UNK A   0      -4.928  -1.332 132.612  0.00  0.00    +0.000 C 
ENDBRANCH  23  33
ENDBRANCH   8  23
TORSDOF 6
ENDMDL
MODEL 9
REMARK VINA RESULT:      -9.4      3.799      7.342
REMARK  Name = CHEMBL2037490
REMARK  10 active torsions:
REMARK  status: ('A' for Active; 'I' for Inactive)
REMARK    1  A    between atoms: CD1_1  and  CG_2
REMARK    2  A    between atoms: CG_2  and  CD2_3
REMARK    3  A    between atoms: CG_2  and  CB_4
REMARK    4  A    between atoms: CB_4  and  CA_5
REMARK    5  A    between atoms: C_9  and  C_10
REMARK    6  A    between atoms: N_21  and  C_22
REMARK    7  A    between atoms: C_22  and  C_23
REMARK    8  A    between atoms: C_22  and  C_31
REMARK    9  A    between atoms: N_35  and  C_36
REMARK   10  A    between atoms: N_35  and  C_37
REMARK                            x       y       z     vdW  Elec       q    Type
REMARK                         _______ _______ _______ _____ _____    ______ ____
ROOT
ATOM      1  CA  LEU A   2      -6.152   2.551 132.024  0.00  0.00    +0.000 C 
ATOM      2  C   LEU A   2      -5.001   1.557 131.658  0.00  0.00    +0.000 C 
ATOM      3  O   LEU A   2      -3.917   1.389 132.262  0.00  0.00    +0.000 OA
ATOM      4  N   UNK A   1      -5.275   0.783 130.599  0.00  0.00    +0.000 N 
ATOM      5  C   UNK A   1      -6.611   0.773 130.046  0.00  0.00    +0.000 C 
ATOM      6  C   UNK A   1      -7.026   2.205 129.758  0.00  0.00    +0.000 C 
ATOM      7  O   UNK A   1      -7.715   2.424 128.745  0.00  0.00    +0.000 OA
ATOM      8  N   LEU A   2      -6.630   3.141 130.710  0.00  0.00    +0.000 N 
ATOM      9  H   UNK A   1      -4.567   0.095 130.358  0.00  0.00    +0.000 HD
ENDROOT
BRANCH   5  10
ATOM     10  C   UNK A   1      -6.696   0.020 128.717  0.00  0.00    +0.000 C 
ATOM     11  C   UNK A   1      -7.701  -1.125 128.822  0.00  0.00    +0.000 C 
ATOM     12  C   UNK A   1      -6.806  -2.252 129.241  0.00  0.00    +0.000 A 
ATOM     13  C   UNK A   1      -7.165  -3.391 129.933  0.00  0.00    +0.000 A 
ATOM     14  C   UNK A   1      -6.152  -4.255 130.350  0.00  0.00    +0.000 A 
ATOM     15  C   UNK A   1      -4.802  -3.965 130.091  0.00  0.00    +0.000 A 
ATOM     16  C   UNK A   1      -4.442  -2.800 129.413  0.00  0.00    +0.000 A 
ATOM     17  C   UNK A   1      -5.456  -1.960 128.983  0.00  0.00    +0.000 A 
ATOM     18  C   UNK A   1      -5.321  -0.612 128.347  0.00  0.00    +0.000 C 
ENDBRANCH   5  10
BRANCH   1  19
ATOM     19  CB  LEU A   2      -5.641   3.660 132.899  0.00  0.00    +0.000 C 
BRANCH  19  21
ATOM     20  CD1 LEU A   2      -8.146   4.083 134.449  0.00  0.00    +0.000 C 
ATOM     21  CG  LEU A   2      -6.515   4.314 134.069  0.00  0.00    +0.000 C 
ATOM     22  CD2 LEU A   2      -5.876   3.548 135.184  0.00  0.00    +0.000 C 
ENDBRANCH  19  21
ENDBRANCH   1  19
BRANCH   8  23
ATOM     23  C   UNK A   0      -6.528   4.644 130.378  0.00  0.00    +0.000 C 
BRANCH  23  24
ATOM     24  C   UNK A   0      -7.936   5.310 130.292  0.00  0.00    +0.000 A 
ATOM     25  C   UNK A   0      -8.444   6.046 131.371  0.00  0.00    +0.000 A 
ATOM     26  C   UNK A   0      -9.792   6.404 131.404  0.00  0.00    +0.000 A 
ATOM     27  C   UNK A   0     -10.608   6.204 130.298  0.00  0.00    +0.000 A 
ATOM     28  N   UNK A   0     -11.927   6.591 130.254  0.00  0.00    +0.000 N 
ATOM     29  C   UNK A   0     -12.667   6.439 129.008  0.00  0.00    +0.000 C 
ATOM     30  C   UNK A   0     -12.579   7.277 131.345  0.00  0.00    +0.000 C 
ATOM     31  N   UNK A   0     -10.099   5.601 129.216  0.00  0.00    +0.000 NA
ATOM     32  C   UNK A   0      -8.827   5.146 129.245  0.00  0.00    +0.000 A 
ENDBRANCH  23  24
BRANCH  23  33
ATOM     33  C   UNK A   0      -5.432   5.239 129.181  0.00  0.00    +0.000 C 
ATOM     34  O   UNK A   0      -4.733   6.231 129.443  0.00  0.00    +0.000 OA
ATOM     35  N   UNK A   0      -4.951   4.571 128.049  0.00  0.00    +0.000 N 
ATOM     36  C   UNK A   0      -5.602   4.060 126.820  0.00  0.00    +0.000 C 
ATOM     37  C   UNK A   0      -5.034   2.677 126.724  0.00  0.00    +0.000 C 
ATOM     38  O   UNK A   0      -3.652   2.547 126.456  0.00  0.00    +0.000 OA
ATOM     39  C   UNK A   0      -2.976   3.070 127.624  0.00  0.00    +0.000 C 
ATOM     40  C   UNK A   0      -3.484   4.522 127.809  0.00  0.00    +0.000 C 
ENDBRANCH  23  33
ENDBRANCH   8  23
TORSDOF 6
ENDMDL
