MODEL 1
REMARK VINA RESULT:      -8.8      0.000      0.000
REMARK  Name = CHEMBL427353
REMARK  11 active torsions:
REMARK  status: ('A' for Active; 'I' for Inactive)
REMARK    1  A    between atoms: CD1_1  and  CG_2
REMARK    2  A    between atoms: CG_2  and  CD2_3
REMARK    3  A    between atoms: CG_2  and  CB_4
REMARK    4  A    between atoms: CB_4  and  CA_5
REMARK    5  A    between atoms: C_9  and  C_10
REMARK    6  A    between atoms: N_21  and  C_22
REMARK    7  A    between atoms: C_22  and  C_23
REMARK    8  A    between atoms: C_22  and  C_29
REMARK    9  A    between atoms: N_25  and  C_26
REMARK   10  A    between atoms: C_26  and  C_27
REMARK   11  A    between atoms: C_26  and  C_28
REMARK                            x       y       z     vdW  Elec       q    Type
REMARK                         _______ _______ _______ _____ _____    ______ ____
ROOT
ATOM      1  CA  LEU A   2      -8.224   3.546 130.275  0.00  0.00    +0.000 C 
ATOM      2  C   LEU A   2      -8.524   4.298 128.996  0.00  0.00    +0.000 C 
ATOM      3  O   LEU A   2      -8.167   3.989 127.839  0.00  0.00    +0.000 OA
ATOM      4  N   UNK A   1      -9.340   5.342 129.196  0.00  0.00    +0.000 N 
ATOM      5  C   UNK A   1      -9.820   5.700 130.522  0.00  0.00    +0.000 C 
ATOM      6  C   UNK A   1      -8.651   5.549 131.554  0.00  0.00    +0.000 C 
ATOM      7  O   UNK A   1      -8.597   6.274 132.550  0.00  0.00    +0.000 OA
ATOM      8  N   LEU A   2      -7.749   4.489 131.314  0.00  0.00    +0.000 N 
ATOM      9  H   UNK A   1      -9.615   5.827 128.350  0.00  0.00    +0.000 HD
ENDROOT
BRANCH   5  10
ATOM     10  C   UNK A   1     -10.276   7.173 130.589  0.00  0.00    +0.000 C 
ATOM     11  C   UNK A   1     -11.801   7.346 130.740  0.00  0.00    +0.000 C 
ATOM     12  C   UNK A   1     -12.238   7.362 129.306  0.00  0.00    +0.000 A 
ATOM     13  C   UNK A   1     -13.477   7.028 128.792  0.00  0.00    +0.000 A 
ATOM     14  C   UNK A   1     -13.613   6.948 127.405  0.00  0.00    +0.000 A 
ATOM     15  C   UNK A   1     -12.519   7.183 126.556  0.00  0.00    +0.000 A 
ATOM     16  C   UNK A   1     -11.272   7.521 127.082  0.00  0.00    +0.000 A 
ATOM     17  C   UNK A   1     -11.154   7.631 128.456  0.00  0.00    +0.000 A 
ATOM     18  C   UNK A   1      -9.906   7.867 129.248  0.00  0.00    +0.000 C 
ENDBRANCH   5  10
BRANCH   1  19
ATOM     19  CB  LEU A   2      -7.310   2.438 129.952  0.00  0.00    +0.000 C 
BRANCH  19  21
ATOM     20  CD1 LEU A   2      -6.762   0.518 131.248  0.00  0.00    +0.000 C 
ATOM     21  CG  LEU A   2      -7.895   1.136 130.540  0.00  0.00    +0.000 C 
ATOM     22  CD2 LEU A   2      -9.080   1.227 131.502  0.00  0.00    +0.000 C 
ENDBRANCH  19  21
ENDBRANCH   1  19
BRANCH   8  23
ATOM     23  C   UNK A   0      -6.612   4.230 132.333  0.00  0.00    +0.000 C 
BRANCH  23  24
ATOM     24  C   UNK A   0      -5.267   4.919 131.835  0.00  0.00    +0.000 A 
ATOM     25  C   UNK A   0      -5.246   6.291 131.531  0.00  0.00    +0.000 A 
ATOM     26  C   UNK A   0      -4.123   6.874 130.929  0.00  0.00    +0.000 A 
ATOM     27  C   UNK A   0      -2.980   6.121 130.689  0.00  0.00    +0.000 A 
ATOM     28  F   UNK A   0      -1.917   6.684 130.101  0.00  0.00    +0.000 F 
ATOM     29  C   UNK A   0      -2.937   4.784 131.024  0.00  0.00    +0.000 A 
ATOM     30  C   UNK A   0      -4.074   4.195 131.571  0.00  0.00    +0.000 A 
ENDBRANCH  23  24
BRANCH  23  31
ATOM     31  C   UNK A   0      -6.711   4.428 134.049  0.00  0.00    +0.000 C 
ATOM     32  O   UNK A   0      -6.686   3.463 134.823  0.00  0.00    +0.000 OA
ATOM     33  N   UNK A   0      -6.849   5.674 134.655  0.00  0.00    +0.000 N 
ATOM     34  H   UNK A   0      -7.085   6.476 134.082  0.00  0.00    +0.000 HD
BRANCH  33  35
ATOM     35  C   UNK A   0      -6.693   5.856 136.148  0.00  0.00    +0.000 C 
ATOM     36  C   UNK A   0      -5.539   6.725 136.644  0.00  0.00    +0.000 C 
ATOM     37  C   UNK A   0      -7.869   6.579 136.741  0.00  0.00    +0.000 C 
ENDBRANCH  33  35
ENDBRANCH  23  31
ENDBRANCH   8  23
TORSDOF 7
ENDMDL
MODEL 2
REMARK VINA RESULT:      -8.6      6.766     10.221
REMARK  Name = CHEMBL427353
REMARK  11 active torsions:
REMARK  status: ('A' for Active; 'I' for Inactive)
REMARK    1  A    between atoms: CD1_1  and  CG_2
REMARK    2  A    between atoms: CG_2  and  CD2_3
REMARK    3  A    between atoms: CG_2  and  CB_4
REMARK    4  A    between atoms: CB_4  and  CA_5
REMARK    5  A    between atoms: C_9  and  C_10
REMARK    6  A    between atoms: N_21  and  C_22
REMARK    7  A    between atoms: C_22  and  C_23
REMARK    8  A    between atoms: C_22  and  C_29
REMARK    9  A    between atoms: N_25  and  C_26
REMARK   10  A    between atoms: C_26  and  C_27
REMARK   11  A    between atoms: C_26  and  C_28
REMARK                            x       y       z     vdW  Elec       q    Type
REMARK                         _______ _______ _______ _____ _____    ______ ____
ROOT
ATOM      1  CA  LEU A   2      -6.529  -2.208 126.394  0.00  0.00    +0.000 C 
ATOM      2  C   LEU A   2      -7.563  -2.822 127.313  0.00  0.00    +0.000 C 
ATOM      3  O   LEU A   2      -8.531  -3.540 126.985  0.00  0.00    +0.000 OA
ATOM      4  N   UNK A   1      -7.289  -2.606 128.607  0.00  0.00    +0.000 N 
ATOM      5  C   UNK A   1      -6.139  -1.821 129.030  0.00  0.00    +0.000 C 
ATOM      6  C   UNK A   1      -5.989  -0.576 128.089  0.00  0.00    +0.000 C 
ATOM      7  O   UNK A   1      -5.515   0.479 128.517  0.00  0.00    +0.000 OA
ATOM      8  N   LEU A   2      -6.337  -0.779 126.736  0.00  0.00    +0.000 N 
ATOM      9  H   UNK A   1      -7.924  -3.061 129.252  0.00  0.00    +0.000 HD
ENDROOT
BRANCH   5  10
ATOM     10  C   UNK A   1      -6.313  -1.271 130.460  0.00  0.00    +0.000 C 
ATOM     11  C   UNK A   1      -4.985  -1.074 131.219  0.00  0.00    +0.000 C 
ATOM     12  C   UNK A   1      -4.803  -2.424 131.847  0.00  0.00    +0.000 A 
ATOM     13  C   UNK A   1      -3.624  -3.022 132.248  0.00  0.00    +0.000 A 
ATOM     14  C   UNK A   1      -3.669  -4.358 132.652  0.00  0.00    +0.000 A 
ATOM     15  C   UNK A   1      -4.875  -5.078 132.635  0.00  0.00    +0.000 A 
ATOM     16  C   UNK A   1      -6.062  -4.467 132.231  0.00  0.00    +0.000 A 
ATOM     17  C   UNK A   1      -6.014  -3.133 131.864  0.00  0.00    +0.000 A 
ATOM     18  C   UNK A   1      -7.122  -2.305 131.292  0.00  0.00    +0.000 C 
ENDBRANCH   5  10
BRANCH   1  19
ATOM     19  CB  LEU A   2      -6.931  -2.483 125.004  0.00  0.00    +0.000 C 
BRANCH  19  21
ATOM     20  CD1 LEU A   2      -5.061  -3.717 124.198  0.00  0.00    +0.000 C 
ATOM     21  CG  LEU A   2      -5.678  -2.383 124.106  0.00  0.00    +0.000 C 
ATOM     22  CD2 LEU A   2      -5.855  -2.029 122.629  0.00  0.00    +0.000 C 
ENDBRANCH  19  21
ENDBRANCH   1  19
BRANCH   8  23
ATOM     23  C   UNK A   0      -6.143   0.384 125.731  0.00  0.00    +0.000 C 
BRANCH  23  24
ATOM     24  C   UNK A   0      -7.543   0.794 125.096  0.00  0.00    +0.000 A 
ATOM     25  C   UNK A   0      -8.704   0.800 125.888  0.00  0.00    +0.000 A 
ATOM     26  C   UNK A   0      -9.965   0.988 125.307  0.00  0.00    +0.000 A 
ATOM     27  C   UNK A   0     -10.085   1.247 123.948  0.00  0.00    +0.000 A 
ATOM     28  F   UNK A   0     -11.295   1.412 123.399  0.00  0.00    +0.000 F 
ATOM     29  C   UNK A   0      -8.967   1.306 123.142  0.00  0.00    +0.000 A 
ATOM     30  C   UNK A   0      -7.719   1.063 123.713  0.00  0.00    +0.000 A 
ENDBRANCH  23  24
BRANCH  23  31
ATOM     31  C   UNK A   0      -5.235   1.831 126.005  0.00  0.00    +0.000 C 
ATOM     32  O   UNK A   0      -5.735   2.955 125.867  0.00  0.00    +0.000 OA
ATOM     33  N   UNK A   0      -3.892   1.818 126.369  0.00  0.00    +0.000 N 
ATOM     34  H   UNK A   0      -3.370   0.952 126.294  0.00  0.00    +0.000 HD
BRANCH  33  35
ATOM     35  C   UNK A   0      -3.180   3.068 126.837  0.00  0.00    +0.000 C 
ATOM     36  C   UNK A   0      -3.198   3.382 128.332  0.00  0.00    +0.000 C 
ATOM     37  C   UNK A   0      -1.702   2.990 126.581  0.00  0.00    +0.000 C 
ENDBRANCH  33  35
ENDBRANCH  23  31
ENDBRANCH   8  23
TORSDOF 7
ENDMDL
MODEL 3
REMARK VINA RESULT:      -8.6      1.448      1.715
REMARK  Name = CHEMBL427353
REMARK  11 active torsions:
REMARK  status: ('A' for Active; 'I' for Inactive)
REMARK    1  A    between atoms: CD1_1  and  CG_2
REMARK    2  A    between atoms: CG_2  and  CD2_3
REMARK    3  A    between atoms: CG_2  and  CB_4
REMARK    4  A    between atoms: CB_4  and  CA_5
REMARK    5  A    between atoms: C_9  and  C_10
REMARK    6  A    between atoms: N_21  and  C_22
REMARK    7  A    between atoms: C_22  and  C_23
REMARK    8  A    between atoms: C_22  and  C_29
REMARK    9  A    between atoms: N_25  and  C_26
REMARK   10  A    between atoms: C_26  and  C_27
REMARK   11  A    between atoms: C_26  and  C_28
REMARK                            x       y       z     vdW  Elec       q    Type
REMARK                         _______ _______ _______ _____ _____    ______ ____
ROOT
ATOM      1  CA  LEU A   2      -7.532   3.668 129.401  0.00  0.00    +0.000 C 
ATOM      2  C   LEU A   2      -8.256   4.449 128.326  0.00  0.00    +0.000 C 
ATOM      3  O   LEU A   2      -8.210   4.256 127.093  0.00  0.00    +0.000 OA
ATOM      4  N   UNK A   1      -9.087   5.369 128.836  0.00  0.00    +0.000 N 
ATOM      5  C   UNK A   1      -9.210   5.586 130.270  0.00  0.00    +0.000 C 
ATOM      6  C   UNK A   1      -7.787   5.523 130.924  0.00  0.00    +0.000 C 
ATOM      7  O   UNK A   1      -7.531   6.190 131.930  0.00  0.00    +0.000 OA
ATOM      8  N   LEU A   2      -6.884   4.601 130.353  0.00  0.00    +0.000 N 
ATOM      9  H   UNK A   1      -9.639   5.864 128.145  0.00  0.00    +0.000 HD
ENDROOT
BRANCH   5  10
ATOM     10  C   UNK A   1      -9.780   6.983 130.593  0.00  0.00    +0.000 C 
ATOM     11  C   UNK A   1     -11.288   6.981 130.916  0.00  0.00    +0.000 C 
ATOM     12  C   UNK A   1     -11.881   7.144 129.549  0.00  0.00    +0.000 A 
ATOM     13  C   UNK A   1     -13.136   6.760 129.116  0.00  0.00    +0.000 A 
ATOM     14  C   UNK A   1     -13.418   6.854 127.751  0.00  0.00    +0.000 A 
ATOM     15  C   UNK A   1     -12.449   7.309 126.843  0.00  0.00    +0.000 A 
ATOM     16  C   UNK A   1     -11.185   7.697 127.287  0.00  0.00    +0.000 A 
ATOM     17  C   UNK A   1     -10.925   7.633 128.644  0.00  0.00    +0.000 A 
ATOM     18  C   UNK A   1      -9.621   7.884 129.336  0.00  0.00    +0.000 C 
ENDBRANCH   5  10
BRANCH   1  19
ATOM     19  CB  LEU A   2      -6.634   2.705 128.741  0.00  0.00    +0.000 C 
BRANCH  19  21
ATOM     20  CD1 LEU A   2      -8.070   1.368 130.091  0.00  0.00    +0.000 C 
ATOM     21  CG  LEU A   2      -7.255   1.296 128.866  0.00  0.00    +0.000 C 
ATOM     22  CD2 LEU A   2      -8.131   0.770 127.728  0.00  0.00    +0.000 C 
ENDBRANCH  19  21
ENDBRANCH   1  19
BRANCH   8  23
ATOM     23  C   UNK A   0      -5.485   4.428 130.994  0.00  0.00    +0.000 C 
BRANCH  23  24
ATOM     24  C   UNK A   0      -4.406   5.271 130.183  0.00  0.00    +0.000 A 
ATOM     25  C   UNK A   0      -4.559   6.660 130.036  0.00  0.00    +0.000 A 
ATOM     26  C   UNK A   0      -3.717   7.387 129.183  0.00  0.00    +0.000 A 
ATOM     27  C   UNK A   0      -2.668   6.759 128.524  0.00  0.00    +0.000 A 
ATOM     28  F   UNK A   0      -1.877   7.459 127.701  0.00  0.00    +0.000 F 
ATOM     29  C   UNK A   0      -2.446   5.407 128.684  0.00  0.00    +0.000 A 
ATOM     30  C   UNK A   0      -3.319   4.677 129.489  0.00  0.00    +0.000 A 
ENDBRANCH  23  24
BRANCH  23  31
ATOM     31  C   UNK A   0      -5.109   4.557 132.677  0.00  0.00    +0.000 C 
ATOM     32  O   UNK A   0      -4.780   3.574 133.354  0.00  0.00    +0.000 OA
ATOM     33  N   UNK A   0      -5.177   5.762 133.373  0.00  0.00    +0.000 N 
ATOM     34  H   UNK A   0      -5.636   6.554 132.939  0.00  0.00    +0.000 HD
BRANCH  33  35
ATOM     35  C   UNK A   0      -4.619   5.909 134.770  0.00  0.00    +0.000 C 
ATOM     36  C   UNK A   0      -3.533   6.958 134.999  0.00  0.00    +0.000 C 
ATOM     37  C   UNK A   0      -5.671   6.373 135.739  0.00  0.00    +0.000 C 
ENDBRANCH  33  35
ENDBRANCH  23  31
ENDBRANCH   8  23
TORSDOF 7
ENDMDL
MODEL 4
REMARK VINA RESULT:      -8.6      2.788      5.878
REMARK  Name = CHEMBL427353
REMARK  11 active torsions:
REMARK  status: ('A' for Active; 'I' for Inactive)
REMARK    1  A    between atoms: CD1_1  and  CG_2
REMARK    2  A    between atoms: CG_2  and  CD2_3
REMARK    3  A    between atoms: CG_2  and  CB_4
REMARK    4  A    between atoms: CB_4  and  CA_5
REMARK    5  A    between atoms: C_9  and  C_10
REMARK    6  A    between atoms: N_21  and  C_22
REMARK    7  A    between atoms: C_22  and  C_23
REMARK    8  A    between atoms: C_22  and  C_29
REMARK    9  A    between atoms: N_25  and  C_26
REMARK   10  A    between atoms: C_26  and  C_27
REMARK   11  A    between atoms: C_26  and  C_28
REMARK                            x       y       z     vdW  Elec       q    Type
REMARK                         _______ _______ _______ _____ _____    ______ ____
ROOT
ATOM      1  CA  LEU A   2      -7.443   5.967 131.522  0.00  0.00    +0.000 C 
ATOM      2  C   LEU A   2      -8.649   6.086 132.428  0.00  0.00    +0.000 C 
ATOM      3  O   LEU A   2      -8.651   6.155 133.676  0.00  0.00    +0.000 OA
ATOM      4  N   UNK A   1      -9.793   6.220 131.742  0.00  0.00    +0.000 N 
ATOM      5  C   UNK A   1      -9.824   6.200 130.287  0.00  0.00    +0.000 C 
ATOM      6  C   UNK A   1      -8.848   5.091 129.765  0.00  0.00    +0.000 C 
ATOM      7  O   UNK A   1      -9.081   4.497 128.709  0.00  0.00    +0.000 OA
ATOM      8  N   LEU A   2      -7.669   4.900 130.519  0.00  0.00    +0.000 N 
ATOM      9  H   UNK A   1     -10.613   6.370 132.318  0.00  0.00    +0.000 HD
ENDROOT
BRANCH   5  10
ATOM     10  C   UNK A   1     -11.224   5.840 129.748  0.00  0.00    +0.000 C 
ATOM     11  C   UNK A   1     -11.652   6.671 128.521  0.00  0.00    +0.000 C 
ATOM     12  C   UNK A   1     -12.298   7.854 129.178  0.00  0.00    +0.000 A 
ATOM     13  C   UNK A   1     -12.456   9.128 128.668  0.00  0.00    +0.000 A 
ATOM     14  C   UNK A   1     -12.934  10.124 129.522  0.00  0.00    +0.000 A 
ATOM     15  C   UNK A   1     -13.230   9.843 130.866  0.00  0.00    +0.000 A 
ATOM     16  C   UNK A   1     -13.069   8.554 131.374  0.00  0.00    +0.000 A 
ATOM     17  C   UNK A   1     -12.627   7.566 130.512  0.00  0.00    +0.000 A 
ATOM     18  C   UNK A   1     -12.274   6.151 130.851  0.00  0.00    +0.000 C 
ENDBRANCH   5  10
BRANCH   1  19
ATOM     19  CB  LEU A   2      -6.249   5.805 132.368  0.00  0.00    +0.000 C 
BRANCH  19  21
ATOM     20  CD1 LEU A   2      -3.936   5.924 131.818  0.00  0.00    +0.000 C 
ATOM     21  CG  LEU A   2      -5.150   6.756 131.848  0.00  0.00    +0.000 C 
ATOM     22  CD2 LEU A   2      -5.327   7.409 130.476  0.00  0.00    +0.000 C 
ENDBRANCH  19  21
ENDBRANCH   1  19
BRANCH   8  23
ATOM     23  C   UNK A   0      -6.621   3.874 130.022  0.00  0.00    +0.000 C 
BRANCH  23  24
ATOM     24  C   UNK A   0      -7.200   2.398 130.150  0.00  0.00    +0.000 A 
ATOM     25  C   UNK A   0      -7.550   1.882 131.409  0.00  0.00    +0.000 A 
ATOM     26  C   UNK A   0      -7.896   0.533 131.559  0.00  0.00    +0.000 A 
ATOM     27  C   UNK A   0      -7.971  -0.304 130.452  0.00  0.00    +0.000 A 
ATOM     28  F   UNK A   0      -8.288  -1.595 130.607  0.00  0.00    +0.000 F 
ATOM     29  C   UNK A   0      -7.690   0.174 129.190  0.00  0.00    +0.000 A 
ATOM     30  C   UNK A   0      -7.293   1.503 129.051  0.00  0.00    +0.000 A 
ENDBRANCH  23  24
BRANCH  23  31
ATOM     31  C   UNK A   0      -5.716   3.969 128.550  0.00  0.00    +0.000 C 
ATOM     32  O   UNK A   0      -4.498   3.756 128.514  0.00  0.00    +0.000 OA
ATOM     33  N   UNK A   0      -6.296   4.312 127.332  0.00  0.00    +0.000 N 
ATOM     34  H   UNK A   0      -7.233   4.700 127.326  0.00  0.00    +0.000 HD
BRANCH  33  35
ATOM     35  C   UNK A   0      -5.555   4.157 126.024  0.00  0.00    +0.000 C 
ATOM     36  C   UNK A   0      -5.646   2.812 125.305  0.00  0.00    +0.000 C 
ATOM     37  C   UNK A   0      -6.097   5.080 124.969  0.00  0.00    +0.000 C 
ENDBRANCH  33  35
ENDBRANCH  23  31
ENDBRANCH   8  23
TORSDOF 7
ENDMDL
MODEL 5
REMARK VINA RESULT:      -8.5      3.383      7.059
REMARK  Name = CHEMBL427353
REMARK  11 active torsions:
REMARK  status: ('A' for Active; 'I' for Inactive)
REMARK    1  A    between atoms: CD1_1  and  CG_2
REMARK    2  A    between atoms: CG_2  and  CD2_3
REMARK    3  A    between atoms: CG_2  and  CB_4
REMARK    4  A    between atoms: CB_4  and  CA_5
REMARK    5  A    between atoms: C_9  and  C_10
REMARK    6  A    between atoms: N_21  and  C_22
REMARK    7  A    between atoms: C_22  and  C_23
REMARK    8  A    between atoms: C_22  and  C_29
REMARK    9  A    between atoms: N_25  and  C_26
REMARK   10  A    between atoms: C_26  and  C_27
REMARK   11  A    between atoms: C_26  and  C_28
REMARK                            x       y       z     vdW  Elec       q    Type
REMARK                         _______ _______ _______ _____ _____    ______ ____
ROOT
ATOM      1  CA  LEU A   2      -7.230   1.856 131.594  0.00  0.00    +0.000 C 
ATOM      2  C   LEU A   2      -6.686   0.502 131.997  0.00  0.00    +0.000 C 
ATOM      3  O   LEU A   2      -6.561   0.055 133.158  0.00  0.00    +0.000 OA
ATOM      4  N   UNK A   1      -6.418  -0.277 130.940  0.00  0.00    +0.000 N 
ATOM      5  C   UNK A   1      -6.603   0.189 129.574  0.00  0.00    +0.000 C 
ATOM      6  C   UNK A   1      -6.110   1.673 129.464  0.00  0.00    +0.000 C 
ATOM      7  O   UNK A   1      -5.638   2.098 128.406  0.00  0.00    +0.000 OA
ATOM      8  N   LEU A   2      -6.331   2.484 130.598  0.00  0.00    +0.000 N 
ATOM      9  H   UNK A   1      -6.116  -1.215 131.176  0.00  0.00    +0.000 HD
ENDROOT
BRANCH   5  10
ATOM     10  C   UNK A   1      -5.764  -0.628 128.570  0.00  0.00    +0.000 C 
ATOM     11  C   UNK A   1      -6.365  -0.677 127.151  0.00  0.00    +0.000 C 
ATOM     12  C   UNK A   1      -7.261  -1.875 127.252  0.00  0.00    +0.000 A 
ATOM     13  C   UNK A   1      -8.387  -2.160 126.504  0.00  0.00    +0.000 A 
ATOM     14  C   UNK A   1      -9.171  -3.251 126.885  0.00  0.00    +0.000 A 
ATOM     15  C   UNK A   1      -8.834  -4.026 128.006  0.00  0.00    +0.000 A 
ATOM     16  C   UNK A   1      -7.695  -3.734 128.756  0.00  0.00    +0.000 A 
ATOM     17  C   UNK A   1      -6.905  -2.672 128.352  0.00  0.00    +0.000 A 
ATOM     18  C   UNK A   1      -5.712  -2.104 129.055  0.00  0.00    +0.000 C 
ENDBRANCH   5  10
BRANCH   1  19
ATOM     19  CB  LEU A   2      -7.470   2.636 132.819  0.00  0.00    +0.000 C 
BRANCH  19  21
ATOM     20  CD1 LEU A   2      -9.221   3.884 133.843  0.00  0.00    +0.000 C 
ATOM     21  CG  LEU A   2      -8.986   2.626 133.114  0.00  0.00    +0.000 C 
ATOM     22  CD2 LEU A   2      -9.967   2.551 131.943  0.00  0.00    +0.000 C 
ENDBRANCH  19  21
ENDBRANCH   1  19
BRANCH   8  23
ATOM     23  C   UNK A   0      -5.940   3.981 130.535  0.00  0.00    +0.000 C 
BRANCH  23  24
ATOM     24  C   UNK A   0      -7.249   4.884 130.490  0.00  0.00    +0.000 A 
ATOM     25  C   UNK A   0      -8.206   4.692 129.479  0.00  0.00    +0.000 A 
ATOM     26  C   UNK A   0      -9.273   5.588 129.323  0.00  0.00    +0.000 A 
ATOM     27  C   UNK A   0      -9.445   6.641 130.212  0.00  0.00    +0.000 A 
ATOM     28  F   UNK A   0     -10.459   7.500 130.047  0.00  0.00    +0.000 F 
ATOM     29  C   UNK A   0      -8.561   6.834 131.253  0.00  0.00    +0.000 A 
ATOM     30  C   UNK A   0      -7.471   5.975 131.372  0.00  0.00    +0.000 A 
ENDBRANCH  23  24
BRANCH  23  31
ATOM     31  C   UNK A   0      -4.776   4.776 131.537  0.00  0.00    +0.000 C 
ATOM     32  O   UNK A   0      -4.617   4.472 132.726  0.00  0.00    +0.000 OA
ATOM     33  N   UNK A   0      -3.971   5.815 131.076  0.00  0.00    +0.000 N 
ATOM     34  H   UNK A   0      -4.192   6.251 130.189  0.00  0.00    +0.000 HD
BRANCH  33  35
ATOM     35  C   UNK A   0      -2.801   6.335 131.881  0.00  0.00    +0.000 C 
ATOM     36  C   UNK A   0      -1.440   6.413 131.192  0.00  0.00    +0.000 C 
ATOM     37  C   UNK A   0      -3.000   7.770 132.280  0.00  0.00    +0.000 C 
ENDBRANCH  33  35
ENDBRANCH  23  31
ENDBRANCH   8  23
TORSDOF 7
ENDMDL
MODEL 6
REMARK VINA RESULT:      -8.4      4.483      8.731
REMARK  Name = CHEMBL427353
REMARK  11 active torsions:
REMARK  status: ('A' for Active; 'I' for Inactive)
REMARK    1  A    between atoms: CD1_1  and  CG_2
REMARK    2  A    between atoms: CG_2  and  CD2_3
REMARK    3  A    between atoms: CG_2  and  CB_4
REMARK    4  A    between atoms: CB_4  and  CA_5
REMARK    5  A    between atoms: C_9  and  C_10
REMARK    6  A    between atoms: N_21  and  C_22
REMARK    7  A    between atoms: C_22  and  C_23
REMARK    8  A    between atoms: C_22  and  C_29
REMARK    9  A    between atoms: N_25  and  C_26
REMARK   10  A    between atoms: C_26  and  C_27
REMARK   11  A    between atoms: C_26  and  C_28
REMARK                            x       y       z     vdW  Elec       q    Type
REMARK                         _______ _______ _______ _____ _____    ______ ____
ROOT
ATOM      1  CA  LEU A   2      -5.420   1.044 127.331  0.00  0.00    +0.000 C 
ATOM      2  C   LEU A   2      -5.553  -0.453 127.150  0.00  0.00    +0.000 C 
ATOM      3  O   LEU A   2      -5.017  -1.156 126.267  0.00  0.00    +0.000 OA
ATOM      4  N   UNK A   1      -6.259  -1.026 128.134  0.00  0.00    +0.000 N 
ATOM      5  C   UNK A   1      -6.853  -0.247 129.210  0.00  0.00    +0.000 C 
ATOM      6  C   UNK A   1      -7.462   1.070 128.619  0.00  0.00    +0.000 C 
ATOM      7  O   UNK A   1      -8.450   1.592 129.141  0.00  0.00    +0.000 OA
ATOM      8  N   LEU A   2      -6.758   1.647 127.540  0.00  0.00    +0.000 N 
ATOM      9  H   UNK A   1      -6.310  -2.037 128.080  0.00  0.00    +0.000 HD
ENDROOT
BRANCH   5  10
ATOM     10  C   UNK A   1      -8.014  -1.000 129.892  0.00  0.00    +0.000 C 
ATOM     11  C   UNK A   1      -7.873  -1.108 131.423  0.00  0.00    +0.000 C 
ATOM     12  C   UNK A   1      -7.082  -2.375 131.557  0.00  0.00    +0.000 A 
ATOM     13  C   UNK A   1      -6.257  -2.756 132.598  0.00  0.00    +0.000 A 
ATOM     14  C   UNK A   1      -5.480  -3.904 132.435  0.00  0.00    +0.000 A 
ATOM     15  C   UNK A   1      -5.522  -4.642 131.241  0.00  0.00    +0.000 A 
ATOM     16  C   UNK A   1      -6.358  -4.252 130.194  0.00  0.00    +0.000 A 
ATOM     17  C   UNK A   1      -7.149  -3.132 130.377  0.00  0.00    +0.000 A 
ATOM     18  C   UNK A   1      -8.030  -2.463 129.367  0.00  0.00    +0.000 C 
ENDBRANCH   5  10
BRANCH   1  19
ATOM     19  CB  LEU A   2      -4.650   1.576 126.195  0.00  0.00    +0.000 C 
BRANCH  19  21
ATOM     20  CD1 LEU A   2      -3.849   3.814 126.050  0.00  0.00    +0.000 C 
ATOM     21  CG  LEU A   2      -3.578   2.543 126.743  0.00  0.00    +0.000 C 
ATOM     22  CD2 LEU A   2      -3.525   2.811 128.248  0.00  0.00    +0.000 C 
ENDBRANCH  19  21
ENDBRANCH   1  19
BRANCH   8  23
ATOM     23  C   UNK A   0      -7.257   2.990 126.952  0.00  0.00    +0.000 C 
BRANCH  23  24
ATOM     24  C   UNK A   0      -8.063   2.729 125.606  0.00  0.00    +0.000 A 
ATOM     25  C   UNK A   0      -9.083   1.763 125.568  0.00  0.00    +0.000 A 
ATOM     26  C   UNK A   0      -9.682   1.401 124.354  0.00  0.00    +0.000 A 
ATOM     27  C   UNK A   0      -9.329   2.044 123.174  0.00  0.00    +0.000 A 
ATOM     28  F   UNK A   0      -9.896   1.682 122.016  0.00  0.00    +0.000 F 
ATOM     29  C   UNK A   0      -8.373   3.038 123.173  0.00  0.00    +0.000 A 
ATOM     30  C   UNK A   0      -7.740   3.357 124.373  0.00  0.00    +0.000 A 
ENDBRANCH  23  24
BRANCH  23  31
ATOM     31  C   UNK A   0      -8.062   4.250 127.823  0.00  0.00    +0.000 C 
ATOM     32  O   UNK A   0      -8.788   5.077 127.257  0.00  0.00    +0.000 OA
ATOM     33  N   UNK A   0      -7.922   4.422 129.197  0.00  0.00    +0.000 N 
ATOM     34  H   UNK A   0      -7.188   3.920 129.683  0.00  0.00    +0.000 HD
BRANCH  33  35
ATOM     35  C   UNK A   0      -8.810   5.365 129.977  0.00  0.00    +0.000 C 
ATOM     36  C   UNK A   0      -9.792   4.759 130.977  0.00  0.00    +0.000 C 
ATOM     37  C   UNK A   0      -8.007   6.263 130.876  0.00  0.00    +0.000 C 
ENDBRANCH  33  35
ENDBRANCH  23  31
ENDBRANCH   8  23
TORSDOF 7
ENDMDL
MODEL 7
REMARK VINA RESULT:      -8.4      4.351      7.181
REMARK  Name = CHEMBL427353
REMARK  11 active torsions:
REMARK  status: ('A' for Active; 'I' for Inactive)
REMARK    1  A    between atoms: CD1_1  and  CG_2
REMARK    2  A    between atoms: CG_2  and  CD2_3
REMARK    3  A    between atoms: CG_2  and  CB_4
REMARK    4  A    between atoms: CB_4  and  CA_5
REMARK    5  A    between atoms: C_9  and  C_10
REMARK    6  A    between atoms: N_21  and  C_22
REMARK    7  A    between atoms: C_22  and  C_23
REMARK    8  A    between atoms: C_22  and  C_29
REMARK    9  A    between atoms: N_25  and  C_26
REMARK   10  A    between atoms: C_26  and  C_27
REMARK   11  A    between atoms: C_26  and  C_28
REMARK                            x       y       z     vdW  Elec       q    Type
REMARK                         _______ _______ _______ _____ _____    ______ ____
ROOT
ATOM      1  CA  LEU A   2      -7.264   0.612 129.284  0.00  0.00    +0.000 C 
ATOM      2  C   LEU A   2      -6.330  -0.528 128.938  0.00  0.00    +0.000 C 
ATOM      3  O   LEU A   2      -5.744  -1.291 129.736  0.00  0.00    +0.000 OA
ATOM      4  N   UNK A   1      -6.248  -0.739 127.618  0.00  0.00    +0.000 N 
ATOM      5  C   UNK A   1      -6.960   0.094 126.659  0.00  0.00    +0.000 C 
ATOM      6  C   UNK A   1      -6.873   1.591 127.112  0.00  0.00    +0.000 C 
ATOM      7  O   UNK A   1      -6.872   2.499 126.277  0.00  0.00    +0.000 OA
ATOM      8  N   LEU A   2      -6.895   1.818 128.506  0.00  0.00    +0.000 N 
ATOM      9  H   UNK A   1      -5.684  -1.539 127.355  0.00  0.00    +0.000 HD
ENDROOT
BRANCH   5  10
ATOM     10  C   UNK A   1      -6.326   0.023 125.254  0.00  0.00    +0.000 C 
ATOM     11  C   UNK A   1      -7.331   0.238 124.106  0.00  0.00    +0.000 C 
ATOM     12  C   UNK A   1      -7.812  -1.163 123.870  0.00  0.00    +0.000 A 
ATOM     13  C   UNK A   1      -9.013  -1.567 123.320  0.00  0.00    +0.000 A 
ATOM     14  C   UNK A   1      -9.327  -2.928 123.354  0.00  0.00    +0.000 A 
ATOM     15  C   UNK A   1      -8.453  -3.856 123.944  0.00  0.00    +0.000 A 
ATOM     16  C   UNK A   1      -7.241  -3.441 124.495  0.00  0.00    +0.000 A 
ATOM     17  C   UNK A   1      -6.924  -2.096 124.428  0.00  0.00    +0.000 A 
ATOM     18  C   UNK A   1      -5.748  -1.404 125.044  0.00  0.00    +0.000 C 
ENDBRANCH   5  10
BRANCH   1  19
ATOM     19  CB  LEU A   2      -7.267   0.773 130.748  0.00  0.00    +0.000 C 
BRANCH  19  21
ATOM     20  CD1 LEU A   2      -8.199  -0.747 132.325  0.00  0.00    +0.000 C 
ATOM     21  CG  LEU A   2      -8.603   0.224 131.295  0.00  0.00    +0.000 C 
ATOM     22  CD2 LEU A   2      -9.606   1.201 131.912  0.00  0.00    +0.000 C 
ENDBRANCH  19  21
ENDBRANCH   1  19
BRANCH   8  23
ATOM     23  C   UNK A   0      -6.890   3.277 129.027  0.00  0.00    +0.000 C 
BRANCH  23  24
ATOM     24  C   UNK A   0      -5.457   3.931 128.799  0.00  0.00    +0.000 A 
ATOM     25  C   UNK A   0      -4.463   3.818 129.785  0.00  0.00    +0.000 A 
ATOM     26  C   UNK A   0      -3.262   4.531 129.676  0.00  0.00    +0.000 A 
ATOM     27  C   UNK A   0      -3.001   5.306 128.553  0.00  0.00    +0.000 A 
ATOM     28  F   UNK A   0      -1.856   5.995 128.463  0.00  0.00    +0.000 F 
ATOM     29  C   UNK A   0      -3.925   5.400 127.534  0.00  0.00    +0.000 A 
ATOM     30  C   UNK A   0      -5.141   4.734 127.671  0.00  0.00    +0.000 A 
ENDBRANCH  23  24
BRANCH  23  31
ATOM     31  C   UNK A   0      -8.087   4.483 128.703  0.00  0.00    +0.000 C 
ATOM     32  O   UNK A   0      -8.392   4.810 127.549  0.00  0.00    +0.000 OA
ATOM     33  N   UNK A   0      -8.755   5.169 129.712  0.00  0.00    +0.000 N 
ATOM     34  H   UNK A   0      -8.409   5.104 130.663  0.00  0.00    +0.000 HD
BRANCH  33  35
ATOM     35  C   UNK A   0      -9.959   6.038 129.425  0.00  0.00    +0.000 C 
ATOM     36  C   UNK A   0     -11.259   5.724 130.163  0.00  0.00    +0.000 C 
ATOM     37  C   UNK A   0      -9.727   7.461 129.851  0.00  0.00    +0.000 C 
ENDBRANCH  33  35
ENDBRANCH  23  31
ENDBRANCH   8  23
TORSDOF 7
ENDMDL
MODEL 8
REMARK VINA RESULT:      -8.3      4.461      7.458
REMARK  Name = CHEMBL427353
REMARK  11 active torsions:
REMARK  status: ('A' for Active; 'I' for Inactive)
REMARK    1  A    between atoms: CD1_1  and  CG_2
REMARK    2  A    between atoms: CG_2  and  CD2_3
REMARK    3  A    between atoms: CG_2  and  CB_4
REMARK    4  A    between atoms: CB_4  and  CA_5
REMARK    5  A    between atoms: C_9  and  C_10
REMARK    6  A    between atoms: N_21  and  C_22
REMARK    7  A    between atoms: C_22  and  C_23
REMARK    8  A    between atoms: C_22  and  C_29
REMARK    9  A    between atoms: N_25  and  C_26
REMARK   10  A    between atoms: C_26  and  C_27
REMARK   11  A    between atoms: C_26  and  C_28
REMARK                            x       y       z     vdW  Elec       q    Type
REMARK                         _______ _______ _______ _____ _____    ______ ____
ROOT
ATOM      1  CA  LEU A   2      -5.659   2.783 127.134  0.00  0.00    +0.000 C 
ATOM      2  C   LEU A   2      -6.232   2.562 125.750  0.00  0.00    +0.000 C 
ATOM      3  O   LEU A   2      -6.270   3.384 124.810  0.00  0.00    +0.000 OA
ATOM      4  N   UNK A   1      -6.637   1.298 125.561  0.00  0.00    +0.000 N 
ATOM      5  C   UNK A   1      -6.557   0.298 126.615  0.00  0.00    +0.000 C 
ATOM      6  C   UNK A   1      -6.982   0.948 127.976  0.00  0.00    +0.000 C 
ATOM      7  O   UNK A   1      -7.529   0.271 128.850  0.00  0.00    +0.000 OA
ATOM      8  N   LEU A   2      -6.615   2.299 128.158  0.00  0.00    +0.000 N 
ATOM      9  H   UNK A   1      -6.963   1.099 124.623  0.00  0.00    +0.000 HD
ENDROOT
BRANCH   5  10
ATOM     10  C   UNK A   1      -7.527  -0.876 126.368  0.00  0.00    +0.000 C 
ATOM     11  C   UNK A   1      -6.861  -2.264 126.460  0.00  0.00    +0.000 C 
ATOM     12  C   UNK A   1      -6.394  -2.459 125.048  0.00  0.00    +0.000 A 
ATOM     13  C   UNK A   1      -5.357  -3.254 124.600  0.00  0.00    +0.000 A 
ATOM     14  C   UNK A   1      -4.984  -3.153 123.258  0.00  0.00    +0.000 A 
ATOM     15  C   UNK A   1      -5.633  -2.256 122.393  0.00  0.00    +0.000 A 
ATOM     16  C   UNK A   1      -6.680  -1.457 122.853  0.00  0.00    +0.000 A 
ATOM     17  C   UNK A   1      -7.065  -1.589 124.175  0.00  0.00    +0.000 A 
ATOM     18  C   UNK A   1      -8.074  -0.768 124.917  0.00  0.00    +0.000 C 
ENDBRANCH   5  10
BRANCH   1  19
ATOM     19  CB  LEU A   2      -5.266   4.198 127.245  0.00  0.00    +0.000 C 
BRANCH  19  21
ATOM     20  CD1 LEU A   2      -3.383   5.566 127.748  0.00  0.00    +0.000 C 
ATOM     21  CG  LEU A   2      -3.731   4.290 127.101  0.00  0.00    +0.000 C 
ATOM     22  CD2 LEU A   2      -2.865   3.185 127.707  0.00  0.00    +0.000 C 
ENDBRANCH  19  21
ENDBRANCH   1  19
BRANCH   8  23
ATOM     23  C   UNK A   0      -6.934   2.987 129.509  0.00  0.00    +0.000 C 
BRANCH  23  24
ATOM     24  C   UNK A   0      -5.589   3.239 130.322  0.00  0.00    +0.000 A 
ATOM     25  C   UNK A   0      -4.813   2.152 130.759  0.00  0.00    +0.000 A 
ATOM     26  C   UNK A   0      -3.725   2.350 131.620  0.00  0.00    +0.000 A 
ATOM     27  C   UNK A   0      -3.349   3.633 131.998  0.00  0.00    +0.000 A 
ATOM     28  F   UNK A   0      -2.317   3.811 132.833  0.00  0.00    +0.000 F 
ATOM     29  C   UNK A   0      -4.048   4.732 131.547  0.00  0.00    +0.000 A 
ATOM     30  C   UNK A   0      -5.163   4.529 130.736  0.00  0.00    +0.000 A 
ENDBRANCH  23  24
BRANCH  23  31
ATOM     31  C   UNK A   0      -7.964   4.357 129.740  0.00  0.00    +0.000 C 
ATOM     32  O   UNK A   0      -8.012   5.287 128.925  0.00  0.00    +0.000 OA
ATOM     33  N   UNK A   0      -8.777   4.506 130.860  0.00  0.00    +0.000 N 
ATOM     34  H   UNK A   0      -8.632   3.895 131.657  0.00  0.00    +0.000 HD
BRANCH  33  35
ATOM     35  C   UNK A   0      -9.842   5.576 130.937  0.00  0.00    +0.000 C 
ATOM     36  C   UNK A   0     -11.250   5.217 130.466  0.00  0.00    +0.000 C 
ATOM     37  C   UNK A   0     -10.113   5.985 132.358  0.00  0.00    +0.000 C 
ENDBRANCH  33  35
ENDBRANCH  23  31
ENDBRANCH   8  23
TORSDOF 7
ENDMDL
MODEL 9
REMARK VINA RESULT:      -8.3      5.056      8.886
REMARK  Name = CHEMBL427353
REMARK  11 active torsions:
REMARK  status: ('A' for Active; 'I' for Inactive)
REMARK    1  A    between atoms: CD1_1  and  CG_2
REMARK    2  A    between atoms: CG_2  and  CD2_3
REMARK    3  A    between atoms: CG_2  and  CB_4
REMARK    4  A    between atoms: CB_4  and  CA_5
REMARK    5  A    between atoms: C_9  and  C_10
REMARK    6  A    between atoms: N_21  and  C_22
REMARK    7  A    between atoms: C_22  and  C_23
REMARK    8  A    between atoms: C_22  and  C_29
REMARK    9  A    between atoms: N_25  and  C_26
REMARK   10  A    between atoms: C_26  and  C_27
REMARK   11  A    between atoms: C_26  and  C_28
REMARK                            x       y       z     vdW  Elec       q    Type
REMARK                         _______ _______ _______ _____ _____    ______ ____
ROOT
ATOM      1  CA  LEU A   2      -7.111   1.695 128.766  0.00  0.00    +0.000 C 
ATOM      2  C   LEU A   2      -7.400   3.163 128.535  0.00  0.00    +0.000 C 
ATOM      3  O   LEU A   2      -8.493   3.750 128.691  0.00  0.00    +0.000 OA
ATOM      4  N   UNK A   1      -6.298   3.859 128.222  0.00  0.00    +0.000 N 
ATOM      5  C   UNK A   1      -4.998   3.220 128.085  0.00  0.00    +0.000 C 
ATOM      6  C   UNK A   1      -5.170   1.853 127.338  0.00  0.00    +0.000 C 
ATOM      7  O   UNK A   1      -4.266   1.412 126.624  0.00  0.00    +0.000 OA
ATOM      8  N   LEU A   2      -6.359   1.143 127.614  0.00  0.00    +0.000 N 
ATOM      9  H   UNK A   1      -6.445   4.857 128.128  0.00  0.00    +0.000 HD
ENDROOT
BRANCH   5  10
ATOM     10  C   UNK A   1      -4.029   4.066 127.234  0.00  0.00    +0.000 C 
ATOM     11  C   UNK A   1      -2.597   4.134 127.802  0.00  0.00    +0.000 C 
ATOM     12  C   UNK A   1      -2.699   5.319 128.715  0.00  0.00    +0.000 A 
ATOM     13  C   UNK A   1      -1.930   5.602 129.828  0.00  0.00    +0.000 A 
ATOM     14  C   UNK A   1      -2.312   6.676 130.635  0.00  0.00    +0.000 A 
ATOM     15  C   UNK A   1      -3.455   7.435 130.335  0.00  0.00    +0.000 A 
ATOM     16  C   UNK A   1      -4.226   7.144 129.209  0.00  0.00    +0.000 A 
ATOM     17  C   UNK A   1      -3.821   6.100 128.397  0.00  0.00    +0.000 A 
ATOM     18  C   UNK A   1      -4.542   5.533 127.213  0.00  0.00    +0.000 C 
ENDBRANCH   5  10
BRANCH   1  19
ATOM     19  CB  LEU A   2      -8.381   1.022 129.081  0.00  0.00    +0.000 C 
BRANCH  19  21
ATOM     20  CD1 LEU A   2      -6.963   0.735 130.972  0.00  0.00    +0.000 C 
ATOM     21  CG  LEU A   2      -8.381   0.659 130.582  0.00  0.00    +0.000 C 
ATOM     22  CD2 LEU A   2      -9.199   1.516 131.549  0.00  0.00    +0.000 C 
ENDBRANCH  19  21
ENDBRANCH   1  19
BRANCH   8  23
ATOM     23  C   UNK A   0      -6.565  -0.251 126.971  0.00  0.00    +0.000 C 
BRANCH  23  24
ATOM     24  C   UNK A   0      -6.415  -1.386 128.076  0.00  0.00    +0.000 A 
ATOM     25  C   UNK A   0      -5.154  -1.682 128.621  0.00  0.00    +0.000 A 
ATOM     26  C   UNK A   0      -4.979  -2.790 129.461  0.00  0.00    +0.000 A 
ATOM     27  C   UNK A   0      -6.065  -3.573 129.832  0.00  0.00    +0.000 A 
ATOM     28  F   UNK A   0      -5.886  -4.637 130.624  0.00  0.00    +0.000 F 
ATOM     29  C   UNK A   0      -7.331  -3.285 129.366  0.00  0.00    +0.000 A 
ATOM     30  C   UNK A   0      -7.492  -2.217 128.486  0.00  0.00    +0.000 A 
ENDBRANCH  23  24
BRANCH  23  31
ATOM     31  C   UNK A   0      -7.849  -0.706 125.906  0.00  0.00    +0.000 C 
ATOM     32  O   UNK A   0      -8.956  -0.153 125.939  0.00  0.00    +0.000 OA
ATOM     33  N   UNK A   0      -7.723  -1.730 124.971  0.00  0.00    +0.000 N 
ATOM     34  H   UNK A   0      -6.929  -2.356 125.032  0.00  0.00    +0.000 HD
BRANCH  33  35
ATOM     35  C   UNK A   0      -8.758  -1.956 123.892  0.00  0.00    +0.000 C 
ATOM     36  C   UNK A   0      -8.285  -1.960 122.439  0.00  0.00    +0.000 C 
ATOM     37  C   UNK A   0      -9.372  -3.324 123.994  0.00  0.00    +0.000 C 
ENDBRANCH  33  35
ENDBRANCH  23  31
ENDBRANCH   8  23
TORSDOF 7
ENDMDL
