MODEL 1
REMARK VINA RESULT:      -7.8      0.000      0.000
REMARK  Name = CHEMBL592250
REMARK  6 active torsions:
REMARK  status: ('A' for Active; 'I' for Inactive)
REMARK    1  A    between atoms: C_1  and  O_2
REMARK    2  A    between atoms: O_2  and  C_3
REMARK    3  A    between atoms: C_6  and  N_7
REMARK    4  A    between atoms: C_8  and  C_9
REMARK    5  A    between atoms: C_16  and  O_17
REMARK    6  A    between atoms: O_17  and  C_18
REMARK                            x       y       z     vdW  Elec       q    Type
REMARK                         _______ _______ _______ _____ _____    ______ ____
ROOT
ATOM      1  N   UNL     1      -8.169  -2.066 126.815  0.00  0.00    +0.000 N 
ATOM      2  C   UNL     1      -8.982  -3.188 127.013  0.00  0.00    +0.000 A 
ATOM      3  C   UNL     1      -8.984  -4.174 128.134  0.00  0.00    +0.000 C 
ATOM      4  N   UNL     1      -9.911  -3.206 126.075  0.00  0.00    +0.000 NA
ATOM      5  N   UNL     1      -9.759  -2.107 125.282  0.00  0.00    +0.000 NA
ATOM      6  C   UNL     1      -8.705  -1.422 125.689  0.00  0.00    +0.000 A 
ATOM      7  N   UNL     1      -8.287  -0.219 125.203  0.00  0.00    +0.000 N 
ATOM      8  C   UNL     1      -9.283   0.820 125.002  0.00  0.00    +0.000 C 
ATOM      9  C   UNL     1      -9.469   1.106 123.517  0.00  0.00    +0.000 C 
ATOM     10  C   UNL     1      -8.152   1.593 122.902  0.00  0.00    +0.000 C 
ATOM     11  C   UNL     1      -7.119   0.458 123.106  0.00  0.00    +0.000 C 
ATOM     12  C   UNL     1      -6.981   0.031 124.585  0.00  0.00    +0.000 C 
ENDROOT
BRANCH   1  16
ATOM     13  C   UNL     1      -5.065  -0.801 129.301  0.00  0.00    +0.000 A 
ATOM     14  C   UNL     1      -4.802  -1.819 128.398  0.00  0.00    +0.000 A 
ATOM     15  C   UNL     1      -5.821  -2.226 127.530  0.00  0.00    +0.000 A 
ATOM     16  C   UNL     1      -7.072  -1.605 127.590  0.00  0.00    +0.000 A 
ATOM     17  C   UNL     1      -7.256  -0.622 128.547  0.00  0.00    +0.000 A 
ATOM     18  N   UNL     1      -6.280  -0.214 129.402  0.00  0.00    +0.000 NA
BRANCH  13  20
ATOM     19  C   UNL     1      -3.591  -1.445 131.007  0.00  0.00    +0.000 C 
ATOM     20  O   UNL     1      -4.146  -0.386 130.229  0.00  0.00    +0.000 OA
ENDBRANCH  13  20
ENDBRANCH   1  16
BRANCH  10  21
ATOM     21  O   UNL     1      -7.614   2.805 123.489  0.00  0.00    +0.000 OA
BRANCH  21  22
ATOM     22  C   UNL     1      -6.754   3.535 122.706  0.00  0.00    +0.000 A 
ATOM     23  C   UNL     1      -6.968   3.596 121.329  0.00  0.00    +0.000 A 
ATOM     24  C   UNL     1      -6.019   4.210 120.498  0.00  0.00    +0.000 A 
ATOM     25  C   UNL     1      -4.887   4.818 121.043  0.00  0.00    +0.000 A 
ATOM     26  C   UNL     1      -4.663   4.745 122.409  0.00  0.00    +0.000 A 
ATOM     27  C   UNL     1      -5.564   4.056 123.217  0.00  0.00    +0.000 A 
ENDBRANCH  21  22
ENDBRANCH  10  21
TORSDOF 4
ENDMDL
MODEL 2
REMARK VINA RESULT:      -7.7      6.804      8.919
REMARK  Name = CHEMBL592250
REMARK  6 active torsions:
REMARK  status: ('A' for Active; 'I' for Inactive)
REMARK    1  A    between atoms: C_1  and  O_2
REMARK    2  A    between atoms: O_2  and  C_3
REMARK    3  A    between atoms: C_6  and  N_7
REMARK    4  A    between atoms: C_8  and  C_9
REMARK    5  A    between atoms: C_16  and  O_17
REMARK    6  A    between atoms: O_17  and  C_18
REMARK                            x       y       z     vdW  Elec       q    Type
REMARK                         _______ _______ _______ _____ _____    ______ ____
ROOT
ATOM      1  N   UNL     1      -4.735   4.813 131.508  0.00  0.00    +0.000 N 
ATOM      2  C   UNL     1      -3.943   4.948 132.655  0.00  0.00    +0.000 A 
ATOM      3  C   UNL     1      -2.463   4.827 132.807  0.00  0.00    +0.000 C 
ATOM      4  N   UNL     1      -4.709   5.354 133.651  0.00  0.00    +0.000 NA
ATOM      5  N   UNL     1      -5.980   5.527 133.187  0.00  0.00    +0.000 NA
ATOM      6  C   UNL     1      -6.027   5.182 131.912  0.00  0.00    +0.000 A 
ATOM      7  N   UNL     1      -7.102   5.302 131.083  0.00  0.00    +0.000 N 
ATOM      8  C   UNL     1      -7.845   6.551 131.103  0.00  0.00    +0.000 C 
ATOM      9  C   UNL     1      -9.237   6.340 131.685  0.00  0.00    +0.000 C 
ATOM     10  C   UNL     1     -10.022   5.340 130.830  0.00  0.00    +0.000 C 
ATOM     11  C   UNL     1      -9.225   4.013 130.849  0.00  0.00    +0.000 C 
ATOM     12  C   UNL     1      -7.759   4.189 130.392  0.00  0.00    +0.000 C 
ENDROOT
BRANCH   1  16
ATOM     13  C   UNL     1      -3.377   3.832 127.687  0.00  0.00    +0.000 A 
ATOM     14  C   UNL     1      -3.669   2.795 128.560  0.00  0.00    +0.000 A 
ATOM     15  C   UNL     1      -4.164   3.108 129.831  0.00  0.00    +0.000 A 
ATOM     16  C   UNL     1      -4.352   4.445 130.192  0.00  0.00    +0.000 A 
ATOM     17  C   UNL     1      -4.000   5.415 129.270  0.00  0.00    +0.000 A 
ATOM     18  N   UNL     1      -3.514   5.133 128.031  0.00  0.00    +0.000 NA
BRANCH  13  20
ATOM     19  C   UNL     1      -1.532   3.024 126.487  0.00  0.00    +0.000 C 
ATOM     20  O   UNL     1      -2.828   3.617 126.449  0.00  0.00    +0.000 OA
ENDBRANCH  13  20
ENDBRANCH   1  16
BRANCH  10  21
ATOM     21  O   UNL     1     -10.212   5.734 129.447  0.00  0.00    +0.000 OA
BRANCH  21  22
ATOM     22  C   UNL     1     -11.197   6.659 129.203  0.00  0.00    +0.000 A 
ATOM     23  C   UNL     1     -12.530   6.250 129.185  0.00  0.00    +0.000 A 
ATOM     24  C   UNL     1     -13.535   7.147 128.791  0.00  0.00    +0.000 A 
ATOM     25  C   UNL     1     -13.219   8.469 128.474  0.00  0.00    +0.000 A 
ATOM     26  C   UNL     1     -11.894   8.875 128.475  0.00  0.00    +0.000 A 
ATOM     27  C   UNL     1     -10.894   7.955 128.780  0.00  0.00    +0.000 A 
ENDBRANCH  21  22
ENDBRANCH  10  21
TORSDOF 4
ENDMDL
MODEL 3
REMARK VINA RESULT:      -7.4      5.081      7.657
REMARK  Name = CHEMBL592250
REMARK  6 active torsions:
REMARK  status: ('A' for Active; 'I' for Inactive)
REMARK    1  A    between atoms: C_1  and  O_2
REMARK    2  A    between atoms: O_2  and  C_3
REMARK    3  A    between atoms: C_6  and  N_7
REMARK    4  A    between atoms: C_8  and  C_9
REMARK    5  A    between atoms: C_16  and  O_17
REMARK    6  A    between atoms: O_17  and  C_18
REMARK                            x       y       z     vdW  Elec       q    Type
REMARK                         _______ _______ _______ _____ _____    ______ ____
ROOT
ATOM      1  N   UNL     1      -6.743  -2.685 130.756  0.00  0.00    +0.000 N 
ATOM      2  C   UNL     1      -6.126  -3.734 131.447  0.00  0.00    +0.000 A 
ATOM      3  C   UNL     1      -5.617  -5.040 130.934  0.00  0.00    +0.000 C 
ATOM      4  N   UNL     1      -5.915  -3.352 132.693  0.00  0.00    +0.000 NA
ATOM      5  N   UNL     1      -6.342  -2.064 132.838  0.00  0.00    +0.000 NA
ATOM      6  C   UNL     1      -6.867  -1.651 131.697  0.00  0.00    +0.000 A 
ATOM      7  N   UNL     1      -7.319  -0.395 131.425  0.00  0.00    +0.000 N 
ATOM      8  C   UNL     1      -6.487   0.731 131.818  0.00  0.00    +0.000 C 
ATOM      9  C   UNL     1      -7.148   1.522 132.940  0.00  0.00    +0.000 C 
ATOM     10  C   UNL     1      -8.498   2.077 132.472  0.00  0.00    +0.000 C 
ATOM     11  C   UNL     1      -9.372   0.858 132.086  0.00  0.00    +0.000 C 
ATOM     12  C   UNL     1      -8.694  -0.059 131.044  0.00  0.00    +0.000 C 
ENDROOT
BRANCH   1  16
ATOM     13  C   UNL     1      -7.660  -2.621 126.686  0.00  0.00    +0.000 A 
ATOM     14  C   UNL     1      -8.553  -3.243 127.545  0.00  0.00    +0.000 A 
ATOM     15  C   UNL     1      -8.279  -3.237 128.917  0.00  0.00    +0.000 A 
ATOM     16  C   UNL     1      -7.122  -2.611 129.390  0.00  0.00    +0.000 A 
ATOM     17  C   UNL     1      -6.269  -2.047 128.457  0.00  0.00    +0.000 A 
ATOM     18  N   UNL     1      -6.515  -2.045 127.119  0.00  0.00    +0.000 NA
BRANCH  13  20
ATOM     19  C   UNL     1      -8.191  -3.911 124.800  0.00  0.00    +0.000 C 
ATOM     20  O   UNL     1      -7.818  -2.638 125.324  0.00  0.00    +0.000 OA
ENDBRANCH  13  20
ENDBRANCH   1  16
BRANCH  10  21
ATOM     21  O   UNL     1      -8.431   2.965 131.328  0.00  0.00    +0.000 OA
BRANCH  21  22
ATOM     22  C   UNL     1      -9.289   4.038 131.334  0.00  0.00    +0.000 A 
ATOM     23  C   UNL     1      -9.202   4.977 132.360  0.00  0.00    +0.000 A 
ATOM     24  C   UNL     1     -10.163   5.994 132.465  0.00  0.00    +0.000 A 
ATOM     25  C   UNL     1     -11.176   6.113 131.513  0.00  0.00    +0.000 A 
ATOM     26  C   UNL     1     -11.277   5.171 130.501  0.00  0.00    +0.000 A 
ATOM     27  C   UNL     1     -10.372   4.112 130.455  0.00  0.00    +0.000 A 
ENDBRANCH  21  22
ENDBRANCH  10  21
TORSDOF 4
ENDMDL
MODEL 4
REMARK VINA RESULT:      -7.4      4.393      6.252
REMARK  Name = CHEMBL592250
REMARK  6 active torsions:
REMARK  status: ('A' for Active; 'I' for Inactive)
REMARK    1  A    between atoms: C_1  and  O_2
REMARK    2  A    between atoms: O_2  and  C_3
REMARK    3  A    between atoms: C_6  and  N_7
REMARK    4  A    between atoms: C_8  and  C_9
REMARK    5  A    between atoms: C_16  and  O_17
REMARK    6  A    between atoms: O_17  and  C_18
REMARK                            x       y       z     vdW  Elec       q    Type
REMARK                         _______ _______ _______ _____ _____    ______ ____
ROOT
ATOM      1  N   UNL     1      -8.530   4.390 129.913  0.00  0.00    +0.000 N 
ATOM      2  C   UNL     1      -9.034   5.686 130.071  0.00  0.00    +0.000 A 
ATOM      3  C   UNL     1      -9.235   6.482 131.318  0.00  0.00    +0.000 C 
ATOM      4  N   UNL     1      -9.212   6.219 128.875  0.00  0.00    +0.000 NA
ATOM      5  N   UNL     1      -8.805   5.324 127.930  0.00  0.00    +0.000 NA
ATOM      6  C   UNL     1      -8.417   4.210 128.525  0.00  0.00    +0.000 A 
ATOM      7  N   UNL     1      -7.862   3.122 127.920  0.00  0.00    +0.000 N 
ATOM      8  C   UNL     1      -6.807   3.347 126.946  0.00  0.00    +0.000 C 
ATOM      9  C   UNL     1      -7.280   2.976 125.546  0.00  0.00    +0.000 C 
ATOM     10  C   UNL     1      -7.663   1.493 125.491  0.00  0.00    +0.000 C 
ATOM     11  C   UNL     1      -8.805   1.289 126.516  0.00  0.00    +0.000 C 
ATOM     12  C   UNL     1      -8.429   1.771 127.935  0.00  0.00    +0.000 C 
ENDROOT
BRANCH   1  16
ATOM     13  C   UNL     1      -7.357   1.825 132.987  0.00  0.00    +0.000 A 
ATOM     14  C   UNL     1      -8.678   1.778 132.568  0.00  0.00    +0.000 A 
ATOM     15  C   UNL     1      -9.076   2.603 131.511  0.00  0.00    +0.000 A 
ATOM     16  C   UNL     1      -8.144   3.450 130.904  0.00  0.00    +0.000 A 
ATOM     17  C   UNL     1      -6.856   3.457 131.410  0.00  0.00    +0.000 A 
ATOM     18  N   UNL     1      -6.449   2.665 132.439  0.00  0.00    +0.000 NA
BRANCH  13  20
ATOM     19  C   UNL     1      -6.141  -0.053 133.691  0.00  0.00    +0.000 C 
ATOM     20  O   UNL     1      -6.899   1.099 134.056  0.00  0.00    +0.000 OA
ENDBRANCH  13  20
ENDBRANCH   1  16
BRANCH  10  21
ATOM     21  O   UNL     1      -6.591   0.572 125.818  0.00  0.00    +0.000 OA
BRANCH  21  22
ATOM     22  C   UNL     1      -6.413  -0.489 124.965  0.00  0.00    +0.000 A 
ATOM     23  C   UNL     1      -5.643  -1.576 125.378  0.00  0.00    +0.000 A 
ATOM     24  C   UNL     1      -5.327  -2.598 124.470  0.00  0.00    +0.000 A 
ATOM     25  C   UNL     1      -5.829  -2.570 123.168  0.00  0.00    +0.000 A 
ATOM     26  C   UNL     1      -6.580  -1.482 122.749  0.00  0.00    +0.000 A 
ATOM     27  C   UNL     1      -6.815  -0.429 123.629  0.00  0.00    +0.000 A 
ENDBRANCH  21  22
ENDBRANCH  10  21
TORSDOF 4
ENDMDL
MODEL 5
REMARK VINA RESULT:      -7.3      2.700      4.099
REMARK  Name = CHEMBL592250
REMARK  6 active torsions:
REMARK  status: ('A' for Active; 'I' for Inactive)
REMARK    1  A    between atoms: C_1  and  O_2
REMARK    2  A    between atoms: O_2  and  C_3
REMARK    3  A    between atoms: C_6  and  N_7
REMARK    4  A    between atoms: C_8  and  C_9
REMARK    5  A    between atoms: C_16  and  O_17
REMARK    6  A    between atoms: O_17  and  C_18
REMARK                            x       y       z     vdW  Elec       q    Type
REMARK                         _______ _______ _______ _____ _____    ______ ____
ROOT
ATOM      1  N   UNL     1      -7.159   0.202 127.161  0.00  0.00    +0.000 N 
ATOM      2  C   UNL     1      -7.466   0.228 128.527  0.00  0.00    +0.000 A 
ATOM      3  C   UNL     1      -7.604  -0.903 129.492  0.00  0.00    +0.000 C 
ATOM      4  N   UNL     1      -7.498   1.486 128.928  0.00  0.00    +0.000 NA
ATOM      5  N   UNL     1      -7.186   2.293 127.874  0.00  0.00    +0.000 NA
ATOM      6  C   UNL     1      -7.006   1.548 126.797  0.00  0.00    +0.000 A 
ATOM      7  N   UNL     1      -6.595   1.986 125.573  0.00  0.00    +0.000 N 
ATOM      8  C   UNL     1      -5.470   2.904 125.518  0.00  0.00    +0.000 C 
ATOM      9  C   UNL     1      -5.922   4.282 125.051  0.00  0.00    +0.000 C 
ATOM     10  C   UNL     1      -6.526   4.193 123.645  0.00  0.00    +0.000 C 
ATOM     11  C   UNL     1      -7.736   3.232 123.739  0.00  0.00    +0.000 C 
ATOM     12  C   UNL     1      -7.364   1.855 124.332  0.00  0.00    +0.000 C 
ENDROOT
BRANCH   1  16
ATOM     13  C   UNL     1      -6.516  -3.207 124.843  0.00  0.00    +0.000 A 
ATOM     14  C   UNL     1      -7.826  -2.828 125.094  0.00  0.00    +0.000 A 
ATOM     15  C   UNL     1      -8.057  -1.664 125.835  0.00  0.00    +0.000 A 
ATOM     16  C   UNL     1      -6.975  -0.915 126.305  0.00  0.00    +0.000 A 
ATOM     17  C   UNL     1      -5.701  -1.388 126.038  0.00  0.00    +0.000 A 
ATOM     18  N   UNL     1      -5.455  -2.518 125.322  0.00  0.00    +0.000 NA
BRANCH  13  20
ATOM     19  C   UNL     1      -4.829  -4.460 123.803  0.00  0.00    +0.000 C 
ATOM     20  O   UNL     1      -6.200  -4.366 124.182  0.00  0.00    +0.000 OA
ENDBRANCH  13  20
ENDBRANCH   1  16
BRANCH  10  21
ATOM     21  O   UNL     1      -5.627   3.689 122.624  0.00  0.00    +0.000 OA
BRANCH  21  22
ATOM     22  C   UNL     1      -5.872   4.098 121.336  0.00  0.00    +0.000 A 
ATOM     23  C   UNL     1      -5.009   5.012 120.733  0.00  0.00    +0.000 A 
ATOM     24  C   UNL     1      -5.325   5.553 119.477  0.00  0.00    +0.000 A 
ATOM     25  C   UNL     1      -6.469   5.138 118.794  0.00  0.00    +0.000 A 
ATOM     26  C   UNL     1      -7.338   4.242 119.398  0.00  0.00    +0.000 A 
ATOM     27  C   UNL     1      -7.064   3.778 120.682  0.00  0.00    +0.000 A 
ENDBRANCH  21  22
ENDBRANCH  10  21
TORSDOF 4
ENDMDL
MODEL 6
REMARK VINA RESULT:      -7.3      3.764      7.957
REMARK  Name = CHEMBL592250
REMARK  6 active torsions:
REMARK  status: ('A' for Active; 'I' for Inactive)
REMARK    1  A    between atoms: C_1  and  O_2
REMARK    2  A    between atoms: O_2  and  C_3
REMARK    3  A    between atoms: C_6  and  N_7
REMARK    4  A    between atoms: C_8  and  C_9
REMARK    5  A    between atoms: C_16  and  O_17
REMARK    6  A    between atoms: O_17  and  C_18
REMARK                            x       y       z     vdW  Elec       q    Type
REMARK                         _______ _______ _______ _____ _____    ______ ____
ROOT
ATOM      1  N   UNL     1      -6.753   2.831 123.465  0.00  0.00    +0.000 N 
ATOM      2  C   UNL     1      -6.121   3.649 122.520  0.00  0.00    +0.000 A 
ATOM      3  C   UNL     1      -6.224   3.635 121.031  0.00  0.00    +0.000 C 
ATOM      4  N   UNL     1      -5.463   4.600 123.158  0.00  0.00    +0.000 NA
ATOM      5  N   UNL     1      -5.671   4.456 124.499  0.00  0.00    +0.000 NA
ATOM      6  C   UNL     1      -6.418   3.387 124.709  0.00  0.00    +0.000 A 
ATOM      7  N   UNL     1      -6.910   2.970 125.910  0.00  0.00    +0.000 N 
ATOM      8  C   UNL     1      -7.520   3.961 126.780  0.00  0.00    +0.000 C 
ATOM      9  C   UNL     1      -6.671   4.179 128.026  0.00  0.00    +0.000 C 
ATOM     10  C   UNL     1      -6.547   2.872 128.817  0.00  0.00    +0.000 C 
ATOM     11  C   UNL     1      -5.870   1.844 127.878  0.00  0.00    +0.000 C 
ATOM     12  C   UNL     1      -6.617   1.677 126.536  0.00  0.00    +0.000 C 
ENDROOT
BRANCH   1  16
ATOM     13  C   UNL     1      -9.202  -0.526 123.098  0.00  0.00    +0.000 A 
ATOM     14  C   UNL     1      -9.800   0.724 123.053  0.00  0.00    +0.000 A 
ATOM     15  C   UNL     1      -8.987   1.859 123.133  0.00  0.00    +0.000 A 
ATOM     16  C   UNL     1      -7.603   1.713 123.258  0.00  0.00    +0.000 A 
ATOM     17  C   UNL     1      -7.096   0.427 123.330  0.00  0.00    +0.000 A 
ATOM     18  N   UNL     1      -7.869  -0.690 123.257  0.00  0.00    +0.000 NA
BRANCH  13  20
ATOM     19  C   UNL     1      -9.151  -2.858 123.340  0.00  0.00    +0.000 C 
ATOM     20  O   UNL     1      -9.929  -1.689 123.090  0.00  0.00    +0.000 OA
ENDBRANCH  13  20
ENDBRANCH   1  16
BRANCH  10  21
ATOM     21  O   UNL     1      -7.804   2.310 129.272  0.00  0.00    +0.000 OA
BRANCH  21  22
ATOM     22  C   UNL     1      -8.081   2.430 130.611  0.00  0.00    +0.000 A 
ATOM     23  C   UNL     1      -9.287   1.937 131.107  0.00  0.00    +0.000 A 
ATOM     24  C   UNL     1      -9.652   2.182 132.440  0.00  0.00    +0.000 A 
ATOM     25  C   UNL     1      -8.787   2.865 133.296  0.00  0.00    +0.000 A 
ATOM     26  C   UNL     1      -7.595   3.372 132.803  0.00  0.00    +0.000 A 
ATOM     27  C   UNL     1      -7.281   3.202 131.457  0.00  0.00    +0.000 A 
ENDBRANCH  21  22
ENDBRANCH  10  21
TORSDOF 4
ENDMDL
MODEL 7
REMARK VINA RESULT:      -7.3      6.556      8.376
REMARK  Name = CHEMBL592250
REMARK  6 active torsions:
REMARK  status: ('A' for Active; 'I' for Inactive)
REMARK    1  A    between atoms: C_1  and  O_2
REMARK    2  A    between atoms: O_2  and  C_3
REMARK    3  A    between atoms: C_6  and  N_7
REMARK    4  A    between atoms: C_8  and  C_9
REMARK    5  A    between atoms: C_16  and  O_17
REMARK    6  A    between atoms: O_17  and  C_18
REMARK                            x       y       z     vdW  Elec       q    Type
REMARK                         _______ _______ _______ _____ _____    ______ ____
ROOT
ATOM      1  N   UNL     1      -5.970   2.586 132.201  0.00  0.00    +0.000 N 
ATOM      2  C   UNL     1      -5.701   1.584 133.141  0.00  0.00    +0.000 A 
ATOM      3  C   UNL     1      -4.461   0.778 133.341  0.00  0.00    +0.000 C 
ATOM      4  N   UNL     1      -6.715   1.515 133.985  0.00  0.00    +0.000 NA
ATOM      5  N   UNL     1      -7.632   2.467 133.652  0.00  0.00    +0.000 NA
ATOM      6  C   UNL     1      -7.221   3.105 132.569  0.00  0.00    +0.000 A 
ATOM      7  N   UNL     1      -7.825   4.180 131.988  0.00  0.00    +0.000 N 
ATOM      8  C   UNL     1      -8.264   5.265 132.849  0.00  0.00    +0.000 C 
ATOM      9  C   UNL     1      -9.785   5.346 132.879  0.00  0.00    +0.000 C 
ATOM     10  C   UNL     1     -10.329   5.614 131.471  0.00  0.00    +0.000 C 
ATOM     11  C   UNL     1      -9.870   4.431 130.583  0.00  0.00    +0.000 C 
ATOM     12  C   UNL     1      -8.341   4.215 130.616  0.00  0.00    +0.000 C 
ENDROOT
BRANCH   1  16
ATOM     13  C   UNL     1      -3.391   3.924 129.206  0.00  0.00    +0.000 A 
ATOM     14  C   UNL     1      -4.061   2.728 129.002  0.00  0.00    +0.000 A 
ATOM     15  C   UNL     1      -4.960   2.287 129.979  0.00  0.00    +0.000 A 
ATOM     16  C   UNL     1      -5.163   3.052 131.131  0.00  0.00    +0.000 A 
ATOM     17  C   UNL     1      -4.425   4.215 131.268  0.00  0.00    +0.000 A 
ATOM     18  N   UNL     1      -3.543   4.660 130.332  0.00  0.00    +0.000 NA
BRANCH  13  20
ATOM     19  C   UNL     1      -2.270   3.581 127.176  0.00  0.00    +0.000 C 
ATOM     20  O   UNL     1      -2.446   4.396 128.332  0.00  0.00    +0.000 OA
ENDBRANCH  13  20
ENDBRANCH   1  16
BRANCH  10  21
ATOM     21  O   UNL     1      -9.865   6.845 130.860  0.00  0.00    +0.000 OA
BRANCH  21  22
ATOM     22  C   UNL     1     -10.727   7.457 129.984  0.00  0.00    +0.000 A 
ATOM     23  C   UNL     1     -12.083   7.535 130.301  0.00  0.00    +0.000 A 
ATOM     24  C   UNL     1     -12.999   8.021 129.356  0.00  0.00    +0.000 A 
ATOM     25  C   UNL     1     -12.558   8.487 128.116  0.00  0.00    +0.000 A 
ATOM     26  C   UNL     1     -11.214   8.394 127.790  0.00  0.00    +0.000 A 
ATOM     27  C   UNL     1     -10.323   7.828 128.699  0.00  0.00    +0.000 A 
ENDBRANCH  21  22
ENDBRANCH  10  21
TORSDOF 4
ENDMDL
MODEL 8
REMARK VINA RESULT:      -7.2      5.620      7.833
REMARK  Name = CHEMBL592250
REMARK  6 active torsions:
REMARK  status: ('A' for Active; 'I' for Inactive)
REMARK    1  A    between atoms: C_1  and  O_2
REMARK    2  A    between atoms: O_2  and  C_3
REMARK    3  A    between atoms: C_6  and  N_7
REMARK    4  A    between atoms: C_8  and  C_9
REMARK    5  A    between atoms: C_16  and  O_17
REMARK    6  A    between atoms: O_17  and  C_18
REMARK                            x       y       z     vdW  Elec       q    Type
REMARK                         _______ _______ _______ _____ _____    ______ ____
ROOT
ATOM      1  N   UNL     1      -6.882   2.191 129.577  0.00  0.00    +0.000 N 
ATOM      2  C   UNL     1      -6.102   1.298 130.322  0.00  0.00    +0.000 A 
ATOM      3  C   UNL     1      -5.428   0.038 129.890  0.00  0.00    +0.000 C 
ATOM      4  N   UNL     1      -5.908   1.809 131.524  0.00  0.00    +0.000 NA
ATOM      5  N   UNL     1      -6.508   3.032 131.586  0.00  0.00    +0.000 NA
ATOM      6  C   UNL     1      -7.122   3.271 130.440  0.00  0.00    +0.000 A 
ATOM      7  N   UNL     1      -7.757   4.426 130.090  0.00  0.00    +0.000 N 
ATOM      8  C   UNL     1      -7.081   5.685 130.359  0.00  0.00    +0.000 C 
ATOM      9  C   UNL     1      -7.812   6.467 131.443  0.00  0.00    +0.000 C 
ATOM     10  C   UNL     1      -9.241   6.788 130.991  0.00  0.00    +0.000 C 
ATOM     11  C   UNL     1      -9.945   5.432 130.739  0.00  0.00    +0.000 C 
ATOM     12  C   UNL     1      -9.176   4.534 129.743  0.00  0.00    +0.000 C 
ENDROOT
BRANCH   1  16
ATOM     13  C   UNL     1      -8.345   2.058 125.672  0.00  0.00    +0.000 A 
ATOM     14  C   UNL     1      -7.162   2.743 125.901  0.00  0.00    +0.000 A 
ATOM     15  C   UNL     1      -6.638   2.761 127.198  0.00  0.00    +0.000 A 
ATOM     16  C   UNL     1      -7.311   2.097 128.227  0.00  0.00    +0.000 A 
ATOM     17  C   UNL     1      -8.504   1.469 127.915  0.00  0.00    +0.000 A 
ATOM     18  N   UNL     1      -9.033   1.442 126.662  0.00  0.00    +0.000 NA
BRANCH  13  20
ATOM     19  C   UNL     1      -8.360   2.910 123.488  0.00  0.00    +0.000 C 
ATOM     20  O   UNL     1      -8.961   2.044 124.448  0.00  0.00    +0.000 OA
ENDBRANCH  13  20
ENDBRANCH   1  16
BRANCH  10  21
ATOM     21  O   UNL     1      -9.337   7.579 129.780  0.00  0.00    +0.000 OA
BRANCH  21  22
ATOM     22  C   UNL     1     -10.561   7.600 129.157  0.00  0.00    +0.000 A 
ATOM     23  C   UNL     1     -10.640   7.299 127.797  0.00  0.00    +0.000 A 
ATOM     24  C   UNL     1     -11.854   7.460 127.112  0.00  0.00    +0.000 A 
ATOM     25  C   UNL     1     -13.004   7.862 127.793  0.00  0.00    +0.000 A 
ATOM     26  C   UNL     1     -12.925   8.180 129.140  0.00  0.00    +0.000 A 
ATOM     27  C   UNL     1     -11.697   8.103 129.794  0.00  0.00    +0.000 A 
ENDBRANCH  21  22
ENDBRANCH  10  21
TORSDOF 4
ENDMDL
MODEL 9
REMARK VINA RESULT:      -7.1      4.376      7.539
REMARK  Name = CHEMBL592250
REMARK  6 active torsions:
REMARK  status: ('A' for Active; 'I' for Inactive)
REMARK    1  A    between atoms: C_1  and  O_2
REMARK    2  A    between atoms: O_2  and  C_3
REMARK    3  A    between atoms: C_6  and  N_7
REMARK    4  A    between atoms: C_8  and  C_9
REMARK    5  A    between atoms: C_16  and  O_17
REMARK    6  A    between atoms: O_17  and  C_18
REMARK                            x       y       z     vdW  Elec       q    Type
REMARK                         _______ _______ _______ _____ _____    ______ ____
ROOT
ATOM      1  N   UNL     1      -6.583   3.167 123.249  0.00  0.00    +0.000 N 
ATOM      2  C   UNL     1      -6.434   3.740 121.980  0.00  0.00    +0.000 A 
ATOM      3  C   UNL     1      -7.251   3.542 120.747  0.00  0.00    +0.000 C 
ATOM      4  N   UNL     1      -5.480   4.651 122.039  0.00  0.00    +0.000 NA
ATOM      5  N   UNL     1      -5.017   4.724 123.319  0.00  0.00    +0.000 NA
ATOM      6  C   UNL     1      -5.643   3.824 124.058  0.00  0.00    +0.000 A 
ATOM      7  N   UNL     1      -5.516   3.655 125.405  0.00  0.00    +0.000 N 
ATOM      8  C   UNL     1      -5.549   4.839 126.248  0.00  0.00    +0.000 C 
ATOM      9  C   UNL     1      -4.186   5.084 126.883  0.00  0.00    +0.000 C 
ATOM     10  C   UNL     1      -3.789   3.893 127.761  0.00  0.00    +0.000 C 
ATOM     11  C   UNL     1      -3.734   2.654 126.834  0.00  0.00    +0.000 C 
ATOM     12  C   UNL     1      -5.051   2.428 126.058  0.00  0.00    +0.000 C 
ENDROOT
BRANCH   1  16
ATOM     13  C   UNL     1      -9.132   0.209 124.719  0.00  0.00    +0.000 A 
ATOM     14  C   UNL     1      -9.554   1.528 124.793  0.00  0.00    +0.000 A 
ATOM     15  C   UNL     1      -8.728   2.527 124.267  0.00  0.00    +0.000 A 
ATOM     16  C   UNL     1      -7.505   2.180 123.684  0.00  0.00    +0.000 A 
ATOM     17  C   UNL     1      -7.149   0.842 123.687  0.00  0.00    +0.000 A 
ATOM     18  N   UNL     1      -7.936  -0.144 124.196  0.00  0.00    +0.000 NA
BRANCH  13  20
ATOM     19  C   UNL     1      -9.058  -1.961 125.603  0.00  0.00    +0.000 C 
ATOM     20  O   UNL     1      -9.849  -0.823 125.267  0.00  0.00    +0.000 OA
ENDBRANCH  13  20
ENDBRANCH   1  16
BRANCH  10  21
ATOM     21  O   UNL     1      -4.702   3.603 128.850  0.00  0.00    +0.000 OA
BRANCH  21  22
ATOM     22  C   UNL     1      -4.729   4.506 129.884  0.00  0.00    +0.000 A 
ATOM     23  C   UNL     1      -5.897   5.228 130.131  0.00  0.00    +0.000 A 
ATOM     24  C   UNL     1      -5.898   6.258 131.083  0.00  0.00    +0.000 A 
ATOM     25  C   UNL     1      -4.753   6.530 131.834  0.00  0.00    +0.000 A 
ATOM     26  C   UNL     1      -3.585   5.828 131.579  0.00  0.00    +0.000 A 
ATOM     27  C   UNL     1      -3.568   4.867 130.570  0.00  0.00    +0.000 A 
ENDBRANCH  21  22
ENDBRANCH  10  21
TORSDOF 4
ENDMDL
