MODEL 1
REMARK VINA RESULT:      -9.2      0.000      0.000
REMARK  Name = CHEMBL521444
REMARK  7 active torsions:
REMARK  status: ('A' for Active; 'I' for Inactive)
REMARK    1  A    between atoms: C_1  and  C_2
REMARK    2  A    between atoms: C_4  and  C_5
REMARK    3  A    between atoms: C_13  and  C_14
REMARK    4  A    between atoms: N_16  and  C_17
REMARK    5  A    between atoms: N_16  and  C_24
REMARK    6  A    between atoms: C_17  and  C_18
REMARK    7  A    between atoms: C_24  and  C_25
REMARK                            x       y       z     vdW  Elec       q    Type
REMARK                         _______ _______ _______ _____ _____    ______ ____
ROOT
ATOM      1  C   UNL     1      -6.336   1.114 126.702  0.00  0.00    +0.000 C 
ATOM      2  O   UNL     1      -5.950   1.618 127.724  0.00  0.00    +0.000 OA
ATOM      3  N   UNL     1      -5.941  -0.203 126.373  0.00  0.00    +0.000 N 
ENDROOT
BRANCH   1  10
ATOM      4  C   UNL     1      -9.691   0.580 125.615  0.00  0.00    +0.000 C 
ATOM      5  C   UNL     1      -8.477   1.739 125.082  0.00  0.00    +0.000 A 
ATOM      6  C   UNL     1      -8.621   2.472 123.819  0.00  0.00    +0.000 A 
ATOM      7  C   UNL     1      -7.525   3.233 123.026  0.00  0.00    +0.000 A 
ATOM      8  C   UNL     1      -6.274   3.408 123.613  0.00  0.00    +0.000 A 
ATOM      9  C   UNL     1      -6.074   2.782 124.867  0.00  0.00    +0.000 A 
ATOM     10  C   UNL     1      -7.093   1.930 125.596  0.00  0.00    +0.000 A 
BRANCH   7  11
ATOM     11  C   UNL     1      -7.688   3.551 121.520  0.00  0.00    +0.000 A 
ATOM     12  C   UNL     1      -6.530   3.951 120.861  0.00  0.00    +0.000 A 
ATOM     13  C   UNL     1      -6.523   4.412 119.543  0.00  0.00    +0.000 A 
ATOM     14  C   UNL     1      -7.681   4.400 118.777  0.00  0.00    +0.000 A 
ATOM     15  C   UNL     1      -8.890   4.076 119.384  0.00  0.00    +0.000 A 
ATOM     16  C   UNL     1      -8.905   3.672 120.749  0.00  0.00    +0.000 A 
ENDBRANCH   7  11
ENDBRANCH   1  10
BRANCH   3  17
ATOM     17  C   UNL     1      -5.830  -0.688 125.017  0.00  0.00    +0.000 C 
BRANCH  17  18
ATOM     18  C   UNL     1      -6.850  -1.749 124.202  0.00  0.00    +0.000 A 
ATOM     19  C   UNL     1      -7.373  -3.136 124.669  0.00  0.00    +0.000 A 
ATOM     20  C   UNL     1      -8.581  -3.747 124.310  0.00  0.00    +0.000 A 
ATOM     21  C   UNL     1      -9.290  -3.017 123.413  0.00  0.00    +0.000 A 
ATOM     22  C   UNL     1      -8.777  -1.770 122.891  0.00  0.00    +0.000 A 
ATOM     23  C   UNL     1      -7.545  -1.162 123.180  0.00  0.00    +0.000 A 
ENDBRANCH  17  18
ENDBRANCH   3  17
BRANCH   3  24
ATOM     24  C   UNL     1      -5.766  -1.266 127.430  0.00  0.00    +0.000 C 
BRANCH  24  25
ATOM     25  C   UNL     1      -7.000  -1.566 128.438  0.00  0.00    +0.000 C 
ATOM     26  C   UNL     1      -6.582  -2.466 129.595  0.00  0.00    +0.000 C 
ATOM     27  C   UNL     1      -7.814  -3.293 129.901  0.00  0.00    +0.000 C 
ATOM     28  C   UNL     1      -8.466  -3.435 128.557  0.00  0.00    +0.000 C 
ATOM     29  O   UNL     1      -8.201  -2.188 127.911  0.00  0.00    +0.000 OA
ENDBRANCH  24  25
ENDBRANCH   3  24
TORSDOF 6
ENDMDL
MODEL 2
REMARK VINA RESULT:      -8.8      7.537     10.389
REMARK  Name = CHEMBL521444
REMARK  7 active torsions:
REMARK  status: ('A' for Active; 'I' for Inactive)
REMARK    1  A    between atoms: C_1  and  C_2
REMARK    2  A    between atoms: C_4  and  C_5
REMARK    3  A    between atoms: C_13  and  C_14
REMARK    4  A    between atoms: N_16  and  C_17
REMARK    5  A    between atoms: N_16  and  C_24
REMARK    6  A    between atoms: C_17  and  C_18
REMARK    7  A    between atoms: C_24  and  C_25
REMARK                            x       y       z     vdW  Elec       q    Type
REMARK                         _______ _______ _______ _____ _____    ______ ____
ROOT
ATOM      1  C   UNL     1      -9.258   6.004 132.178  0.00  0.00    +0.000 C 
ATOM      2  O   UNL     1      -9.687   6.423 133.221  0.00  0.00    +0.000 OA
ATOM      3  N   UNL     1     -10.151   5.610 131.155  0.00  0.00    +0.000 N 
ENDROOT
BRANCH   1  10
ATOM      4  C   UNL     1      -7.425   3.423 133.820  0.00  0.00    +0.000 C 
ATOM      5  C   UNL     1      -6.915   4.628 132.642  0.00  0.00    +0.000 A 
ATOM      6  C   UNL     1      -5.496   4.923 132.414  0.00  0.00    +0.000 A 
ATOM      7  C   UNL     1      -4.879   6.163 131.711  0.00  0.00    +0.000 A 
ATOM      8  C   UNL     1      -5.728   7.055 131.061  0.00  0.00    +0.000 A 
ATOM      9  C   UNL     1      -7.116   6.804 131.181  0.00  0.00    +0.000 A 
ATOM     10  C   UNL     1      -7.739   5.669 131.969  0.00  0.00    +0.000 A 
BRANCH   7  11
ATOM     11  C   UNL     1      -3.407   6.578 131.946  0.00  0.00    +0.000 A 
ATOM     12  C   UNL     1      -2.473   5.550 131.872  0.00  0.00    +0.000 A 
ATOM     13  C   UNL     1      -1.125   5.718 132.197  0.00  0.00    +0.000 A 
ATOM     14  C   UNL     1      -0.621   6.970 132.524  0.00  0.00    +0.000 A 
ATOM     15  C   UNL     1      -1.504   8.034 132.683  0.00  0.00    +0.000 A 
ATOM     16  C   UNL     1      -2.889   7.843 132.418  0.00  0.00    +0.000 A 
ENDBRANCH   7  11
ENDBRANCH   1  10
BRANCH   3  17
ATOM     17  C   UNL     1      -9.836   4.605 130.165  0.00  0.00    +0.000 C 
BRANCH  17  18
ATOM     18  C   UNL     1      -9.608   2.954 130.391  0.00  0.00    +0.000 A 
ATOM     19  C   UNL     1      -8.469   2.052 129.840  0.00  0.00    +0.000 A 
ATOM     20  C   UNL     1      -7.958   0.887 130.426  0.00  0.00    +0.000 A 
ATOM     21  C   UNL     1      -8.614   0.541 131.562  0.00  0.00    +0.000 A 
ATOM     22  C   UNL     1      -9.739   1.311 132.040  0.00  0.00    +0.000 A 
ATOM     23  C   UNL     1     -10.317   2.445 131.445  0.00  0.00    +0.000 A 
ENDBRANCH  17  18
ENDBRANCH   3  17
BRANCH   3  24
ATOM     24  C   UNL     1     -11.452   6.335 130.914  0.00  0.00    +0.000 C 
BRANCH  24  25
ATOM     25  C   UNL     1     -11.675   7.069 129.486  0.00  0.00    +0.000 C 
ATOM     26  C   UNL     1     -12.430   8.385 129.637  0.00  0.00    +0.000 C 
ATOM     27  C   UNL     1     -13.254   8.501 128.371  0.00  0.00    +0.000 C 
ATOM     28  C   UNL     1     -13.562   7.071 128.039  0.00  0.00    +0.000 C 
ATOM     29  O   UNL     1     -12.387   6.363 128.437  0.00  0.00    +0.000 OA
ENDBRANCH  24  25
ENDBRANCH   3  24
TORSDOF 6
ENDMDL
MODEL 3
REMARK VINA RESULT:      -8.8      2.015      7.590
REMARK  Name = CHEMBL521444
REMARK  7 active torsions:
REMARK  status: ('A' for Active; 'I' for Inactive)
REMARK    1  A    between atoms: C_1  and  C_2
REMARK    2  A    between atoms: C_4  and  C_5
REMARK    3  A    between atoms: C_13  and  C_14
REMARK    4  A    between atoms: N_16  and  C_17
REMARK    5  A    between atoms: N_16  and  C_24
REMARK    6  A    between atoms: C_17  and  C_18
REMARK    7  A    between atoms: C_24  and  C_25
REMARK                            x       y       z     vdW  Elec       q    Type
REMARK                         _______ _______ _______ _____ _____    ______ ____
ROOT
ATOM      1  C   UNL     1      -8.901   1.545 124.588  0.00  0.00    +0.000 C 
ATOM      2  O   UNL     1     -10.046   1.912 124.641  0.00  0.00    +0.000 OA
ATOM      3  N   UNL     1      -8.270   1.379 123.335  0.00  0.00    +0.000 N 
ENDROOT
BRANCH   1  10
ATOM      4  C   UNL     1      -5.692   2.648 125.688  0.00  0.00    +0.000 C 
ATOM      5  C   UNL     1      -6.779   1.429 126.345  0.00  0.00    +0.000 A 
ATOM      6  C   UNL     1      -6.315   0.436 127.321  0.00  0.00    +0.000 A 
ATOM      7  C   UNL     1      -7.000  -0.897 127.725  0.00  0.00    +0.000 A 
ATOM      8  C   UNL     1      -8.285  -1.159 127.257  0.00  0.00    +0.000 A 
ATOM      9  C   UNL     1      -8.831  -0.214 126.356  0.00  0.00    +0.000 A 
ATOM     10  C   UNL     1      -8.126   1.030 125.852  0.00  0.00    +0.000 A 
BRANCH   7  11
ATOM     11  C   UNL     1      -6.205  -2.047 128.390  0.00  0.00    +0.000 A 
ATOM     12  C   UNL     1      -6.935  -2.870 129.241  0.00  0.00    +0.000 A 
ATOM     13  C   UNL     1      -6.350  -3.862 130.030  0.00  0.00    +0.000 A 
ATOM     14  C   UNL     1      -4.995  -4.147 129.929  0.00  0.00    +0.000 A 
ATOM     15  C   UNL     1      -4.187  -3.325 129.150  0.00  0.00    +0.000 A 
ATOM     16  C   UNL     1      -4.776  -2.270 128.399  0.00  0.00    +0.000 A 
ENDBRANCH   7  11
ENDBRANCH   1  10
BRANCH   3  17
ATOM     17  C   UNL     1      -7.193   0.446 123.101  0.00  0.00    +0.000 C 
BRANCH  17  18
ATOM     18  C   UNL     1      -7.197  -1.224 123.309  0.00  0.00    +0.000 A 
ATOM     19  C   UNL     1      -6.228  -2.093 124.158  0.00  0.00    +0.000 A 
ATOM     20  C   UNL     1      -6.514  -3.317 124.775  0.00  0.00    +0.000 A 
ATOM     21  C   UNL     1      -7.772  -3.754 124.513  0.00  0.00    +0.000 A 
ATOM     22  C   UNL     1      -8.657  -3.009 123.647  0.00  0.00    +0.000 A 
ATOM     23  C   UNL     1      -8.382  -1.814 122.962  0.00  0.00    +0.000 A 
ENDBRANCH  17  18
ENDBRANCH   3  17
BRANCH   3  24
ATOM     24  C   UNL     1      -8.564   2.295 122.172  0.00  0.00    +0.000 C 
BRANCH  24  25
ATOM     25  C   UNL     1      -7.525   3.499 121.853  0.00  0.00    +0.000 C 
ATOM     26  C   UNL     1      -7.574   3.917 120.388  0.00  0.00    +0.000 C 
ATOM     27  C   UNL     1      -6.153   4.330 120.062  0.00  0.00    +0.000 C 
ATOM     28  C   UNL     1      -5.331   3.432 120.938  0.00  0.00    +0.000 C 
ATOM     29  O   UNL     1      -6.114   3.298 122.126  0.00  0.00    +0.000 OA
ENDBRANCH  24  25
ENDBRANCH   3  24
TORSDOF 6
ENDMDL
MODEL 4
REMARK VINA RESULT:      -8.5      6.493     10.645
REMARK  Name = CHEMBL521444
REMARK  7 active torsions:
REMARK  status: ('A' for Active; 'I' for Inactive)
REMARK    1  A    between atoms: C_1  and  C_2
REMARK    2  A    between atoms: C_4  and  C_5
REMARK    3  A    between atoms: C_13  and  C_14
REMARK    4  A    between atoms: N_16  and  C_17
REMARK    5  A    between atoms: N_16  and  C_24
REMARK    6  A    between atoms: C_17  and  C_18
REMARK    7  A    between atoms: C_24  and  C_25
REMARK                            x       y       z     vdW  Elec       q    Type
REMARK                         _______ _______ _______ _____ _____    ______ ____
ROOT
ATOM      1  C   UNL     1     -10.787   4.623 130.439  0.00  0.00    +0.000 C 
ATOM      2  O   UNL     1     -11.702   4.392 129.694  0.00  0.00    +0.000 OA
ATOM      3  N   UNL     1     -10.619   5.921 130.971  0.00  0.00    +0.000 N 
ENDROOT
BRANCH   1  10
ATOM      4  C   UNL     1      -7.877   4.202 128.418  0.00  0.00    +0.000 C 
ATOM      5  C   UNL     1      -8.407   3.353 129.867  0.00  0.00    +0.000 A 
ATOM      6  C   UNL     1      -7.813   2.071 130.263  0.00  0.00    +0.000 A 
ATOM      7  C   UNL     1      -8.376   1.027 131.265  0.00  0.00    +0.000 A 
ATOM      8  C   UNL     1      -9.492   1.365 132.027  0.00  0.00    +0.000 A 
ATOM      9  C   UNL     1     -10.089   2.618 131.749  0.00  0.00    +0.000 A 
ATOM     10  C   UNL     1      -9.627   3.594 130.686  0.00  0.00    +0.000 A 
BRANCH   7  11
ATOM     11  C   UNL     1      -7.914  -0.449 131.241  0.00  0.00    +0.000 A 
ATOM     12  C   UNL     1      -7.852  -1.040 129.983  0.00  0.00    +0.000 A 
ATOM     13  C   UNL     1      -7.595  -2.399 129.790  0.00  0.00    +0.000 A 
ATOM     14  C   UNL     1      -7.285  -3.226 130.861  0.00  0.00    +0.000 A 
ATOM     15  C   UNL     1      -7.391  -2.724 132.155  0.00  0.00    +0.000 A 
ATOM     16  C   UNL     1      -7.720  -1.354 132.352  0.00  0.00    +0.000 A 
ENDBRANCH   7  11
ENDBRANCH   1  10
BRANCH   3  17
ATOM     17  C   UNL     1      -9.339   6.466 131.359  0.00  0.00    +0.000 C 
BRANCH  17  18
ATOM     18  C   UNL     1      -8.291   5.917 132.554  0.00  0.00    +0.000 A 
ATOM     19  C   UNL     1      -8.636   5.173 133.874  0.00  0.00    +0.000 A 
ATOM     20  C   UNL     1      -7.829   4.259 134.564  0.00  0.00    +0.000 A 
ATOM     21  C   UNL     1      -6.609   4.101 133.990  0.00  0.00    +0.000 A 
ATOM     22  C   UNL     1      -6.231   4.856 132.817  0.00  0.00    +0.000 A 
ATOM     23  C   UNL     1      -6.990   5.824 132.139  0.00  0.00    +0.000 A 
ENDBRANCH  17  18
ENDBRANCH   3  17
BRANCH   3  24
ATOM     24  C   UNL     1     -11.801   6.787 131.337  0.00  0.00    +0.000 C 
BRANCH  24  25
ATOM     25  C   UNL     1     -12.348   7.850 130.242  0.00  0.00    +0.000 C 
ATOM     26  C   UNL     1     -13.395   7.230 129.324  0.00  0.00    +0.000 C 
ATOM     27  C   UNL     1     -13.187   7.917 127.989  0.00  0.00    +0.000 C 
ATOM     28  C   UNL     1     -11.712   8.185 127.975  0.00  0.00    +0.000 C 
ATOM     29  O   UNL     1     -11.401   8.478 129.339  0.00  0.00    +0.000 OA
ENDBRANCH  24  25
ENDBRANCH   3  24
TORSDOF 6
ENDMDL
MODEL 5
REMARK VINA RESULT:      -8.3      7.478      8.667
REMARK  Name = CHEMBL521444
REMARK  7 active torsions:
REMARK  status: ('A' for Active; 'I' for Inactive)
REMARK    1  A    between atoms: C_1  and  C_2
REMARK    2  A    between atoms: C_4  and  C_5
REMARK    3  A    between atoms: C_13  and  C_14
REMARK    4  A    between atoms: N_16  and  C_17
REMARK    5  A    between atoms: N_16  and  C_24
REMARK    6  A    between atoms: C_17  and  C_18
REMARK    7  A    between atoms: C_24  and  C_25
REMARK                            x       y       z     vdW  Elec       q    Type
REMARK                         _______ _______ _______ _____ _____    ______ ____
ROOT
ATOM      1  C   UNL     1      -5.722   5.150 132.807  0.00  0.00    +0.000 C 
ATOM      2  O   UNL     1      -4.858   5.707 133.431  0.00  0.00    +0.000 OA
ATOM      3  N   UNL     1      -5.426   3.967 132.093  0.00  0.00    +0.000 N 
ENDROOT
BRANCH   1  10
ATOM      4  C   UNL     1      -8.776   4.187 134.379  0.00  0.00    +0.000 C 
ATOM      5  C   UNL     1      -8.442   5.422 133.169  0.00  0.00    +0.000 A 
ATOM      6  C   UNL     1      -9.519   6.037 132.385  0.00  0.00    +0.000 A 
ATOM      7  C   UNL     1      -9.398   6.846 131.065  0.00  0.00    +0.000 A 
ATOM      8  C   UNL     1      -8.130   7.195 130.608  0.00  0.00    +0.000 A 
ATOM      9  C   UNL     1      -7.033   6.691 131.348  0.00  0.00    +0.000 A 
ATOM     10  C   UNL     1      -7.132   5.796 132.567  0.00  0.00    +0.000 A 
BRANCH   7  11
ATOM     11  C   UNL     1     -10.605   7.028 130.114  0.00  0.00    +0.000 A 
ATOM     12  C   UNL     1     -10.410   7.913 129.058  0.00  0.00    +0.000 A 
ATOM     13  C   UNL     1     -11.433   8.304 128.191  0.00  0.00    +0.000 A 
ATOM     14  C   UNL     1     -12.699   7.743 128.283  0.00  0.00    +0.000 A 
ATOM     15  C   UNL     1     -12.990   6.901 129.352  0.00  0.00    +0.000 A 
ATOM     16  C   UNL     1     -11.962   6.557 130.275  0.00  0.00    +0.000 A 
ENDBRANCH   7  11
ENDBRANCH   1  10
BRANCH   3  17
ATOM     17  C   UNL     1      -6.138   3.552 130.906  0.00  0.00    +0.000 C 
BRANCH  17  18
ATOM     18  C   UNL     1      -7.648   2.817 130.799  0.00  0.00    +0.000 A 
ATOM     19  C   UNL     1      -8.309   1.821 131.792  0.00  0.00    +0.000 A 
ATOM     20  C   UNL     1      -9.679   1.645 132.023  0.00  0.00    +0.000 A 
ATOM     21  C   UNL     1     -10.449   2.420 131.218  0.00  0.00    +0.000 A 
ATOM     22  C   UNL     1      -9.857   3.282 130.221  0.00  0.00    +0.000 A 
ATOM     23  C   UNL     1      -8.494   3.435 129.919  0.00  0.00    +0.000 A 
ENDBRANCH  17  18
ENDBRANCH   3  17
BRANCH   3  24
ATOM     24  C   UNL     1      -4.443   2.949 132.617  0.00  0.00    +0.000 C 
BRANCH  24  25
ATOM     25  C   UNL     1      -5.021   1.590 133.288  0.00  0.00    +0.000 C 
ATOM     26  C   UNL     1      -5.635   1.851 134.658  0.00  0.00    +0.000 C 
ATOM     27  C   UNL     1      -5.349   0.592 135.451  0.00  0.00    +0.000 C 
ATOM     28  C   UNL     1      -4.038   0.130 134.887  0.00  0.00    +0.000 C 
ATOM     29  O   UNL     1      -4.117   0.475 133.502  0.00  0.00    +0.000 OA
ENDBRANCH  24  25
ENDBRANCH   3  24
TORSDOF 6
ENDMDL
MODEL 6
REMARK VINA RESULT:      -8.3      7.016      9.442
REMARK  Name = CHEMBL521444
REMARK  7 active torsions:
REMARK  status: ('A' for Active; 'I' for Inactive)
REMARK    1  A    between atoms: C_1  and  C_2
REMARK    2  A    between atoms: C_4  and  C_5
REMARK    3  A    between atoms: C_13  and  C_14
REMARK    4  A    between atoms: N_16  and  C_17
REMARK    5  A    between atoms: N_16  and  C_24
REMARK    6  A    between atoms: C_17  and  C_18
REMARK    7  A    between atoms: C_24  and  C_25
REMARK                            x       y       z     vdW  Elec       q    Type
REMARK                         _______ _______ _______ _____ _____    ______ ____
ROOT
ATOM      1  C   UNL     1      -5.454   4.137 130.206  0.00  0.00    +0.000 C 
ATOM      2  O   UNL     1      -4.819   4.450 129.234  0.00  0.00    +0.000 OA
ATOM      3  N   UNL     1      -4.894   3.259 131.162  0.00  0.00    +0.000 N 
ENDROOT
BRANCH   1  10
ATOM      4  C   UNL     1      -8.185   2.418 128.687  0.00  0.00    +0.000 C 
ATOM      5  C   UNL     1      -8.154   3.831 129.737  0.00  0.00    +0.000 A 
ATOM      6  C   UNL     1      -9.319   4.713 129.869  0.00  0.00    +0.000 A 
ATOM      7  C   UNL     1      -9.363   6.157 130.436  0.00  0.00    +0.000 A 
ATOM      8  C   UNL     1      -8.225   6.670 131.054  0.00  0.00    +0.000 A 
ATOM      9  C   UNL     1      -7.071   5.851 131.025  0.00  0.00    +0.000 A 
ATOM     10  C   UNL     1      -6.975   4.490 130.364  0.00  0.00    +0.000 A 
BRANCH   7  11
ATOM     11  C   UNL     1     -10.521   7.126 130.094  0.00  0.00    +0.000 A 
ATOM     12  C   UNL     1     -11.668   6.990 130.869  0.00  0.00    +0.000 A 
ATOM     13  C   UNL     1     -12.853   7.680 130.606  0.00  0.00    +0.000 A 
ATOM     14  C   UNL     1     -12.916   8.630 129.595  0.00  0.00    +0.000 A 
ATOM     15  C   UNL     1     -11.831   8.776 128.736  0.00  0.00    +0.000 A 
ATOM     16  C   UNL     1     -10.647   8.020 128.965  0.00  0.00    +0.000 A 
ENDBRANCH   7  11
ENDBRANCH   1  10
BRANCH   3  17
ATOM     17  C   UNL     1      -5.682   2.383 131.998  0.00  0.00    +0.000 C 
BRANCH  17  18
ATOM     18  C   UNL     1      -6.895   2.794 133.088  0.00  0.00    +0.000 A 
ATOM     19  C   UNL     1      -6.955   4.012 134.052  0.00  0.00    +0.000 A 
ATOM     20  C   UNL     1      -8.104   4.660 134.521  0.00  0.00    +0.000 A 
ATOM     21  C   UNL     1      -9.249   4.071 134.093  0.00  0.00    +0.000 A 
ATOM     22  C   UNL     1      -9.217   2.879 133.276  0.00  0.00    +0.000 A 
ATOM     23  C   UNL     1      -8.086   2.168 132.841  0.00  0.00    +0.000 A 
ENDBRANCH  17  18
ENDBRANCH   3  17
BRANCH   3  24
ATOM     24  C   UNL     1      -3.425   3.292 131.505  0.00  0.00    +0.000 C 
BRANCH  24  25
ATOM     25  C   UNL     1      -2.780   4.689 132.015  0.00  0.00    +0.000 C 
ATOM     26  C   UNL     1      -3.740   5.461 132.914  0.00  0.00    +0.000 C 
ATOM     27  C   UNL     1      -3.446   6.919 132.622  0.00  0.00    +0.000 C 
ATOM     28  C   UNL     1      -3.045   6.899 131.177  0.00  0.00    +0.000 C 
ATOM     29  O   UNL     1      -2.345   5.662 131.030  0.00  0.00    +0.000 OA
ENDBRANCH  24  25
ENDBRANCH   3  24
TORSDOF 6
ENDMDL
MODEL 7
REMARK VINA RESULT:      -8.2      2.228      7.644
REMARK  Name = CHEMBL521444
REMARK  7 active torsions:
REMARK  status: ('A' for Active; 'I' for Inactive)
REMARK    1  A    between atoms: C_1  and  C_2
REMARK    2  A    between atoms: C_4  and  C_5
REMARK    3  A    between atoms: C_13  and  C_14
REMARK    4  A    between atoms: N_16  and  C_17
REMARK    5  A    between atoms: N_16  and  C_24
REMARK    6  A    between atoms: C_17  and  C_18
REMARK    7  A    between atoms: C_24  and  C_25
REMARK                            x       y       z     vdW  Elec       q    Type
REMARK                         _______ _______ _______ _____ _____    ______ ____
ROOT
ATOM      1  C   UNL     1      -7.904   2.829 126.606  0.00  0.00    +0.000 C 
ATOM      2  O   UNL     1      -8.101   3.999 126.805  0.00  0.00    +0.000 OA
ATOM      3  N   UNL     1      -8.609   2.160 125.580  0.00  0.00    +0.000 N 
ENDROOT
BRANCH   1  10
ATOM      4  C   UNL     1      -4.419   2.133 126.304  0.00  0.00    +0.000 C 
ATOM      5  C   UNL     1      -5.603   1.596 127.491  0.00  0.00    +0.000 A 
ATOM      6  C   UNL     1      -5.330   0.466 128.386  0.00  0.00    +0.000 A 
ATOM      7  C   UNL     1      -6.348  -0.362 129.217  0.00  0.00    +0.000 A 
ATOM      8  C   UNL     1      -7.669   0.074 129.283  0.00  0.00    +0.000 A 
ATOM      9  C   UNL     1      -8.001   1.201 128.493  0.00  0.00    +0.000 A 
ATOM     10  C   UNL     1      -7.048   1.944 127.579  0.00  0.00    +0.000 A 
BRANCH   7  11
ATOM     11  C   UNL     1      -6.009  -1.781 129.733  0.00  0.00    +0.000 A 
ATOM     12  C   UNL     1      -4.742  -2.252 129.407  0.00  0.00    +0.000 A 
ATOM     13  C   UNL     1      -4.323  -3.559 129.667  0.00  0.00    +0.000 A 
ATOM     14  C   UNL     1      -5.135  -4.442 130.366  0.00  0.00    +0.000 A 
ATOM     15  C   UNL     1      -6.440  -4.066 130.668  0.00  0.00    +0.000 A 
ATOM     16  C   UNL     1      -6.887  -2.755 130.340  0.00  0.00    +0.000 A 
ENDBRANCH   7  11
ENDBRANCH   1  10
BRANCH   3  17
ATOM     17  C   UNL     1      -8.911   0.747 125.609  0.00  0.00    +0.000 C 
BRANCH  17  18
ATOM     18  C   UNL     1      -7.868  -0.547 125.347  0.00  0.00    +0.000 A 
ATOM     19  C   UNL     1      -6.431  -0.524 124.757  0.00  0.00    +0.000 A 
ATOM     20  C   UNL     1      -5.392  -1.423 125.032  0.00  0.00    +0.000 A 
ATOM     21  C   UNL     1      -5.772  -2.423 125.865  0.00  0.00    +0.000 A 
ATOM     22  C   UNL     1      -7.131  -2.518 126.349  0.00  0.00    +0.000 A 
ATOM     23  C   UNL     1      -8.211  -1.674 126.043  0.00  0.00    +0.000 A 
ENDBRANCH  17  18
ENDBRANCH   3  17
BRANCH   3  24
ATOM     24  C   UNL     1      -8.960   2.844 124.282  0.00  0.00    +0.000 C 
BRANCH  24  25
ATOM     25  C   UNL     1      -8.137   2.437 122.946  0.00  0.00    +0.000 C 
ATOM     26  C   UNL     1      -6.651   2.753 123.077  0.00  0.00    +0.000 C 
ATOM     27  C   UNL     1      -6.215   3.130 121.676  0.00  0.00    +0.000 C 
ATOM     28  C   UNL     1      -7.444   3.771 121.103  0.00  0.00    +0.000 C 
ATOM     29  O   UNL     1      -8.521   3.028 121.677  0.00  0.00    +0.000 OA
ENDBRANCH  24  25
ENDBRANCH   3  24
TORSDOF 6
ENDMDL
MODEL 8
REMARK VINA RESULT:      -8.1      7.695     10.970
REMARK  Name = CHEMBL521444
REMARK  7 active torsions:
REMARK  status: ('A' for Active; 'I' for Inactive)
REMARK    1  A    between atoms: C_1  and  C_2
REMARK    2  A    between atoms: C_4  and  C_5
REMARK    3  A    between atoms: C_13  and  C_14
REMARK    4  A    between atoms: N_16  and  C_17
REMARK    5  A    between atoms: N_16  and  C_24
REMARK    6  A    between atoms: C_17  and  C_18
REMARK    7  A    between atoms: C_24  and  C_25
REMARK                            x       y       z     vdW  Elec       q    Type
REMARK                         _______ _______ _______ _____ _____    ______ ____
ROOT
ATOM      1  C   UNL     1      -9.694   6.003 129.671  0.00  0.00    +0.000 C 
ATOM      2  O   UNL     1     -10.104   6.367 128.601  0.00  0.00    +0.000 OA
ATOM      3  N   UNL     1     -10.524   6.089 130.812  0.00  0.00    +0.000 N 
ENDROOT
BRANCH   1  10
ATOM      4  C   UNL     1      -8.293   2.724 129.579  0.00  0.00    +0.000 C 
ATOM      5  C   UNL     1      -7.550   4.286 129.913  0.00  0.00    +0.000 A 
ATOM      6  C   UNL     1      -6.228   4.386 130.540  0.00  0.00    +0.000 A 
ATOM      7  C   UNL     1      -5.587   5.623 131.225  0.00  0.00    +0.000 A 
ATOM      8  C   UNL     1      -6.232   6.853 131.123  0.00  0.00    +0.000 A 
ATOM      9  C   UNL     1      -7.490   6.853 130.474  0.00  0.00    +0.000 A 
ATOM     10  C   UNL     1      -8.188   5.631 129.910  0.00  0.00    +0.000 A 
BRANCH   7  11
ATOM     11  C   UNL     1      -4.423   5.478 132.235  0.00  0.00    +0.000 A 
ATOM     12  C   UNL     1      -4.305   6.502 133.168  0.00  0.00    +0.000 A 
ATOM     13  C   UNL     1      -3.233   6.605 134.057  0.00  0.00    +0.000 A 
ATOM     14  C   UNL     1      -2.262   5.615 134.120  0.00  0.00    +0.000 A 
ATOM     15  C   UNL     1      -2.275   4.593 133.175  0.00  0.00    +0.000 A 
ATOM     16  C   UNL     1      -3.332   4.529 132.225  0.00  0.00    +0.000 A 
ENDBRANCH   7  11
ENDBRANCH   1  10
BRANCH   3  17
ATOM     17  C   UNL     1     -10.020   6.250 132.156  0.00  0.00    +0.000 C 
BRANCH  17  18
ATOM     18  C   UNL     1      -9.284   5.100 133.138  0.00  0.00    +0.000 A 
ATOM     19  C   UNL     1      -9.266   3.555 132.969  0.00  0.00    +0.000 A 
ATOM     20  C   UNL     1      -8.267   2.671 133.398  0.00  0.00    +0.000 A 
ATOM     21  C   UNL     1      -7.270   3.296 134.074  0.00  0.00    +0.000 A 
ATOM     22  C   UNL     1      -7.315   4.718 134.327  0.00  0.00    +0.000 A 
ATOM     23  C   UNL     1      -8.329   5.622 133.968  0.00  0.00    +0.000 A 
ENDBRANCH  17  18
ENDBRANCH   3  17
BRANCH   3  24
ATOM     24  C   UNL     1     -12.012   5.847 130.729  0.00  0.00    +0.000 C 
BRANCH  24  25
ATOM     25  C   UNL     1     -12.963   7.049 130.202  0.00  0.00    +0.000 C 
ATOM     26  C   UNL     1     -13.403   6.833 128.759  0.00  0.00    +0.000 C 
ATOM     27  C   UNL     1     -13.500   8.228 128.175  0.00  0.00    +0.000 C 
ATOM     28  C   UNL     1     -12.430   8.976 128.914  0.00  0.00    +0.000 C 
ATOM     29  O   UNL     1     -12.453   8.408 130.225  0.00  0.00    +0.000 OA
ENDBRANCH  24  25
ENDBRANCH   3  24
TORSDOF 6
ENDMDL
MODEL 9
REMARK VINA RESULT:      -8.1      2.129      8.202
REMARK  Name = CHEMBL521444
REMARK  7 active torsions:
REMARK  status: ('A' for Active; 'I' for Inactive)
REMARK    1  A    between atoms: C_1  and  C_2
REMARK    2  A    between atoms: C_4  and  C_5
REMARK    3  A    between atoms: C_13  and  C_14
REMARK    4  A    between atoms: N_16  and  C_17
REMARK    5  A    between atoms: N_16  and  C_24
REMARK    6  A    between atoms: C_17  and  C_18
REMARK    7  A    between atoms: C_24  and  C_25
REMARK                            x       y       z     vdW  Elec       q    Type
REMARK                         _______ _______ _______ _____ _____    ______ ____
ROOT
ATOM      1  C   UNL     1      -8.178   0.781 126.888  0.00  0.00    +0.000 C 
ATOM      2  O   UNL     1      -9.339   1.071 127.004  0.00  0.00    +0.000 OA
ATOM      3  N   UNL     1      -7.341   1.545 126.043  0.00  0.00    +0.000 N 
ENDROOT
BRANCH   1  10
ATOM      4  C   UNL     1      -9.324  -2.522 126.182  0.00  0.00    +0.000 C 
ATOM      5  C   UNL     1      -8.033  -1.950 127.235  0.00  0.00    +0.000 A 
ATOM      6  C   UNL     1      -7.435  -2.819 128.255  0.00  0.00    +0.000 A 
ATOM      7  C   UNL     1      -6.575  -2.403 129.478  0.00  0.00    +0.000 A 
ATOM      8  C   UNL     1      -6.156  -1.079 129.583  0.00  0.00    +0.000 A 
ATOM      9  C   UNL     1      -6.641  -0.186 128.598  0.00  0.00    +0.000 A 
ATOM     10  C   UNL     1      -7.583  -0.550 127.468  0.00  0.00    +0.000 A 
BRANCH   7  11
ATOM     11  C   UNL     1      -6.408  -3.332 130.704  0.00  0.00    +0.000 A 
ATOM     12  C   UNL     1      -7.067  -2.927 131.861  0.00  0.00    +0.000 A 
ATOM     13  C   UNL     1      -6.910  -3.566 133.092  0.00  0.00    +0.000 A 
ATOM     14  C   UNL     1      -6.148  -4.721 133.205  0.00  0.00    +0.000 A 
ATOM     15  C   UNL     1      -5.406  -5.151 132.109  0.00  0.00    +0.000 A 
ATOM     16  C   UNL     1      -5.514  -4.457 130.871  0.00  0.00    +0.000 A 
ENDBRANCH   7  11
ENDBRANCH   1  10
BRANCH   3  17
ATOM     17  C   UNL     1      -6.174   1.011 125.380  0.00  0.00    +0.000 C 
BRANCH  17  18
ATOM     18  C   UNL     1      -6.036  -0.420 124.506  0.00  0.00    +0.000 A 
ATOM     19  C   UNL     1      -5.265  -1.715 124.889  0.00  0.00    +0.000 A 
ATOM     20  C   UNL     1      -5.570  -3.025 124.500  0.00  0.00    +0.000 A 
ATOM     21  C   UNL     1      -6.630  -3.086 123.654  0.00  0.00    +0.000 A 
ATOM     22  C   UNL     1      -7.301  -1.886 123.208  0.00  0.00    +0.000 A 
ATOM     23  C   UNL     1      -6.982  -0.556 123.527  0.00  0.00    +0.000 A 
ENDBRANCH  17  18
ENDBRANCH   3  17
BRANCH   3  24
ATOM     24  C   UNL     1      -7.508   3.039 125.902  0.00  0.00    +0.000 C 
BRANCH  24  25
ATOM     25  C   UNL     1      -7.895   3.639 124.446  0.00  0.00    +0.000 C 
ATOM     26  C   UNL     1      -8.872   2.736 123.702  0.00  0.00    +0.000 C 
ATOM     27  C   UNL     1      -8.502   2.894 122.241  0.00  0.00    +0.000 C 
ATOM     28  C   UNL     1      -7.022   3.130 122.293  0.00  0.00    +0.000 C 
ATOM     29  O   UNL     1      -6.835   3.893 123.487  0.00  0.00    +0.000 OA
ENDBRANCH  24  25
ENDBRANCH   3  24
TORSDOF 6
ENDMDL
