MODEL 1
REMARK VINA RESULT:      -9.9      0.000      0.000
REMARK  Name = CHEMBL211443
REMARK  8 active torsions:
REMARK  status: ('A' for Active; 'I' for Inactive)
REMARK    1  A    between atoms: CD1_1  and  CG_2
REMARK    2  A    between atoms: CG_2  and  CD2_3
REMARK    3  A    between atoms: CG_2  and  CB_4
REMARK    4  A    between atoms: CB_4  and  CA_5
REMARK    5  A    between atoms: C_9  and  C_10
REMARK    6  A    between atoms: N_21  and  C_22
REMARK    7  A    between atoms: C_22  and  C_23
REMARK    8  A    between atoms: C_22  and  C_31
REMARK                            x       y       z     vdW  Elec       q    Type
REMARK                         _______ _______ _______ _____ _____    ______ ____
ROOT
ATOM      1  CA  LEU A   2      -5.440   2.900 127.396  0.00  0.00    +0.000 C 
ATOM      2  C   LEU A   2      -5.208   2.167 128.790  0.00  0.00    +0.000 C 
ATOM      3  O   LEU A   2      -4.152   1.887 129.350  0.00  0.00    +0.000 OA
ATOM      4  N   UNK A   1      -6.372   1.927 129.444  0.00  0.00    +0.000 N 
ATOM      5  C   UNK A   1      -7.575   2.610 129.019  0.00  0.00    +0.000 C 
ATOM      6  C   UNK A   1      -7.782   2.342 127.554  0.00  0.00    +0.000 C 
ATOM      7  O   UNK A   1      -8.947   2.264 127.116  0.00  0.00    +0.000 OA
ATOM      8  N   LEU A   2      -6.627   2.219 126.816  0.00  0.00    +0.000 N 
ATOM      9  H   UNK A   1      -6.271   1.512 130.365  0.00  0.00    +0.000 HD
ENDROOT
BRANCH   5  10
ATOM     10  C   UNK A   1      -8.841   2.067 129.681  0.00  0.00    +0.000 C 
ATOM     11  C   UNK A   1      -9.733   3.218 130.113  0.00  0.00    +0.000 C 
ATOM     12  C   UNK A   1      -9.258   3.425 131.516  0.00  0.00    +0.000 A 
ATOM     13  C   UNK A   1      -9.341   4.586 132.255  0.00  0.00    +0.000 A 
ATOM     14  C   UNK A   1      -8.721   4.615 133.503  0.00  0.00    +0.000 A 
ATOM     15  C   UNK A   1      -8.012   3.502 133.985  0.00  0.00    +0.000 A 
ATOM     16  C   UNK A   1      -7.908   2.338 133.223  0.00  0.00    +0.000 A 
ATOM     17  C   UNK A   1      -8.548   2.312 131.996  0.00  0.00    +0.000 A 
ATOM     18  C   UNK A   1      -8.491   1.239 130.957  0.00  0.00    +0.000 C 
ENDBRANCH   5  10
BRANCH   1  19
ATOM     19  CB  LEU A   2      -4.222   2.888 126.513  0.00  0.00    +0.000 C 
BRANCH  19  21
ATOM     20  CD1 LEU A   2      -2.616   4.685 127.652  0.00  0.00    +0.000 C 
ATOM     21  CG  LEU A   2      -2.925   3.757 126.469  0.00  0.00    +0.000 C 
ATOM     22  CD2 LEU A   2      -1.674   2.931 126.584  0.00  0.00    +0.000 C 
ENDBRANCH  19  21
ENDBRANCH   1  19
BRANCH   8  23
ATOM     23  C   UNK A   0      -6.577   1.231 125.681  0.00  0.00    +0.000 C 
BRANCH  23  24
ATOM     24  C   UNK A   0      -6.269  -0.546 125.775  0.00  0.00    +0.000 C 
ATOM     25  O   UNK A   0      -5.717  -0.964 126.808  0.00  0.00    +0.000 OA
ATOM     26  N   UNK A   0      -6.855  -1.634 124.987  0.00  0.00    +0.000 N 
ATOM     27  C   UNK A   0      -7.086  -1.832 123.517  0.00  0.00    +0.000 C 
ATOM     28  C   UNK A   0      -8.502  -2.431 123.202  0.00  0.00    +0.000 C 
ATOM     29  O   UNK A   0      -8.705  -3.686 123.858  0.00  0.00    +0.000 OA
ATOM     30  C   UNK A   0      -8.346  -3.709 125.252  0.00  0.00    +0.000 C 
ATOM     31  C   UNK A   0      -7.025  -2.955 125.625  0.00  0.00    +0.000 C 
ENDBRANCH  23  24
BRANCH  23  32
ATOM     32  C   UNK A   0      -7.110   1.856 124.315  0.00  0.00    +0.000 A 
ATOM     33  C   UNK A   0      -6.334   2.785 123.516  0.00  0.00    +0.000 A 
ATOM     34  C   UNK A   0      -6.941   3.538 122.501  0.00  0.00    +0.000 A 
ATOM     35  C   UNK A   0      -8.246   3.234 122.154  0.00  0.00    +0.000 A 
ATOM     36  F   UNK A   0      -8.885   3.971 121.239  0.00  0.00    +0.000 F 
ATOM     37  C   UNK A   0      -8.925   2.199 122.770  0.00  0.00    +0.000 A 
ATOM     38  C   UNK A   0      -8.371   1.550 123.855  0.00  0.00    +0.000 A 
ATOM     39  F   UNK A   0      -9.148   0.677 124.481  0.00  0.00    +0.000 F 
ENDBRANCH  23  32
ENDBRANCH   8  23
TORSDOF 6
ENDMDL
MODEL 2
REMARK VINA RESULT:      -9.8      5.230      9.098
REMARK  Name = CHEMBL211443
REMARK  8 active torsions:
REMARK  status: ('A' for Active; 'I' for Inactive)
REMARK    1  A    between atoms: CD1_1  and  CG_2
REMARK    2  A    between atoms: CG_2  and  CD2_3
REMARK    3  A    between atoms: CG_2  and  CB_4
REMARK    4  A    between atoms: CB_4  and  CA_5
REMARK    5  A    between atoms: C_9  and  C_10
REMARK    6  A    between atoms: N_21  and  C_22
REMARK    7  A    between atoms: C_22  and  C_23
REMARK    8  A    between atoms: C_22  and  C_31
REMARK                            x       y       z     vdW  Elec       q    Type
REMARK                         _______ _______ _______ _____ _____    ______ ____
ROOT
ATOM      1  CA  LEU A   2      -9.120   3.149 131.223  0.00  0.00    +0.000 C 
ATOM      2  C   LEU A   2      -9.110   3.765 129.756  0.00  0.00    +0.000 C 
ATOM      3  O   LEU A   2      -8.813   3.226 128.693  0.00  0.00    +0.000 OA
ATOM      4  N   UNK A   1      -9.595   5.031 129.727  0.00  0.00    +0.000 N 
ATOM      5  C   UNK A   1     -10.334   5.531 130.867  0.00  0.00    +0.000 C 
ATOM      6  C   UNK A   1      -9.481   5.369 132.095  0.00  0.00    +0.000 C 
ATOM      7  O   UNK A   1      -9.579   6.212 133.009  0.00  0.00    +0.000 OA
ATOM      8  N   LEU A   2      -8.662   4.263 132.094  0.00  0.00    +0.000 N 
ATOM      9  H   UNK A   1      -9.662   5.447 128.803  0.00  0.00    +0.000 HD
ENDROOT
BRANCH   5  10
ATOM     10  C   UNK A   1     -10.606   7.033 130.795  0.00  0.00    +0.000 C 
ATOM     11  C   UNK A   1     -12.097   7.282 130.640  0.00  0.00    +0.000 C 
ATOM     12  C   UNK A   1     -12.214   7.332 129.149  0.00  0.00    +0.000 A 
ATOM     13  C   UNK A   1     -13.341   7.068 128.399  0.00  0.00    +0.000 A 
ATOM     14  C   UNK A   1     -13.213   7.042 127.011  0.00  0.00    +0.000 A 
ATOM     15  C   UNK A   1     -11.969   7.256 126.395  0.00  0.00    +0.000 A 
ATOM     16  C   UNK A   1     -10.826   7.497 127.159  0.00  0.00    +0.000 A 
ATOM     17  C   UNK A   1     -10.970   7.544 128.534  0.00  0.00    +0.000 A 
ATOM     18  C   UNK A   1      -9.892   7.671 129.563  0.00  0.00    +0.000 C 
ENDBRANCH   5  10
BRANCH   1  19
ATOM     19  CB  LEU A   2      -8.303   1.891 131.341  0.00  0.00    +0.000 C 
BRANCH  19  21
ATOM     20  CD1 LEU A   2      -7.785  -0.348 129.993  0.00  0.00    +0.000 C 
ATOM     21  CG  LEU A   2      -8.610   0.386 131.058  0.00  0.00    +0.000 C 
ATOM     22  CD2 LEU A   2      -8.221  -0.507 132.204  0.00  0.00    +0.000 C 
ENDBRANCH  19  21
ENDBRANCH   1  19
BRANCH   8  23
ATOM     23  C   UNK A   0      -7.296   4.356 132.718  0.00  0.00    +0.000 C 
BRANCH  23  24
ATOM     24  C   UNK A   0      -6.784   3.779 134.352  0.00  0.00    +0.000 C 
ATOM     25  O   UNK A   0      -6.427   2.591 134.439  0.00  0.00    +0.000 OA
ATOM     26  N   UNK A   0      -6.401   4.556 135.534  0.00  0.00    +0.000 N 
ATOM     27  C   UNK A   0      -7.006   5.739 136.229  0.00  0.00    +0.000 C 
ATOM     28  C   UNK A   0      -5.937   6.812 136.640  0.00  0.00    +0.000 C 
ATOM     29  O   UNK A   0      -4.932   6.260 137.495  0.00  0.00    +0.000 OA
ATOM     30  C   UNK A   0      -4.378   5.008 137.052  0.00  0.00    +0.000 C 
ATOM     31  C   UNK A   0      -5.403   3.982 136.461  0.00  0.00    +0.000 C 
ENDBRANCH  23  24
BRANCH  23  32
ATOM     32  C   UNK A   0      -6.182   4.798 131.667  0.00  0.00    +0.000 A 
ATOM     33  C   UNK A   0      -5.224   3.870 131.096  0.00  0.00    +0.000 A 
ATOM     34  C   UNK A   0      -4.086   4.337 130.425  0.00  0.00    +0.000 A 
ATOM     35  C   UNK A   0      -3.997   5.692 130.154  0.00  0.00    +0.000 A 
ATOM     36  F   UNK A   0      -2.899   6.191 129.578  0.00  0.00    +0.000 F 
ATOM     37  C   UNK A   0      -5.015   6.559 130.510  0.00  0.00    +0.000 A 
ATOM     38  C   UNK A   0      -6.068   6.115 131.284  0.00  0.00    +0.000 A 
ATOM     39  F   UNK A   0      -6.920   7.039 131.708  0.00  0.00    +0.000 F 
ENDBRANCH  23  32
ENDBRANCH   8  23
TORSDOF 6
ENDMDL
MODEL 3
REMARK VINA RESULT:      -9.8      4.844      7.327
REMARK  Name = CHEMBL211443
REMARK  8 active torsions:
REMARK  status: ('A' for Active; 'I' for Inactive)
REMARK    1  A    between atoms: CD1_1  and  CG_2
REMARK    2  A    between atoms: CG_2  and  CD2_3
REMARK    3  A    between atoms: CG_2  and  CB_4
REMARK    4  A    between atoms: CB_4  and  CA_5
REMARK    5  A    between atoms: C_9  and  C_10
REMARK    6  A    between atoms: N_21  and  C_22
REMARK    7  A    between atoms: C_22  and  C_23
REMARK    8  A    between atoms: C_22  and  C_31
REMARK                            x       y       z     vdW  Elec       q    Type
REMARK                         _______ _______ _______ _____ _____    ______ ____
ROOT
ATOM      1  CA  LEU A   2      -8.476   2.503 130.071  0.00  0.00    +0.000 C 
ATOM      2  C   LEU A   2      -8.432   3.684 129.004  0.00  0.00    +0.000 C 
ATOM      3  O   LEU A   2      -8.149   3.636 127.810  0.00  0.00    +0.000 OA
ATOM      4  N   UNK A   1      -8.867   4.859 129.521  0.00  0.00    +0.000 N 
ATOM      5  C   UNK A   1      -9.594   4.856 130.772  0.00  0.00    +0.000 C 
ATOM      6  C   UNK A   1      -8.757   4.155 131.806  0.00  0.00    +0.000 C 
ATOM      7  O   UNK A   1      -8.827   4.533 132.993  0.00  0.00    +0.000 OA
ATOM      8  N   LEU A   2      -7.981   3.124 131.327  0.00  0.00    +0.000 N 
ATOM      9  H   UNK A   1      -8.911   5.630 128.861  0.00  0.00    +0.000 HD
ENDROOT
BRANCH   5  10
ATOM     10  C   UNK A   1      -9.806   6.256 131.348  0.00  0.00    +0.000 C 
ATOM     11  C   UNK A   1     -11.291   6.515 131.542  0.00  0.00    +0.000 C 
ATOM     12  C   UNK A   1     -11.632   7.155 130.233  0.00  0.00    +0.000 A 
ATOM     13  C   UNK A   1     -12.871   7.190 129.627  0.00  0.00    +0.000 A 
ATOM     14  C   UNK A   1     -12.957   7.723 128.343  0.00  0.00    +0.000 A 
ATOM     15  C   UNK A   1     -11.814   8.191 127.674  0.00  0.00    +0.000 A 
ATOM     16  C   UNK A   1     -10.558   8.130 128.281  0.00  0.00    +0.000 A 
ATOM     17  C   UNK A   1     -10.488   7.620 129.565  0.00  0.00    +0.000 A 
ATOM     18  C   UNK A   1      -9.261   7.347 130.375  0.00  0.00    +0.000 C 
ENDBRANCH   5  10
BRANCH   1  19
ATOM     19  CB  LEU A   2      -7.710   1.284 129.635  0.00  0.00    +0.000 C 
BRANCH  19  21
ATOM     20  CD1 LEU A   2      -8.533  -0.627 131.300  0.00  0.00    +0.000 C 
ATOM     21  CG  LEU A   2      -7.526  -0.140 130.251  0.00  0.00    +0.000 C 
ATOM     22  CD2 LEU A   2      -7.788  -1.236 129.256  0.00  0.00    +0.000 C 
ENDBRANCH  19  21
ENDBRANCH   1  19
BRANCH   8  23
ATOM     23  C   UNK A   0      -6.617   2.890 131.918  0.00  0.00    +0.000 C 
BRANCH  23  24
ATOM     24  C   UNK A   0      -6.119   1.594 133.073  0.00  0.00    +0.000 C 
ATOM     25  O   UNK A   0      -6.786   1.488 134.117  0.00  0.00    +0.000 OA
ATOM     26  N   UNK A   0      -5.267   0.424 132.845  0.00  0.00    +0.000 N 
ATOM     27  C   UNK A   0      -3.935   0.233 132.181  0.00  0.00    +0.000 C 
ATOM     28  C   UNK A   0      -3.894  -1.036 131.258  0.00  0.00    +0.000 C 
ATOM     29  O   UNK A   0      -4.205  -2.228 131.982  0.00  0.00    +0.000 OA
ATOM     30  C   UNK A   0      -5.369  -2.143 132.824  0.00  0.00    +0.000 C 
ATOM     31  C   UNK A   0      -5.534  -0.805 133.621  0.00  0.00    +0.000 C 
ENDBRANCH  23  24
BRANCH  23  32
ATOM     32  C   UNK A   0      -5.494   3.770 131.207  0.00  0.00    +0.000 A 
ATOM     33  C   UNK A   0      -4.711   3.292 130.084  0.00  0.00    +0.000 A 
ATOM     34  C   UNK A   0      -3.544   3.960 129.688  0.00  0.00    +0.000 A 
ATOM     35  C   UNK A   0      -3.264   5.186 130.267  0.00  0.00    +0.000 A 
ATOM     36  F   UNK A   0      -2.129   5.826 129.969  0.00  0.00    +0.000 F 
ATOM     37  C   UNK A   0      -4.126   5.752 131.190  0.00  0.00    +0.000 A 
ATOM     38  C   UNK A   0      -5.200   5.032 131.671  0.00  0.00    +0.000 A 
ATOM     39  F   UNK A   0      -5.886   5.587 132.662  0.00  0.00    +0.000 F 
ENDBRANCH  23  32
ENDBRANCH   8  23
TORSDOF 6
ENDMDL
MODEL 4
REMARK VINA RESULT:      -9.7      2.899      8.037
REMARK  Name = CHEMBL211443
REMARK  8 active torsions:
REMARK  status: ('A' for Active; 'I' for Inactive)
REMARK    1  A    between atoms: CD1_1  and  CG_2
REMARK    2  A    between atoms: CG_2  and  CD2_3
REMARK    3  A    between atoms: CG_2  and  CB_4
REMARK    4  A    between atoms: CB_4  and  CA_5
REMARK    5  A    between atoms: C_9  and  C_10
REMARK    6  A    between atoms: N_21  and  C_22
REMARK    7  A    between atoms: C_22  and  C_23
REMARK    8  A    between atoms: C_22  and  C_31
REMARK                            x       y       z     vdW  Elec       q    Type
REMARK                         _______ _______ _______ _____ _____    ______ ____
ROOT
ATOM      1  CA  LEU A   2      -8.308   1.585 128.877  0.00  0.00    +0.000 C 
ATOM      2  C   LEU A   2      -7.112   0.578 128.582  0.00  0.00    +0.000 C 
ATOM      3  O   LEU A   2      -6.433  -0.070 129.375  0.00  0.00    +0.000 OA
ATOM      4  N   UNK A   1      -6.925   0.377 127.254  0.00  0.00    +0.000 N 
ATOM      5  C   UNK A   1      -7.958   0.783 126.325  0.00  0.00    +0.000 C 
ATOM      6  C   UNK A   1      -8.258   2.239 126.555  0.00  0.00    +0.000 C 
ATOM      7  O   UNK A   1      -8.592   2.944 125.582  0.00  0.00    +0.000 OA
ATOM      8  N   LEU A   2      -8.145   2.658 127.861  0.00  0.00    +0.000 N 
ATOM      9  H   UNK A   1      -6.209  -0.303 127.017  0.00  0.00    +0.000 HD
ENDROOT
BRANCH   5  10
ATOM     10  C   UNK A   1      -7.513   0.719 124.865  0.00  0.00    +0.000 C 
ATOM     11  C   UNK A   1      -8.639   0.168 124.005  0.00  0.00    +0.000 C 
ATOM     12  C   UNK A   1      -8.310  -1.291 124.023  0.00  0.00    +0.000 A 
ATOM     13  C   UNK A   1      -9.185  -2.339 123.827  0.00  0.00    +0.000 A 
ATOM     14  C   UNK A   1      -8.708  -3.635 124.012  0.00  0.00    +0.000 A 
ATOM     15  C   UNK A   1      -7.381  -3.868 124.408  0.00  0.00    +0.000 A 
ATOM     16  C   UNK A   1      -6.505  -2.805 124.630  0.00  0.00    +0.000 A 
ATOM     17  C   UNK A   1      -6.983  -1.523 124.421  0.00  0.00    +0.000 A 
ATOM     18  C   UNK A   1      -6.286  -0.230 124.697  0.00  0.00    +0.000 C 
ENDBRANCH   5  10
BRANCH   1  19
ATOM     19  CB  LEU A   2      -8.332   2.073 130.300  0.00  0.00    +0.000 C 
BRANCH  19  21
ATOM     20  CD1 LEU A   2     -10.795   3.053 130.573  0.00  0.00    +0.000 C 
ATOM     21  CG  LEU A   2      -9.458   2.654 131.213  0.00  0.00    +0.000 C 
ATOM     22  CD2 LEU A   2     -10.029   1.624 132.148  0.00  0.00    +0.000 C 
ENDBRANCH  19  21
ENDBRANCH   1  19
BRANCH   8  23
ATOM     23  C   UNK A   0      -7.618   4.038 128.150  0.00  0.00    +0.000 C 
BRANCH  23  24
ATOM     24  C   UNK A   0      -8.507   5.431 128.881  0.00  0.00    +0.000 C 
ATOM     25  O   UNK A   0      -9.469   5.881 128.235  0.00  0.00    +0.000 OA
ATOM     26  N   UNK A   0      -8.498   5.917 130.263  0.00  0.00    +0.000 N 
ATOM     27  C   UNK A   0      -7.402   6.203 131.247  0.00  0.00    +0.000 C 
ATOM     28  C   UNK A   0      -7.728   5.670 132.688  0.00  0.00    +0.000 C 
ATOM     29  O   UNK A   0      -8.941   6.228 133.198  0.00  0.00    +0.000 OA
ATOM     30  C   UNK A   0     -10.055   6.198 132.287  0.00  0.00    +0.000 C 
ATOM     31  C   UNK A   0      -9.724   6.546 130.797  0.00  0.00    +0.000 C 
ENDBRANCH  23  24
BRANCH  23  32
ATOM     32  C   UNK A   0      -6.034   4.122 127.997  0.00  0.00    +0.000 A 
ATOM     33  C   UNK A   0      -5.379   4.471 126.751  0.00  0.00    +0.000 A 
ATOM     34  C   UNK A   0      -4.008   4.240 126.573  0.00  0.00    +0.000 A 
ATOM     35  C   UNK A   0      -3.262   3.854 127.674  0.00  0.00    +0.000 A 
ATOM     36  F   UNK A   0      -1.965   3.558 127.536  0.00  0.00    +0.000 F 
ATOM     37  C   UNK A   0      -3.846   3.727 128.922  0.00  0.00    +0.000 A 
ATOM     38  C   UNK A   0      -5.215   3.826 129.063  0.00  0.00    +0.000 A 
ATOM     39  F   UNK A   0      -5.706   3.541 130.262  0.00  0.00    +0.000 F 
ENDBRANCH  23  32
ENDBRANCH   8  23
TORSDOF 6
ENDMDL
MODEL 5
REMARK VINA RESULT:      -9.6      4.216      6.846
REMARK  Name = CHEMBL211443
REMARK  8 active torsions:
REMARK  status: ('A' for Active; 'I' for Inactive)
REMARK    1  A    between atoms: CD1_1  and  CG_2
REMARK    2  A    between atoms: CG_2  and  CD2_3
REMARK    3  A    between atoms: CG_2  and  CB_4
REMARK    4  A    between atoms: CB_4  and  CA_5
REMARK    5  A    between atoms: C_9  and  C_10
REMARK    6  A    between atoms: N_21  and  C_22
REMARK    7  A    between atoms: C_22  and  C_23
REMARK    8  A    between atoms: C_22  and  C_31
REMARK                            x       y       z     vdW  Elec       q    Type
REMARK                         _______ _______ _______ _____ _____    ______ ____
ROOT
ATOM      1  CA  LEU A   2      -8.574   2.417 129.472  0.00  0.00    +0.000 C 
ATOM      2  C   LEU A   2      -8.342   3.749 128.632  0.00  0.00    +0.000 C 
ATOM      3  O   LEU A   2      -7.924   3.876 127.484  0.00  0.00    +0.000 OA
ATOM      4  N   UNK A   1      -8.770   4.854 129.292  0.00  0.00    +0.000 N 
ATOM      5  C   UNK A   1      -9.636   4.700 130.441  0.00  0.00    +0.000 C 
ATOM      6  C   UNK A   1      -8.965   3.781 131.424  0.00  0.00    +0.000 C 
ATOM      7  O   UNK A   1      -9.153   3.965 132.643  0.00  0.00    +0.000 OA
ATOM      8  N   LEU A   2      -8.196   2.788 130.861  0.00  0.00    +0.000 N 
ATOM      9  H   UNK A   1      -8.695   5.723 128.772  0.00  0.00    +0.000 HD
ENDROOT
BRANCH   5  10
ATOM     10  C   UNK A   1      -9.839   5.999 131.220  0.00  0.00    +0.000 C 
ATOM     11  C   UNK A   1     -11.321   6.233 131.460  0.00  0.00    +0.000 C 
ATOM     12  C   UNK A   1     -11.666   7.062 130.263  0.00  0.00    +0.000 A 
ATOM     13  C   UNK A   1     -12.908   7.192 129.677  0.00  0.00    +0.000 A 
ATOM     14  C   UNK A   1     -12.999   7.912 128.487  0.00  0.00    +0.000 A 
ATOM     15  C   UNK A   1     -11.857   8.469 127.889  0.00  0.00    +0.000 A 
ATOM     16  C   UNK A   1     -10.598   8.313 128.471  0.00  0.00    +0.000 A 
ATOM     17  C   UNK A   1     -10.523   7.617 129.665  0.00  0.00    +0.000 A 
ATOM     18  C   UNK A   1      -9.293   7.221 130.418  0.00  0.00    +0.000 C 
ENDBRANCH   5  10
BRANCH   1  19
ATOM     19  CB  LEU A   2      -7.829   1.233 128.920  0.00  0.00    +0.000 C 
BRANCH  19  21
ATOM     20  CD1 LEU A   2      -9.007   0.812 126.567  0.00  0.00    +0.000 C 
ATOM     21  CG  LEU A   2      -8.020   0.349 127.646  0.00  0.00    +0.000 C 
ATOM     22  CD2 LEU A   2      -6.805   0.345 126.761  0.00  0.00    +0.000 C 
ENDBRANCH  19  21
ENDBRANCH   1  19
BRANCH   8  23
ATOM     23  C   UNK A   0      -6.924   2.363 131.545  0.00  0.00    +0.000 C 
BRANCH  23  24
ATOM     24  C   UNK A   0      -6.610   0.826 132.440  0.00  0.00    +0.000 C 
ATOM     25  O   UNK A   0      -6.928   0.803 133.642  0.00  0.00    +0.000 OA
ATOM     26  N   UNK A   0      -6.347  -0.518 131.917  0.00  0.00    +0.000 N 
ATOM     27  C   UNK A   0      -5.435  -1.047 130.850  0.00  0.00    +0.000 C 
ATOM     28  C   UNK A   0      -6.132  -2.113 129.932  0.00  0.00    +0.000 C 
ATOM     29  O   UNK A   0      -6.623  -3.223 130.688  0.00  0.00    +0.000 OA
ATOM     30  C   UNK A   0      -7.372  -2.873 131.867  0.00  0.00    +0.000 C 
ATOM     31  C   UNK A   0      -6.798  -1.683 132.707  0.00  0.00    +0.000 C 
ENDBRANCH  23  24
BRANCH  23  32
ATOM     32  C   UNK A   0      -5.698   3.314 131.182  0.00  0.00    +0.000 A 
ATOM     33  C   UNK A   0      -4.864   3.114 130.011  0.00  0.00    +0.000 A 
ATOM     34  C   UNK A   0      -3.631   3.769 129.890  0.00  0.00    +0.000 A 
ATOM     35  C   UNK A   0      -3.319   4.752 130.814  0.00  0.00    +0.000 A 
ATOM     36  F   UNK A   0      -2.126   5.354 130.776  0.00  0.00    +0.000 F 
ATOM     37  C   UNK A   0      -4.210   5.098 131.814  0.00  0.00    +0.000 A 
ATOM     38  C   UNK A   0      -5.361   4.362 132.008  0.00  0.00    +0.000 A 
ATOM     39  F   UNK A   0      -6.082   4.664 133.079  0.00  0.00    +0.000 F 
ENDBRANCH  23  32
ENDBRANCH   8  23
TORSDOF 6
ENDMDL
MODEL 6
REMARK VINA RESULT:      -9.3      3.805      7.480
REMARK  Name = CHEMBL211443
REMARK  8 active torsions:
REMARK  status: ('A' for Active; 'I' for Inactive)
REMARK    1  A    between atoms: CD1_1  and  CG_2
REMARK    2  A    between atoms: CG_2  and  CD2_3
REMARK    3  A    between atoms: CG_2  and  CB_4
REMARK    4  A    between atoms: CB_4  and  CA_5
REMARK    5  A    between atoms: C_9  and  C_10
REMARK    6  A    between atoms: N_21  and  C_22
REMARK    7  A    between atoms: C_22  and  C_23
REMARK    8  A    between atoms: C_22  and  C_31
REMARK                            x       y       z     vdW  Elec       q    Type
REMARK                         _______ _______ _______ _____ _____    ______ ____
ROOT
ATOM      1  CA  LEU A   2      -6.730   2.318 131.204  0.00  0.00    +0.000 C 
ATOM      2  C   LEU A   2      -5.435   1.428 130.950  0.00  0.00    +0.000 C 
ATOM      3  O   LEU A   2      -4.342   1.478 131.508  0.00  0.00    +0.000 OA
ATOM      4  N   UNK A   1      -5.660   0.438 130.051  0.00  0.00    +0.000 N 
ATOM      5  C   UNK A   1      -7.022   0.096 129.702  0.00  0.00    +0.000 C 
ATOM      6  C   UNK A   1      -7.721   1.342 129.232  0.00  0.00    +0.000 C 
ATOM      7  O   UNK A   1      -8.597   1.243 128.350  0.00  0.00    +0.000 OA
ATOM      8  N   LEU A   2      -7.320   2.504 129.852  0.00  0.00    +0.000 N 
ATOM      9  H   UNK A   1      -4.878  -0.192 129.898  0.00  0.00    +0.000 HD
ENDROOT
BRANCH   5  10
ATOM     10  C   UNK A   1      -7.117  -0.858 128.513  0.00  0.00    +0.000 C 
ATOM     11  C   UNK A   1      -7.758  -2.165 128.948  0.00  0.00    +0.000 C 
ATOM     12  C   UNK A   1      -6.544  -2.961 129.309  0.00  0.00    +0.000 A 
ATOM     13  C   UNK A   1      -6.482  -4.024 130.186  0.00  0.00    +0.000 A 
ATOM     14  C   UNK A   1      -5.228  -4.552 130.489  0.00  0.00    +0.000 A 
ATOM     15  C   UNK A   1      -4.059  -4.004 129.934  0.00  0.00    +0.000 A 
ATOM     16  C   UNK A   1      -4.124  -2.913 129.067  0.00  0.00    +0.000 A 
ATOM     17  C   UNK A   1      -5.376  -2.412 128.755  0.00  0.00    +0.000 A 
ATOM     18  C   UNK A   1      -5.700  -1.193 127.952  0.00  0.00    +0.000 C 
ENDBRANCH   5  10
BRANCH   1  19
ATOM     19  CB  LEU A   2      -6.433   3.599 131.935  0.00  0.00    +0.000 C 
BRANCH  19  21
ATOM     20  CD1 LEU A   2      -5.896   5.392 133.831  0.00  0.00    +0.000 C 
ATOM     21  CG  LEU A   2      -6.077   3.925 133.420  0.00  0.00    +0.000 C 
ATOM     22  CD2 LEU A   2      -7.213   3.634 134.361  0.00  0.00    +0.000 C 
ENDBRANCH  19  21
ENDBRANCH   1  19
BRANCH   8  23
ATOM     23  C   UNK A   0      -7.252   3.779 129.056  0.00  0.00    +0.000 C 
BRANCH  23  24
ATOM     24  C   UNK A   0      -8.438   5.142 129.048  0.00  0.00    +0.000 C 
ATOM     25  O   UNK A   0      -9.023   5.368 127.974  0.00  0.00    +0.000 OA
ATOM     26  N   UNK A   0      -9.079   5.823 130.176  0.00  0.00    +0.000 N 
ATOM     27  C   UNK A   0      -8.563   6.386 131.467  0.00  0.00    +0.000 C 
ATOM     28  C   UNK A   0      -9.481   6.034 132.691  0.00  0.00    +0.000 C 
ATOM     29  O   UNK A   0     -10.818   6.505 132.504  0.00  0.00    +0.000 OA
ATOM     30  C   UNK A   0     -11.396   6.202 131.221  0.00  0.00    +0.000 C 
ATOM     31  C   UNK A   0     -10.441   6.366 129.991  0.00  0.00    +0.000 C 
ENDBRANCH  23  24
BRANCH  23  32
ATOM     32  C   UNK A   0      -5.832   3.983 128.363  0.00  0.00    +0.000 A 
ATOM     33  C   UNK A   0      -5.383   3.188 127.235  0.00  0.00    +0.000 A 
ATOM     34  C   UNK A   0      -4.035   3.183 126.854  0.00  0.00    +0.000 A 
ATOM     35  C   UNK A   0      -3.183   4.096 127.451  0.00  0.00    +0.000 A 
ATOM     36  F   UNK A   0      -1.876   4.082 127.168  0.00  0.00    +0.000 F 
ATOM     37  C   UNK A   0      -3.653   5.008 128.380  0.00  0.00    +0.000 A 
ATOM     38  C   UNK A   0      -4.949   4.921 128.847  0.00  0.00    +0.000 A 
ATOM     39  F   UNK A   0      -5.273   5.734 129.843  0.00  0.00    +0.000 F 
ENDBRANCH  23  32
ENDBRANCH   8  23
TORSDOF 6
ENDMDL
MODEL 7
REMARK VINA RESULT:      -9.2      4.566      6.682
REMARK  Name = CHEMBL211443
REMARK  8 active torsions:
REMARK  status: ('A' for Active; 'I' for Inactive)
REMARK    1  A    between atoms: CD1_1  and  CG_2
REMARK    2  A    between atoms: CG_2  and  CD2_3
REMARK    3  A    between atoms: CG_2  and  CB_4
REMARK    4  A    between atoms: CB_4  and  CA_5
REMARK    5  A    between atoms: C_9  and  C_10
REMARK    6  A    between atoms: N_21  and  C_22
REMARK    7  A    between atoms: C_22  and  C_23
REMARK    8  A    between atoms: C_22  and  C_31
REMARK                            x       y       z     vdW  Elec       q    Type
REMARK                         _______ _______ _______ _____ _____    ______ ____
ROOT
ATOM      1  CA  LEU A   2      -6.740   6.213 130.959  0.00  0.00    +0.000 C 
ATOM      2  C   LEU A   2      -7.870   6.051 132.069  0.00  0.00    +0.000 C 
ATOM      3  O   LEU A   2      -7.776   6.160 133.289  0.00  0.00    +0.000 OA
ATOM      4  N   UNK A   1      -9.099   5.862 131.528  0.00  0.00    +0.000 N 
ATOM      5  C   UNK A   1      -9.305   6.149 130.124  0.00  0.00    +0.000 C 
ATOM      6  C   UNK A   1      -8.300   5.364 129.326  0.00  0.00    +0.000 C 
ATOM      7  O   UNK A   1      -8.624   4.950 128.195  0.00  0.00    +0.000 OA
ATOM      8  N   LEU A   2      -7.080   5.189 129.937  0.00  0.00    +0.000 N 
ATOM      9  H   UNK A   1      -9.861   5.810 132.196  0.00  0.00    +0.000 HD
ENDROOT
BRANCH   5  10
ATOM     10  C   UNK A   1     -10.657   5.664 129.604  0.00  0.00    +0.000 C 
ATOM     11  C   UNK A   1     -11.109   6.539 128.446  0.00  0.00    +0.000 C 
ATOM     12  C   UNK A   1     -11.916   7.566 129.175  0.00  0.00    +0.000 A 
ATOM     13  C   UNK A   1     -12.190   8.852 128.759  0.00  0.00    +0.000 A 
ATOM     14  C   UNK A   1     -12.853   9.701 129.644  0.00  0.00    +0.000 A 
ATOM     15  C   UNK A   1     -13.213   9.267 130.930  0.00  0.00    +0.000 A 
ATOM     16  C   UNK A   1     -12.912   7.973 131.357  0.00  0.00    +0.000 A 
ATOM     17  C   UNK A   1     -12.274   7.132 130.462  0.00  0.00    +0.000 A 
ATOM     18  C   UNK A   1     -11.748   5.756 130.716  0.00  0.00    +0.000 C 
ENDBRANCH   5  10
BRANCH   1  19
ATOM     19  CB  LEU A   2      -5.346   6.101 131.514  0.00  0.00    +0.000 C 
BRANCH  19  21
ATOM     20  CD1 LEU A   2      -2.690   6.315 131.514  0.00  0.00    +0.000 C 
ATOM     21  CG  LEU A   2      -4.065   6.982 131.371  0.00  0.00    +0.000 C 
ATOM     22  CD2 LEU A   2      -3.858   7.475 129.966  0.00  0.00    +0.000 C 
ENDBRANCH  19  21
ENDBRANCH   1  19
BRANCH   8  23
ATOM     23  C   UNK A   0      -6.337   3.895 129.743  0.00  0.00    +0.000 C 
BRANCH  23  24
ATOM     24  C   UNK A   0      -6.811   2.250 130.320  0.00  0.00    +0.000 C 
ATOM     25  O   UNK A   0      -6.784   1.333 129.480  0.00  0.00    +0.000 OA
ATOM     26  N   UNK A   0      -6.906   1.736 131.689  0.00  0.00    +0.000 N 
ATOM     27  C   UNK A   0      -7.525   2.269 132.948  0.00  0.00    +0.000 C 
ATOM     28  C   UNK A   0      -6.603   2.079 134.204  0.00  0.00    +0.000 C 
ATOM     29  O   UNK A   0      -6.273   0.705 134.417  0.00  0.00    +0.000 OA
ATOM     30  C   UNK A   0      -5.833  -0.005 133.244  0.00  0.00    +0.000 C 
ATOM     31  C   UNK A   0      -6.622   0.306 131.928  0.00  0.00    +0.000 C 
ENDBRANCH  23  24
BRANCH  23  32
ATOM     32  C   UNK A   0      -5.144   4.035 128.694  0.00  0.00    +0.000 A 
ATOM     33  C   UNK A   0      -5.350   4.434 127.315  0.00  0.00    +0.000 A 
ATOM     34  C   UNK A   0      -4.341   4.253 126.359  0.00  0.00    +0.000 A 
ATOM     35  C   UNK A   0      -3.086   3.867 126.798  0.00  0.00    +0.000 A 
ATOM     36  F   UNK A   0      -2.114   3.616 125.915  0.00  0.00    +0.000 F 
ATOM     37  C   UNK A   0      -2.825   3.691 128.145  0.00  0.00    +0.000 A 
ATOM     38  C   UNK A   0      -3.852   3.742 129.066  0.00  0.00    +0.000 A 
ATOM     39  F   UNK A   0      -3.544   3.413 130.313  0.00  0.00    +0.000 F 
ENDBRANCH  23  32
ENDBRANCH   8  23
TORSDOF 6
ENDMDL
MODEL 8
REMARK VINA RESULT:      -9.2      2.529      4.514
REMARK  Name = CHEMBL211443
REMARK  8 active torsions:
REMARK  status: ('A' for Active; 'I' for Inactive)
REMARK    1  A    between atoms: CD1_1  and  CG_2
REMARK    2  A    between atoms: CG_2  and  CD2_3
REMARK    3  A    between atoms: CG_2  and  CB_4
REMARK    4  A    between atoms: CB_4  and  CA_5
REMARK    5  A    between atoms: C_9  and  C_10
REMARK    6  A    between atoms: N_21  and  C_22
REMARK    7  A    between atoms: C_22  and  C_23
REMARK    8  A    between atoms: C_22  and  C_31
REMARK                            x       y       z     vdW  Elec       q    Type
REMARK                         _______ _______ _______ _____ _____    ______ ____
ROOT
ATOM      1  CA  LEU A   2      -5.720   2.365 128.458  0.00  0.00    +0.000 C 
ATOM      2  C   LEU A   2      -5.577   2.141 130.028  0.00  0.00    +0.000 C 
ATOM      3  O   LEU A   2      -4.559   1.970 130.694  0.00  0.00    +0.000 OA
ATOM      4  N   UNK A   1      -6.763   2.258 130.674  0.00  0.00    +0.000 N 
ATOM      5  C   UNK A   1      -7.884   2.866 129.990  0.00  0.00    +0.000 C 
ATOM      6  C   UNK A   1      -8.109   2.129 128.698  0.00  0.00    +0.000 C 
ATOM      7  O   UNK A   1      -9.274   2.019 128.264  0.00  0.00    +0.000 OA
ATOM      8  N   LEU A   2      -6.969   1.646 128.096  0.00  0.00    +0.000 N 
ATOM      9  H   UNK A   1      -6.713   2.179 131.685  0.00  0.00    +0.000 HD
ENDROOT
BRANCH   5  10
ATOM     10  C   UNK A   1      -9.204   2.712 130.744  0.00  0.00    +0.000 C 
ATOM     11  C   UNK A   1      -9.846   4.075 130.944  0.00  0.00    +0.000 C 
ATOM     12  C   UNK A   1      -9.289   4.448 132.281  0.00  0.00    +0.000 A 
ATOM     13  C   UNK A   1      -9.123   5.723 132.782  0.00  0.00    +0.000 A 
ATOM     14  C   UNK A   1      -8.463   5.868 134.001  0.00  0.00    +0.000 A 
ATOM     15  C   UNK A   1      -7.961   4.751 134.689  0.00  0.00    +0.000 A 
ATOM     16  C   UNK A   1      -8.107   3.466 134.167  0.00  0.00    +0.000 A 
ATOM     17  C   UNK A   1      -8.785   3.331 132.967  0.00  0.00    +0.000 A 
ATOM     18  C   UNK A   1      -8.970   2.090 132.155  0.00  0.00    +0.000 C 
ENDBRANCH   5  10
BRANCH   1  19
ATOM     19  CB  LEU A   2      -4.505   1.930 127.685  0.00  0.00    +0.000 C 
BRANCH  19  21
ATOM     20  CD1 LEU A   2      -4.135   3.939 125.974  0.00  0.00    +0.000 C 
ATOM     21  CG  LEU A   2      -3.675   2.588 126.538  0.00  0.00    +0.000 C 
ATOM     22  CD2 LEU A   2      -2.324   3.059 127.001  0.00  0.00    +0.000 C 
ENDBRANCH  19  21
ENDBRANCH   1  19
BRANCH   8  23
ATOM     23  C   UNK A   0      -7.019   0.327 127.374  0.00  0.00    +0.000 C 
BRANCH  23  24
ATOM     24  C   UNK A   0      -7.379   0.035 125.628  0.00  0.00    +0.000 C 
ATOM     25  O   UNK A   0      -7.782  -1.101 125.322  0.00  0.00    +0.000 OA
ATOM     26  N   UNK A   0      -7.595   1.002 124.549  0.00  0.00    +0.000 N 
ATOM     27  C   UNK A   0      -6.861   2.235 124.109  0.00  0.00    +0.000 C 
ATOM     28  C   UNK A   0      -7.826   3.424 123.766  0.00  0.00    +0.000 C 
ATOM     29  O   UNK A   0      -8.758   3.072 122.741  0.00  0.00    +0.000 OA
ATOM     30  C   UNK A   0      -9.418   1.806 122.927  0.00  0.00    +0.000 C 
ATOM     31  C   UNK A   0      -8.513   0.640 123.449  0.00  0.00    +0.000 C 
ENDBRANCH  23  24
BRANCH  23  32
ATOM     32  C   UNK A   0      -6.437  -0.866 128.256  0.00  0.00    +0.000 A 
ATOM     33  C   UNK A   0      -5.195  -1.546 127.942  0.00  0.00    +0.000 A 
ATOM     34  C   UNK A   0      -4.874  -2.769 128.548  0.00  0.00    +0.000 A 
ATOM     35  C   UNK A   0      -5.673  -3.213 129.587  0.00  0.00    +0.000 A 
ATOM     36  F   UNK A   0      -5.445  -4.404 130.148  0.00  0.00    +0.000 F 
ATOM     37  C   UNK A   0      -6.743  -2.458 130.037  0.00  0.00    +0.000 A 
ATOM     38  C   UNK A   0      -7.131  -1.324 129.353  0.00  0.00    +0.000 A 
ATOM     39  F   UNK A   0      -8.254  -0.746 129.758  0.00  0.00    +0.000 F 
ENDBRANCH  23  32
ENDBRANCH   8  23
TORSDOF 6
ENDMDL
MODEL 9
REMARK VINA RESULT:      -9.1      3.179      8.154
REMARK  Name = CHEMBL211443
REMARK  8 active torsions:
REMARK  status: ('A' for Active; 'I' for Inactive)
REMARK    1  A    between atoms: CD1_1  and  CG_2
REMARK    2  A    between atoms: CG_2  and  CD2_3
REMARK    3  A    between atoms: CG_2  and  CB_4
REMARK    4  A    between atoms: CB_4  and  CA_5
REMARK    5  A    between atoms: C_9  and  C_10
REMARK    6  A    between atoms: N_21  and  C_22
REMARK    7  A    between atoms: C_22  and  C_23
REMARK    8  A    between atoms: C_22  and  C_31
REMARK                            x       y       z     vdW  Elec       q    Type
REMARK                         _______ _______ _______ _____ _____    ______ ____
ROOT
ATOM      1  CA  LEU A   2      -5.457   2.864 127.801  0.00  0.00    +0.000 C 
ATOM      2  C   LEU A   2      -6.156   2.921 126.372  0.00  0.00    +0.000 C 
ATOM      3  O   LEU A   2      -5.899   3.646 125.414  0.00  0.00    +0.000 OA
ATOM      4  N   UNK A   1      -7.092   1.951 126.219  0.00  0.00    +0.000 N 
ATOM      5  C   UNK A   1      -7.118   0.841 127.147  0.00  0.00    +0.000 C 
ATOM      6  C   UNK A   1      -7.218   1.391 128.543  0.00  0.00    +0.000 C 
ATOM      7  O   UNK A   1      -7.848   0.740 129.401  0.00  0.00    +0.000 OA
ATOM      8  N   LEU A   2      -6.571   2.589 128.745  0.00  0.00    +0.000 N 
ATOM      9  H   UNK A   1      -7.525   1.912 125.301  0.00  0.00    +0.000 HD
ENDROOT
BRANCH   5  10
ATOM     10  C   UNK A   1      -8.361  -0.036 127.000  0.00  0.00    +0.000 C 
ATOM     11  C   UNK A   1      -7.968  -1.503 127.064  0.00  0.00    +0.000 C 
ATOM     12  C   UNK A   1      -7.762  -1.796 125.611  0.00  0.00    +0.000 A 
ATOM     13  C   UNK A   1      -6.970  -2.788 125.072  0.00  0.00    +0.000 A 
ATOM     14  C   UNK A   1      -6.806  -2.816 123.688  0.00  0.00    +0.000 A 
ATOM     15  C   UNK A   1      -7.413  -1.851 122.867  0.00  0.00    +0.000 A 
ATOM     16  C   UNK A   1      -8.193  -0.834 123.419  0.00  0.00    +0.000 A 
ATOM     17  C   UNK A   1      -8.368  -0.829 124.792  0.00  0.00    +0.000 A 
ATOM     18  C   UNK A   1      -9.054   0.206 125.624  0.00  0.00    +0.000 C 
ENDBRANCH   5  10
BRANCH   1  19
ATOM     19  CB  LEU A   2      -4.661   4.100 128.119  0.00  0.00    +0.000 C 
BRANCH  19  21
ATOM     20  CD1 LEU A   2      -2.449   5.546 128.459  0.00  0.00    +0.000 C 
ATOM     21  CG  LEU A   2      -3.341   4.701 127.540  0.00  0.00    +0.000 C 
ATOM     22  CD2 LEU A   2      -2.311   3.648 127.241  0.00  0.00    +0.000 C 
ENDBRANCH  19  21
ENDBRANCH   1  19
BRANCH   8  23
ATOM     23  C   UNK A   0      -7.177   3.607 129.674  0.00  0.00    +0.000 C 
BRANCH  23  24
ATOM     24  C   UNK A   0      -8.368   4.903 129.269  0.00  0.00    +0.000 C 
ATOM     25  O   UNK A   0      -8.703   5.003 128.075  0.00  0.00    +0.000 OA
ATOM     26  N   UNK A   0      -9.264   5.652 130.155  0.00  0.00    +0.000 N 
ATOM     27  C   UNK A   0      -9.066   6.353 131.466  0.00  0.00    +0.000 C 
ATOM     28  C   UNK A   0     -10.225   6.069 132.486  0.00  0.00    +0.000 C 
ATOM     29  O   UNK A   0     -11.498   6.455 131.963  0.00  0.00    +0.000 OA
ATOM     30  C   UNK A   0     -11.765   6.009 130.620  0.00  0.00    +0.000 C 
ATOM     31  C   UNK A   0     -10.564   6.108 129.621  0.00  0.00    +0.000 C 
ENDBRANCH  23  24
BRANCH  23  32
ATOM     32  C   UNK A   0      -6.875   3.281 131.205  0.00  0.00    +0.000 A 
ATOM     33  C   UNK A   0      -5.554   3.400 131.791  0.00  0.00    +0.000 A 
ATOM     34  C   UNK A   0      -5.268   2.822 133.035  0.00  0.00    +0.000 A 
ATOM     35  C   UNK A   0      -6.319   2.306 133.774  0.00  0.00    +0.000 A 
ATOM     36  F   UNK A   0      -6.083   1.685 134.934  0.00  0.00    +0.000 F 
ATOM     37  C   UNK A   0      -7.620   2.382 133.310  0.00  0.00    +0.000 A 
ATOM     38  C   UNK A   0      -7.879   2.831 132.032  0.00  0.00    +0.000 A 
ATOM     39  F   UNK A   0      -9.134   2.729 131.613  0.00  0.00    +0.000 F 
ENDBRANCH  23  32
ENDBRANCH   8  23
TORSDOF 6
ENDMDL
