MODEL 1
REMARK VINA RESULT:      -8.0      0.000      0.000
REMARK  Name = CHEMBL467546
REMARK  10 active torsions:
REMARK  status: ('A' for Active; 'I' for Inactive)
REMARK    1  A    between atoms: C_1  and  C_2
REMARK    2  A    between atoms: C_2  and  S_3
REMARK    3  A    between atoms: S_3  and  C_4
REMARK    4  A    between atoms: C_7  and  C_8
REMARK    5  A    between atoms: C_11  and  C_12
REMARK    6  A    between atoms: C_15  and  C_16
REMARK    7  A    between atoms: N_17  and  C_18
REMARK    8  A    between atoms: C_21  and  O_22
REMARK    9  A    between atoms: O_22  and  C_23
REMARK   10  A    between atoms: C_28  and  C_29
REMARK                            x       y       z     vdW  Elec       q    Type
REMARK                         _______ _______ _______ _____ _____    ______ ____
ROOT
ATOM      1  C   UNL     1      -7.430   3.006 126.277  0.00  0.00    +0.000 A 
ATOM      2  C   UNL     1      -8.135   1.942 126.843  0.00  0.00    +0.000 A 
ATOM      3  N   UNL     1      -8.356   1.798 128.182  0.00  0.00    +0.000 NA
ATOM      4  C   UNL     1      -7.849   2.777 128.974  0.00  0.00    +0.000 A 
ATOM      5  C   UNL     1      -7.140   3.836 128.421  0.00  0.00    +0.000 A 
ATOM      6  N   UNL     1      -6.898   3.964 127.080  0.00  0.00    +0.000 NA
ENDROOT
BRANCH   1  10
ATOM      7  C   UNL     1      -7.085   3.552 121.971  0.00  0.00    +0.000 A 
ATOM      8  C   UNL     1      -8.285   3.151 122.566  0.00  0.00    +0.000 A 
ATOM      9  C   UNL     1      -8.377   2.953 123.957  0.00  0.00    +0.000 A 
ATOM     10  C   UNL     1      -7.281   3.178 124.812  0.00  0.00    +0.000 A 
ATOM     11  C   UNL     1      -6.068   3.593 124.207  0.00  0.00    +0.000 A 
ATOM     12  C   UNL     1      -4.814   3.858 125.001  0.00  0.00    +0.000 C 
ATOM     13  C   UNL     1      -5.989   3.778 122.803  0.00  0.00    +0.000 A 
BRANCH   7  14
ATOM     14  S   UNL     1      -7.079   3.854 120.206  0.00  0.00    +0.000 S 
BRANCH  14  16
ATOM     15  C   UNL     1      -5.819   5.755 118.688  0.00  0.00    +0.000 C 
ATOM     16  C   UNL     1      -5.611   4.916 119.944  0.00  0.00    +0.000 C 
ENDBRANCH  14  16
ENDBRANCH   7  14
ENDBRANCH   1  10
BRANCH   4  17
ATOM     17  C   UNL     1      -7.988   2.587 130.419  0.00  0.00    +0.000 A 
ATOM     18  N   UNL     1      -7.447   1.641 131.172  0.00  0.00    +0.000 NA
ATOM     19  N   UNL     1      -7.811   1.860 132.489  0.00  0.00    +0.000 NA
ATOM     20  C   UNL     1      -8.584   2.929 132.530  0.00  0.00    +0.000 A 
ATOM     21  C   UNL     1      -9.333   3.471 133.698  0.00  0.00    +0.000 C 
ATOM     22  N   UNL     1      -8.709   3.423 131.250  0.00  0.00    +0.000 N 
BRANCH  22  23
ATOM     23  C   UNL     1      -9.491   4.518 130.875  0.00  0.00    +0.000 A 
ATOM     24  C   UNL     1      -9.006   5.810 131.001  0.00  0.00    +0.000 A 
ATOM     25  C   UNL     1      -9.852   6.855 130.656  0.00  0.00    +0.000 A 
ATOM     26  C   UNL     1     -11.138   6.566 130.202  0.00  0.00    +0.000 A 
ATOM     27  N   UNL     1     -11.597   5.304 130.057  0.00  0.00    +0.000 NA
ATOM     28  C   UNL     1     -10.770   4.299 130.399  0.00  0.00    +0.000 A 
BRANCH  26  29
ATOM     29  O   UNL     1     -12.070   7.504 129.862  0.00  0.00    +0.000 OA
ATOM     30  C   UNL     1     -13.184   7.036 129.120  0.00  0.00    +0.000 C 
ENDBRANCH  26  29
ENDBRANCH  22  23
ENDBRANCH   4  17
TORSDOF 6
ENDMDL
MODEL 2
REMARK VINA RESULT:      -7.9      5.932      8.586
REMARK  Name = CHEMBL467546
REMARK  10 active torsions:
REMARK  status: ('A' for Active; 'I' for Inactive)
REMARK    1  A    between atoms: C_1  and  C_2
REMARK    2  A    between atoms: C_2  and  S_3
REMARK    3  A    between atoms: S_3  and  C_4
REMARK    4  A    between atoms: C_7  and  C_8
REMARK    5  A    between atoms: C_11  and  C_12
REMARK    6  A    between atoms: C_15  and  C_16
REMARK    7  A    between atoms: N_17  and  C_18
REMARK    8  A    between atoms: C_21  and  O_22
REMARK    9  A    between atoms: O_22  and  C_23
REMARK   10  A    between atoms: C_28  and  C_29
REMARK                            x       y       z     vdW  Elec       q    Type
REMARK                         _______ _______ _______ _____ _____    ______ ____
ROOT
ATOM      1  C   UNL     1      -8.731   1.774 131.734  0.00  0.00    +0.000 A 
ATOM      2  C   UNL     1      -7.350   1.635 131.577  0.00  0.00    +0.000 A 
ATOM      3  N   UNL     1      -6.690   0.442 131.637  0.00  0.00    +0.000 NA
ATOM      4  C   UNL     1      -7.464  -0.652 131.856  0.00  0.00    +0.000 A 
ATOM      5  C   UNL     1      -8.838  -0.523 132.021  0.00  0.00    +0.000 A 
ATOM      6  N   UNL     1      -9.493   0.678 131.986  0.00  0.00    +0.000 NA
ENDROOT
BRANCH   1  10
ATOM      7  C   UNL     1     -10.854   5.542 131.233  0.00  0.00    +0.000 A 
ATOM      8  C   UNL     1     -10.891   4.543 130.256  0.00  0.00    +0.000 A 
ATOM      9  C   UNL     1     -10.180   3.339 130.418  0.00  0.00    +0.000 A 
ATOM     10  C   UNL     1      -9.428   3.073 131.578  0.00  0.00    +0.000 A 
ATOM     11  C   UNL     1      -9.398   4.084 132.571  0.00  0.00    +0.000 A 
ATOM     12  C   UNL     1      -8.624   3.937 133.857  0.00  0.00    +0.000 C 
ATOM     13  C   UNL     1     -10.112   5.296 132.388  0.00  0.00    +0.000 A 
BRANCH   7  14
ATOM     14  S   UNL     1     -11.850   7.008 130.979  0.00  0.00    +0.000 S 
BRANCH  14  16
ATOM     15  C   UNL     1     -10.380   8.025 128.902  0.00  0.00    +0.000 C 
ATOM     16  C   UNL     1     -11.708   7.332 129.182  0.00  0.00    +0.000 C 
ENDBRANCH  14  16
ENDBRANCH   7  14
ENDBRANCH   1  10
BRANCH   4  17
ATOM     17  C   UNL     1      -6.763  -1.926 132.025  0.00  0.00    +0.000 A 
ATOM     18  N   UNL     1      -6.176  -2.395 133.115  0.00  0.00    +0.000 NA
ATOM     19  N   UNL     1      -5.668  -3.652 132.841  0.00  0.00    +0.000 NA
ATOM     20  C   UNL     1      -5.935  -3.937 131.580  0.00  0.00    +0.000 A 
ATOM     21  C   UNL     1      -5.468  -5.110 130.790  0.00  0.00    +0.000 C 
ATOM     22  N   UNL     1      -6.634  -2.882 131.036  0.00  0.00    +0.000 N 
BRANCH  22  23
ATOM     23  C   UNL     1      -7.052  -2.785 129.706  0.00  0.00    +0.000 A 
ATOM     24  C   UNL     1      -8.240  -3.368 129.293  0.00  0.00    +0.000 A 
ATOM     25  C   UNL     1      -8.573  -3.276 127.949  0.00  0.00    +0.000 A 
ATOM     26  C   UNL     1      -7.711  -2.609 127.081  0.00  0.00    +0.000 A 
ATOM     27  N   UNL     1      -6.567  -2.020 127.492  0.00  0.00    +0.000 NA
ATOM     28  C   UNL     1      -6.251  -2.120 128.797  0.00  0.00    +0.000 A 
BRANCH  26  29
ATOM     29  O   UNL     1      -7.912  -2.477 125.737  0.00  0.00    +0.000 OA
ATOM     30  C   UNL     1      -8.248  -3.664 125.036  0.00  0.00    +0.000 C 
ENDBRANCH  26  29
ENDBRANCH  22  23
ENDBRANCH   4  17
TORSDOF 6
ENDMDL
MODEL 3
REMARK VINA RESULT:      -7.8      6.208     10.043
REMARK  Name = CHEMBL467546
REMARK  10 active torsions:
REMARK  status: ('A' for Active; 'I' for Inactive)
REMARK    1  A    between atoms: C_1  and  C_2
REMARK    2  A    between atoms: C_2  and  S_3
REMARK    3  A    between atoms: S_3  and  C_4
REMARK    4  A    between atoms: C_7  and  C_8
REMARK    5  A    between atoms: C_11  and  C_12
REMARK    6  A    between atoms: C_15  and  C_16
REMARK    7  A    between atoms: N_17  and  C_18
REMARK    8  A    between atoms: C_21  and  O_22
REMARK    9  A    between atoms: O_22  and  C_23
REMARK   10  A    between atoms: C_28  and  C_29
REMARK                            x       y       z     vdW  Elec       q    Type
REMARK                         _______ _______ _______ _____ _____    ______ ____
ROOT
ATOM      1  C   UNL     1      -7.220  -3.196 128.975  0.00  0.00    +0.000 A 
ATOM      2  C   UNL     1      -8.490  -3.618 128.576  0.00  0.00    +0.000 A 
ATOM      3  N   UNL     1      -8.998  -3.435 127.323  0.00  0.00    +0.000 NA
ATOM      4  C   UNL     1      -8.180  -2.808 126.439  0.00  0.00    +0.000 A 
ATOM      5  C   UNL     1      -6.918  -2.378 126.828  0.00  0.00    +0.000 A 
ATOM      6  N   UNL     1      -6.422  -2.540 128.093  0.00  0.00    +0.000 NA
ENDROOT
BRANCH   1  10
ATOM      7  C   UNL     1      -5.506  -4.080 132.879  0.00  0.00    +0.000 A 
ATOM      8  C   UNL     1      -5.289  -4.912 131.777  0.00  0.00    +0.000 A 
ATOM      9  C   UNL     1      -5.870  -4.629 130.526  0.00  0.00    +0.000 A 
ATOM     10  C   UNL     1      -6.665  -3.486 130.319  0.00  0.00    +0.000 A 
ATOM     11  C   UNL     1      -6.878  -2.640 131.436  0.00  0.00    +0.000 A 
ATOM     12  C   UNL     1      -7.718  -1.391 131.360  0.00  0.00    +0.000 C 
ATOM     13  C   UNL     1      -6.294  -2.945 132.693  0.00  0.00    +0.000 A 
BRANCH   7  14
ATOM     14  S   UNL     1      -4.667  -4.474 134.410  0.00  0.00    +0.000 S 
BRANCH  14  16
ATOM     15  C   UNL     1      -6.999  -5.670 135.209  0.00  0.00    +0.000 C 
ATOM     16  C   UNL     1      -5.520  -5.980 135.008  0.00  0.00    +0.000 C 
ENDBRANCH  14  16
ENDBRANCH   7  14
ENDBRANCH   1  10
BRANCH   4  17
ATOM     17  C   UNL     1      -8.745  -2.512 125.121  0.00  0.00    +0.000 A 
ATOM     18  N   UNL     1      -9.224  -3.367 124.230  0.00  0.00    +0.000 NA
ATOM     19  N   UNL     1      -9.690  -2.655 123.138  0.00  0.00    +0.000 NA
ATOM     20  C   UNL     1      -9.479  -1.372 123.364  0.00  0.00    +0.000 A 
ATOM     21  C   UNL     1      -9.680  -0.234 122.424  0.00  0.00    +0.000 C 
ATOM     22  N   UNL     1      -8.898  -1.240 124.606  0.00  0.00    +0.000 N 
BRANCH  22  23
ATOM     23  C   UNL     1      -8.476  -0.039 125.181  0.00  0.00    +0.000 A 
ATOM     24  C   UNL     1      -7.223   0.482 124.892  0.00  0.00    +0.000 A 
ATOM     25  C   UNL     1      -6.846   1.653 125.534  0.00  0.00    +0.000 A 
ATOM     26  C   UNL     1      -7.730   2.251 126.430  0.00  0.00    +0.000 A 
ATOM     27  N   UNL     1      -8.959   1.754 126.689  0.00  0.00    +0.000 NA
ATOM     28  C   UNL     1      -9.313   0.615 126.065  0.00  0.00    +0.000 A 
BRANCH  26  29
ATOM     29  O   UNL     1      -7.464   3.384 127.143  0.00  0.00    +0.000 OA
ATOM     30  C   UNL     1      -7.877   3.379 128.500  0.00  0.00    +0.000 C 
ENDBRANCH  26  29
ENDBRANCH  22  23
ENDBRANCH   4  17
TORSDOF 6
ENDMDL
MODEL 4
REMARK VINA RESULT:      -7.4      5.581      8.887
REMARK  Name = CHEMBL467546
REMARK  10 active torsions:
REMARK  status: ('A' for Active; 'I' for Inactive)
REMARK    1  A    between atoms: C_1  and  C_2
REMARK    2  A    between atoms: C_2  and  S_3
REMARK    3  A    between atoms: S_3  and  C_4
REMARK    4  A    between atoms: C_7  and  C_8
REMARK    5  A    between atoms: C_11  and  C_12
REMARK    6  A    between atoms: C_15  and  C_16
REMARK    7  A    between atoms: N_17  and  C_18
REMARK    8  A    between atoms: C_21  and  O_22
REMARK    9  A    between atoms: O_22  and  C_23
REMARK   10  A    between atoms: C_28  and  C_29
REMARK                            x       y       z     vdW  Elec       q    Type
REMARK                         _______ _______ _______ _____ _____    ______ ____
ROOT
ATOM      1  C   UNL     1      -3.997   4.142 128.313  0.00  0.00    +0.000 A 
ATOM      2  C   UNL     1      -5.355   4.359 128.065  0.00  0.00    +0.000 A 
ATOM      3  N   UNL     1      -6.051   3.765 127.052  0.00  0.00    +0.000 NA
ATOM      4  C   UNL     1      -5.343   2.911 126.269  0.00  0.00    +0.000 A 
ATOM      5  C   UNL     1      -3.991   2.695 126.504  0.00  0.00    +0.000 A 
ATOM      6  N   UNL     1      -3.290   3.312 127.504  0.00  0.00    +0.000 NA
ENDROOT
BRANCH   1  10
ATOM      7  C   UNL     1      -1.898   5.797 131.750  0.00  0.00    +0.000 A 
ATOM      8  C   UNL     1      -2.648   4.621 131.845  0.00  0.00    +0.000 A 
ATOM      9  C   UNL     1      -3.344   4.110 130.733  0.00  0.00    +0.000 A 
ATOM     10  C   UNL     1      -3.291   4.737 129.473  0.00  0.00    +0.000 A 
ATOM     11  C   UNL     1      -2.524   5.924 129.378  0.00  0.00    +0.000 A 
ATOM     12  C   UNL     1      -2.391   6.704 128.094  0.00  0.00    +0.000 C 
ATOM     13  C   UNL     1      -1.837   6.433 130.511  0.00  0.00    +0.000 A 
BRANCH   7  14
ATOM     14  S   UNL     1      -0.985   6.332 133.194  0.00  0.00    +0.000 S 
BRANCH  14  16
ATOM     15  C   UNL     1      -2.334   8.715 133.296  0.00  0.00    +0.000 C 
ATOM     16  C   UNL     1      -0.939   8.156 133.037  0.00  0.00    +0.000 C 
ENDBRANCH  14  16
ENDBRANCH   7  14
ENDBRANCH   1  10
BRANCH   4  17
ATOM     17  C   UNL     1      -6.047   2.343 125.117  0.00  0.00    +0.000 A 
ATOM     18  N   UNL     1      -6.336   2.934 123.968  0.00  0.00    +0.000 NA
ATOM     19  N   UNL     1      -6.977   2.021 123.149  0.00  0.00    +0.000 NA
ATOM     20  C   UNL     1      -7.087   0.883 123.809  0.00  0.00    +0.000 A 
ATOM     21  C   UNL     1      -7.826  -0.344 123.399  0.00  0.00    +0.000 C 
ATOM     22  N   UNL     1      -6.503   1.042 125.046  0.00  0.00    +0.000 N 
BRANCH  22  23
ATOM     23  C   UNL     1      -6.465   0.076 126.056  0.00  0.00    +0.000 A 
ATOM     24  C   UNL     1      -5.426  -0.839 126.120  0.00  0.00    +0.000 A 
ATOM     25  C   UNL     1      -5.473  -1.802 127.119  0.00  0.00    +0.000 A 
ATOM     26  C   UNL     1      -6.548  -1.808 128.005  0.00  0.00    +0.000 A 
ATOM     27  N   UNL     1      -7.545  -0.898 127.955  0.00  0.00    +0.000 NA
ATOM     28  C   UNL     1      -7.492   0.028 126.979  0.00  0.00    +0.000 A 
BRANCH  26  29
ATOM     29  O   UNL     1      -6.723  -2.719 129.007  0.00  0.00    +0.000 OA
ATOM     30  C   UNL     1      -8.036  -2.824 129.534  0.00  0.00    +0.000 C 
ENDBRANCH  26  29
ENDBRANCH  22  23
ENDBRANCH   4  17
TORSDOF 6
ENDMDL
MODEL 5
REMARK VINA RESULT:      -7.4      5.341      9.673
REMARK  Name = CHEMBL467546
REMARK  10 active torsions:
REMARK  status: ('A' for Active; 'I' for Inactive)
REMARK    1  A    between atoms: C_1  and  C_2
REMARK    2  A    between atoms: C_2  and  S_3
REMARK    3  A    between atoms: S_3  and  C_4
REMARK    4  A    between atoms: C_7  and  C_8
REMARK    5  A    between atoms: C_11  and  C_12
REMARK    6  A    between atoms: C_15  and  C_16
REMARK    7  A    between atoms: N_17  and  C_18
REMARK    8  A    between atoms: C_21  and  O_22
REMARK    9  A    between atoms: O_22  and  C_23
REMARK   10  A    between atoms: C_28  and  C_29
REMARK                            x       y       z     vdW  Elec       q    Type
REMARK                         _______ _______ _______ _____ _____    ______ ____
ROOT
ATOM      1  C   UNL     1      -6.833   0.028 128.967  0.00  0.00    +0.000 A 
ATOM      2  C   UNL     1      -5.661   0.051 128.208  0.00  0.00    +0.000 A 
ATOM      3  N   UNL     1      -5.459   0.874 127.138  0.00  0.00    +0.000 NA
ATOM      4  C   UNL     1      -6.483   1.712 126.835  0.00  0.00    +0.000 A 
ATOM      5  C   UNL     1      -7.655   1.692 127.580  0.00  0.00    +0.000 A 
ATOM      6  N   UNL     1      -7.864   0.848 128.636  0.00  0.00    +0.000 NA
ENDROOT
BRANCH   1  10
ATOM      7  C   UNL     1      -7.322  -2.373 132.565  0.00  0.00    +0.000 A 
ATOM      8  C   UNL     1      -6.855  -1.057 132.620  0.00  0.00    +0.000 A 
ATOM      9  C   UNL     1      -6.677  -0.299 131.447  0.00  0.00    +0.000 A 
ATOM     10  C   UNL     1      -6.988  -0.817 130.175  0.00  0.00    +0.000 A 
ATOM     11  C   UNL     1      -7.468  -2.149 130.123  0.00  0.00    +0.000 A 
ATOM     12  C   UNL     1      -7.828  -2.832 128.828  0.00  0.00    +0.000 C 
ATOM     13  C   UNL     1      -7.633  -2.904 131.313  0.00  0.00    +0.000 A 
BRANCH   7  14
ATOM     14  S   UNL     1      -7.592  -3.237 134.110  0.00  0.00    +0.000 S 
BRANCH  14  16
ATOM     15  C   UNL     1      -5.064  -4.218 133.713  0.00  0.00    +0.000 C 
ATOM     16  C   UNL     1      -6.484  -4.691 134.004  0.00  0.00    +0.000 C 
ENDBRANCH  14  16
ENDBRANCH   7  14
ENDBRANCH   1  10
BRANCH   4  17
ATOM     17  C   UNL     1      -6.324   2.530 125.630  0.00  0.00    +0.000 A 
ATOM     18  N   UNL     1      -5.737   3.711 125.519  0.00  0.00    +0.000 NA
ATOM     19  N   UNL     1      -5.781   4.106 124.193  0.00  0.00    +0.000 NA
ATOM     20  C   UNL     1      -6.409   3.169 123.507  0.00  0.00    +0.000 A 
ATOM     21  C   UNL     1      -6.825   3.209 122.077  0.00  0.00    +0.000 C 
ATOM     22  N   UNL     1      -6.754   2.155 124.372  0.00  0.00    +0.000 N 
BRANCH  22  23
ATOM     23  C   UNL     1      -7.479   1.010 124.033  0.00  0.00    +0.000 A 
ATOM     24  C   UNL     1      -6.834  -0.116 123.545  0.00  0.00    +0.000 A 
ATOM     25  C   UNL     1      -7.616  -1.204 123.181  0.00  0.00    +0.000 A 
ATOM     26  C   UNL     1      -9.000  -1.120 123.320  0.00  0.00    +0.000 A 
ATOM     27  N   UNL     1      -9.623  -0.030 123.819  0.00  0.00    +0.000 NA
ATOM     28  C   UNL     1      -8.855   1.020 124.164  0.00  0.00    +0.000 A 
BRANCH  26  29
ATOM     29  O   UNL     1      -9.877  -2.107 122.970  0.00  0.00    +0.000 OA
ATOM     30  C   UNL     1      -9.599  -3.399 123.485  0.00  0.00    +0.000 C 
ENDBRANCH  26  29
ENDBRANCH  22  23
ENDBRANCH   4  17
TORSDOF 6
ENDMDL
MODEL 6
REMARK VINA RESULT:      -7.3      3.962      4.804
REMARK  Name = CHEMBL467546
REMARK  10 active torsions:
REMARK  status: ('A' for Active; 'I' for Inactive)
REMARK    1  A    between atoms: C_1  and  C_2
REMARK    2  A    between atoms: C_2  and  S_3
REMARK    3  A    between atoms: S_3  and  C_4
REMARK    4  A    between atoms: C_7  and  C_8
REMARK    5  A    between atoms: C_11  and  C_12
REMARK    6  A    between atoms: C_15  and  C_16
REMARK    7  A    between atoms: N_17  and  C_18
REMARK    8  A    between atoms: C_21  and  O_22
REMARK    9  A    between atoms: O_22  and  C_23
REMARK   10  A    between atoms: C_28  and  C_29
REMARK                            x       y       z     vdW  Elec       q    Type
REMARK                         _______ _______ _______ _____ _____    ______ ____
ROOT
ATOM      1  C   UNL     1      -7.627   0.758 129.752  0.00  0.00    +0.000 A 
ATOM      2  C   UNL     1      -8.588   0.853 130.761  0.00  0.00    +0.000 A 
ATOM      3  N   UNL     1      -8.450   1.623 131.880  0.00  0.00    +0.000 NA
ATOM      4  C   UNL     1      -7.294   2.330 131.971  0.00  0.00    +0.000 A 
ATOM      5  C   UNL     1      -6.329   2.237 130.976  0.00  0.00    +0.000 A 
ATOM      6  N   UNL     1      -6.460   1.444 129.869  0.00  0.00    +0.000 NA
ENDROOT
BRANCH   1  10
ATOM      7  C   UNL     1      -8.223  -1.454 126.050  0.00  0.00    +0.000 A 
ATOM      8  C   UNL     1      -8.368  -0.065 126.106  0.00  0.00    +0.000 A 
ATOM      9  C   UNL     1      -8.198   0.637 127.315  0.00  0.00    +0.000 A 
ATOM     10  C   UNL     1      -7.845  -0.020 128.509  0.00  0.00    +0.000 A 
ATOM     11  C   UNL     1      -7.691  -1.427 128.448  0.00  0.00    +0.000 A 
ATOM     12  C   UNL     1      -7.328  -2.258 129.653  0.00  0.00    +0.000 C 
ATOM     13  C   UNL     1      -7.876  -2.121 127.225  0.00  0.00    +0.000 A 
BRANCH   7  14
ATOM     14  S   UNL     1      -8.382  -2.254 124.456  0.00  0.00    +0.000 S 
BRANCH  14  16
ATOM     15  C   UNL     1      -5.793  -2.549 123.606  0.00  0.00    +0.000 C 
ATOM     16  C   UNL     1      -6.890  -3.310 124.341  0.00  0.00    +0.000 C 
ENDBRANCH  14  16
ENDBRANCH   7  14
ENDBRANCH   1  10
BRANCH   4  17
ATOM     17  C   UNL     1      -7.084   3.081 133.210  0.00  0.00    +0.000 A 
ATOM     18  N   UNL     1      -6.445   2.688 134.302  0.00  0.00    +0.000 NA
ATOM     19  N   UNL     1      -6.453   3.725 135.218  0.00  0.00    +0.000 NA
ATOM     20  C   UNL     1      -7.110   4.739 134.686  0.00  0.00    +0.000 A 
ATOM     21  C   UNL     1      -7.503   6.018 135.340  0.00  0.00    +0.000 C 
ATOM     22  N   UNL     1      -7.511   4.378 133.419  0.00  0.00    +0.000 N 
BRANCH  22  23
ATOM     23  C   UNL     1      -8.279   5.164 132.555  0.00  0.00    +0.000 A 
ATOM     24  C   UNL     1      -7.672   6.046 131.674  0.00  0.00    +0.000 A 
ATOM     25  C   UNL     1      -8.494   6.832 130.878  0.00  0.00    +0.000 A 
ATOM     26  C   UNL     1      -9.876   6.703 130.995  0.00  0.00    +0.000 A 
ATOM     27  N   UNL     1     -10.463   5.824 131.836  0.00  0.00    +0.000 NA
ATOM     28  C   UNL     1      -9.657   5.070 132.607  0.00  0.00    +0.000 A 
BRANCH  26  29
ATOM     29  O   UNL     1     -10.786   7.439 130.291  0.00  0.00    +0.000 OA
ATOM     30  C   UNL     1     -10.339   7.967 129.053  0.00  0.00    +0.000 C 
ENDBRANCH  26  29
ENDBRANCH  22  23
ENDBRANCH   4  17
TORSDOF 6
ENDMDL
MODEL 7
REMARK VINA RESULT:      -7.2      5.048      9.141
REMARK  Name = CHEMBL467546
REMARK  10 active torsions:
REMARK  status: ('A' for Active; 'I' for Inactive)
REMARK    1  A    between atoms: C_1  and  C_2
REMARK    2  A    between atoms: C_2  and  S_3
REMARK    3  A    between atoms: S_3  and  C_4
REMARK    4  A    between atoms: C_7  and  C_8
REMARK    5  A    between atoms: C_11  and  C_12
REMARK    6  A    between atoms: C_15  and  C_16
REMARK    7  A    between atoms: N_17  and  C_18
REMARK    8  A    between atoms: C_21  and  O_22
REMARK    9  A    between atoms: O_22  and  C_23
REMARK   10  A    between atoms: C_28  and  C_29
REMARK                            x       y       z     vdW  Elec       q    Type
REMARK                         _______ _______ _______ _____ _____    ______ ____
ROOT
ATOM      1  C   UNL     1      -7.448  -0.760 127.927  0.00  0.00    +0.000 A 
ATOM      2  C   UNL     1      -6.970  -1.222 126.699  0.00  0.00    +0.000 A 
ATOM      3  N   UNL     1      -7.313  -0.683 125.492  0.00  0.00    +0.000 NA
ATOM      4  C   UNL     1      -8.166   0.372 125.537  0.00  0.00    +0.000 A 
ATOM      5  C   UNL     1      -8.654   0.834 126.754  0.00  0.00    +0.000 A 
ATOM      6  N   UNL     1      -8.328   0.275 127.959  0.00  0.00    +0.000 NA
ENDROOT
BRANCH   1  10
ATOM      7  C   UNL     1      -6.099  -2.290 131.773  0.00  0.00    +0.000 A 
ATOM      8  C   UNL     1      -5.598  -1.098 131.241  0.00  0.00    +0.000 A 
ATOM      9  C   UNL     1      -6.024  -0.627 129.984  0.00  0.00    +0.000 A 
ATOM     10  C   UNL     1      -6.990  -1.312 129.224  0.00  0.00    +0.000 A 
ATOM     11  C   UNL     1      -7.502  -2.516 129.768  0.00  0.00    +0.000 A 
ATOM     12  C   UNL     1      -8.532  -3.357 129.057  0.00  0.00    +0.000 C 
ATOM     13  C   UNL     1      -7.056  -2.984 131.032  0.00  0.00    +0.000 A 
BRANCH   7  14
ATOM     14  S   UNL     1      -5.561  -2.774 133.410  0.00  0.00    +0.000 S 
BRANCH  14  16
ATOM     15  C   UNL     1      -5.797  -5.456 133.919  0.00  0.00    +0.000 C 
ATOM     16  C   UNL     1      -6.642  -4.190 133.831  0.00  0.00    +0.000 C 
ENDBRANCH  14  16
ENDBRANCH   7  14
ENDBRANCH   1  10
BRANCH   4  17
ATOM     17  C   UNL     1      -8.625   0.898 124.250  0.00  0.00    +0.000 A 
ATOM     18  N   UNL     1      -9.413   0.310 123.364  0.00  0.00    +0.000 NA
ATOM     19  N   UNL     1      -9.618   1.178 122.306  0.00  0.00    +0.000 NA
ATOM     20  C   UNL     1      -8.941   2.285 122.547  0.00  0.00    +0.000 A 
ATOM     21  C   UNL     1      -8.737   3.447 121.637  0.00  0.00    +0.000 C 
ATOM     22  N   UNL     1      -8.313   2.153 123.765  0.00  0.00    +0.000 N 
BRANCH  22  23
ATOM     23  C   UNL     1      -7.458   3.095 124.344  0.00  0.00    +0.000 A 
ATOM     24  C   UNL     1      -6.094   3.057 124.097  0.00  0.00    +0.000 A 
ATOM     25  C   UNL     1      -5.294   3.992 124.741  0.00  0.00    +0.000 A 
ATOM     26  C   UNL     1      -5.888   4.918 125.597  0.00  0.00    +0.000 A 
ATOM     27  N   UNL     1      -7.220   4.967 125.814  0.00  0.00    +0.000 NA
ATOM     28  C   UNL     1      -7.985   4.053 125.189  0.00  0.00    +0.000 A 
BRANCH  26  29
ATOM     29  O   UNL     1      -5.207   5.864 126.308  0.00  0.00    +0.000 OA
ATOM     30  C   UNL     1      -4.276   5.378 127.261  0.00  0.00    +0.000 C 
ENDBRANCH  26  29
ENDBRANCH  22  23
ENDBRANCH   4  17
TORSDOF 6
ENDMDL
MODEL 8
REMARK VINA RESULT:      -7.1      6.919     11.127
REMARK  Name = CHEMBL467546
REMARK  10 active torsions:
REMARK  status: ('A' for Active; 'I' for Inactive)
REMARK    1  A    between atoms: C_1  and  C_2
REMARK    2  A    between atoms: C_2  and  S_3
REMARK    3  A    between atoms: S_3  and  C_4
REMARK    4  A    between atoms: C_7  and  C_8
REMARK    5  A    between atoms: C_11  and  C_12
REMARK    6  A    between atoms: C_15  and  C_16
REMARK    7  A    between atoms: N_17  and  C_18
REMARK    8  A    between atoms: C_21  and  O_22
REMARK    9  A    between atoms: O_22  and  C_23
REMARK   10  A    between atoms: C_28  and  C_29
REMARK                            x       y       z     vdW  Elec       q    Type
REMARK                         _______ _______ _______ _____ _____    ______ ____
ROOT
ATOM      1  C   UNL     1      -7.136  -2.208 130.454  0.00  0.00    +0.000 A 
ATOM      2  C   UNL     1      -7.989  -2.631 129.431  0.00  0.00    +0.000 A 
ATOM      3  N   UNL     1      -8.302  -1.878 128.337  0.00  0.00    +0.000 NA
ATOM      4  C   UNL     1      -7.718  -0.653 128.274  0.00  0.00    +0.000 A 
ATOM      5  C   UNL     1      -6.875  -0.221 129.290  0.00  0.00    +0.000 A 
ATOM      6  N   UNL     1      -6.583  -0.969 130.399  0.00  0.00    +0.000 NA
ENDROOT
BRANCH   1  10
ATOM      7  C   UNL     1      -6.096  -4.787 133.804  0.00  0.00    +0.000 A 
ATOM      8  C   UNL     1      -7.111  -3.830 133.902  0.00  0.00    +0.000 A 
ATOM      9  C   UNL     1      -7.421  -2.985 132.820  0.00  0.00    +0.000 A 
ATOM     10  C   UNL     1      -6.749  -3.083 131.586  0.00  0.00    +0.000 A 
ATOM     11  C   UNL     1      -5.726  -4.059 131.487  0.00  0.00    +0.000 A 
ATOM     12  C   UNL     1      -4.919  -4.265 130.230  0.00  0.00    +0.000 C 
ATOM     13  C   UNL     1      -5.419  -4.897 132.590  0.00  0.00    +0.000 A 
BRANCH   7  14
ATOM     14  S   UNL     1      -5.822  -5.870 135.203  0.00  0.00    +0.000 S 
BRANCH  14  16
ATOM     15  C   UNL     1      -5.981  -4.638 137.645  0.00  0.00    +0.000 C 
ATOM     16  C   UNL     1      -6.872  -5.161 136.524  0.00  0.00    +0.000 C 
ENDBRANCH  14  16
ENDBRANCH   7  14
ENDBRANCH   1  10
BRANCH   4  17
ATOM     17  C   UNL     1      -8.121   0.207 127.161  0.00  0.00    +0.000 A 
ATOM     18  N   UNL     1      -8.827   1.326 127.210  0.00  0.00    +0.000 NA
ATOM     19  N   UNL     1      -8.946   1.834 125.928  0.00  0.00    +0.000 NA
ATOM     20  C   UNL     1      -8.324   1.013 125.103  0.00  0.00    +0.000 A 
ATOM     21  C   UNL     1      -8.300   1.060 123.614  0.00  0.00    +0.000 C 
ATOM     22  N   UNL     1      -7.782  -0.015 125.841  0.00  0.00    +0.000 N 
BRANCH  22  23
ATOM     23  C   UNL     1      -7.091  -1.113 125.319  0.00  0.00    +0.000 A 
ATOM     24  C   UNL     1      -5.716  -1.068 125.150  0.00  0.00    +0.000 A 
ATOM     25  C   UNL     1      -5.097  -2.173 124.582  0.00  0.00    +0.000 A 
ATOM     26  C   UNL     1      -5.874  -3.269 124.211  0.00  0.00    +0.000 A 
ATOM     27  N   UNL     1      -7.211  -3.319 124.401  0.00  0.00    +0.000 NA
ATOM     28  C   UNL     1      -7.801  -2.239 124.948  0.00  0.00    +0.000 A 
BRANCH  26  29
ATOM     29  O   UNL     1      -5.389  -4.399 123.617  0.00  0.00    +0.000 OA
ATOM     30  C   UNL     1      -3.978  -4.543 123.609  0.00  0.00    +0.000 C 
ENDBRANCH  26  29
ENDBRANCH  22  23
ENDBRANCH   4  17
TORSDOF 6
ENDMDL
MODEL 9
REMARK VINA RESULT:      -7.0      4.690      9.212
REMARK  Name = CHEMBL467546
REMARK  10 active torsions:
REMARK  status: ('A' for Active; 'I' for Inactive)
REMARK    1  A    between atoms: C_1  and  C_2
REMARK    2  A    between atoms: C_2  and  S_3
REMARK    3  A    between atoms: S_3  and  C_4
REMARK    4  A    between atoms: C_7  and  C_8
REMARK    5  A    between atoms: C_11  and  C_12
REMARK    6  A    between atoms: C_15  and  C_16
REMARK    7  A    between atoms: N_17  and  C_18
REMARK    8  A    between atoms: C_21  and  O_22
REMARK    9  A    between atoms: O_22  and  C_23
REMARK   10  A    between atoms: C_28  and  C_29
REMARK                            x       y       z     vdW  Elec       q    Type
REMARK                         _______ _______ _______ _____ _____    ______ ____
ROOT
ATOM      1  C   UNL     1      -5.776   3.443 127.899  0.00  0.00    +0.000 A 
ATOM      2  C   UNL     1      -6.523   4.439 127.265  0.00  0.00    +0.000 A 
ATOM      3  N   UNL     1      -6.520   4.655 125.917  0.00  0.00    +0.000 NA
ATOM      4  C   UNL     1      -5.738   3.821 125.186  0.00  0.00    +0.000 A 
ATOM      5  C   UNL     1      -4.986   2.832 125.808  0.00  0.00    +0.000 A 
ATOM      6  N   UNL     1      -4.971   2.635 127.162  0.00  0.00    +0.000 NA
ENDROOT
BRANCH   1  10
ATOM      7  C   UNL     1      -6.088   2.581 132.155  0.00  0.00    +0.000 A 
ATOM      8  C   UNL     1      -7.122   2.273 131.267  0.00  0.00    +0.000 A 
ATOM      9  C   UNL     1      -7.020   2.580 129.896  0.00  0.00    +0.000 A 
ATOM     10  C   UNL     1      -5.867   3.179 129.355  0.00  0.00    +0.000 A 
ATOM     11  C   UNL     1      -4.817   3.483 130.256  0.00  0.00    +0.000 A 
ATOM     12  C   UNL     1      -3.531   4.136 129.815  0.00  0.00    +0.000 C 
ATOM     13  C   UNL     1      -4.939   3.178 131.637  0.00  0.00    +0.000 A 
BRANCH   7  14
ATOM     14  S   UNL     1      -6.272   2.086 133.866  0.00  0.00    +0.000 S 
BRANCH  14  16
ATOM     15  C   UNL     1      -5.443   3.896 135.750  0.00  0.00    +0.000 C 
ATOM     16  C   UNL     1      -6.571   3.660 134.752  0.00  0.00    +0.000 C 
ENDBRANCH  14  16
ENDBRANCH   7  14
ENDBRANCH   1  10
BRANCH   4  17
ATOM     17  C   UNL     1      -5.644   4.102 123.752  0.00  0.00    +0.000 A 
ATOM     18  N   UNL     1      -4.895   5.012 123.148  0.00  0.00    +0.000 NA
ATOM     19  N   UNL     1      -5.088   4.909 121.781  0.00  0.00    +0.000 NA
ATOM     20  C   UNL     1      -5.965   3.948 121.561  0.00  0.00    +0.000 A 
ATOM     21  C   UNL     1      -6.595   3.565 120.267  0.00  0.00    +0.000 C 
ATOM     22  N   UNL     1      -6.329   3.407 122.775  0.00  0.00    +0.000 N 
BRANCH  22  23
ATOM     23  C   UNL     1      -7.279   2.399 122.962  0.00  0.00    +0.000 A 
ATOM     24  C   UNL     1      -8.625   2.709 123.077  0.00  0.00    +0.000 A 
ATOM     25  C   UNL     1      -9.511   1.666 123.310  0.00  0.00    +0.000 A 
ATOM     26  C   UNL     1      -9.017   0.368 123.417  0.00  0.00    +0.000 A 
ATOM     27  N   UNL     1      -7.708   0.067 123.279  0.00  0.00    +0.000 NA
ATOM     28  C   UNL     1      -6.857   1.087 123.058  0.00  0.00    +0.000 A 
BRANCH  26  29
ATOM     29  O   UNL     1      -9.781  -0.734 123.674  0.00  0.00    +0.000 OA
ATOM     30  C   UNL     1      -9.187  -1.989 123.381  0.00  0.00    +0.000 C 
ENDBRANCH  26  29
ENDBRANCH  22  23
ENDBRANCH   4  17
TORSDOF 6
ENDMDL
