MODEL 1
REMARK VINA RESULT:      -8.8      0.000      0.000
REMARK  Name = CHEMBL1089391
REMARK  7 active torsions:
REMARK  status: ('A' for Active; 'I' for Inactive)
REMARK    1  A    between atoms: C_1  and  O_2
REMARK    2  A    between atoms: O_2  and  C_3
REMARK    3  A    between atoms: C_6  and  N_7
REMARK    4  A    between atoms: C_8  and  C_9
REMARK    5  A    between atoms: C_15  and  O_16
REMARK    6  A    between atoms: O_16  and  C_17
REMARK    7  A    between atoms: C_23  and  C_24
REMARK                            x       y       z     vdW  Elec       q    Type
REMARK                         _______ _______ _______ _____ _____    ______ ____
ROOT
ATOM      1  N   UNL     1      -8.457  -1.339 124.407  0.00  0.00    +0.000 N 
ATOM      2  C   UNL     1      -9.076  -2.437 123.804  0.00  0.00    +0.000 A 
ATOM      3  C   UNL     1      -9.034  -3.873 124.234  0.00  0.00    +0.000 C 
ATOM      4  N   UNL     1      -9.868  -1.994 122.848  0.00  0.00    +0.000 NA
ATOM      5  N   UNL     1      -9.838  -0.612 122.847  0.00  0.00    +0.000 NA
ATOM      6  C   UNL     1      -9.017  -0.208 123.779  0.00  0.00    +0.000 A 
ATOM      7  N   UNL     1      -8.657   1.064 124.178  0.00  0.00    +0.000 N 
ATOM      8  C   UNL     1      -9.347   2.306 123.994  0.00  0.00    +0.000 C 
ATOM      9  C   UNL     1      -8.121   2.902 123.255  0.00  0.00    +0.000 C 
ATOM     10  C   UNL     1      -7.399   1.653 123.824  0.00  0.00    +0.000 C 
ENDROOT
BRANCH   1  14
ATOM     11  C   UNL     1      -5.790  -1.450 127.610  0.00  0.00    +0.000 A 
ATOM     12  C   UNL     1      -5.284  -1.494 126.321  0.00  0.00    +0.000 A 
ATOM     13  C   UNL     1      -6.173  -1.425 125.250  0.00  0.00    +0.000 A 
ATOM     14  C   UNL     1      -7.546  -1.309 125.489  0.00  0.00    +0.000 A 
ATOM     15  C   UNL     1      -7.972  -1.311 126.806  0.00  0.00    +0.000 A 
ATOM     16  N   UNL     1      -7.119  -1.386 127.865  0.00  0.00    +0.000 NA
BRANCH  11  18
ATOM     17  C   UNL     1      -4.765  -2.921 129.138  0.00  0.00    +0.000 C 
ATOM     18  O   UNL     1      -4.994  -1.576 128.720  0.00  0.00    +0.000 OA
ENDBRANCH  11  18
ENDBRANCH   1  14
BRANCH   9  19
ATOM     19  O   UNL     1      -8.266   3.102 121.812  0.00  0.00    +0.000 OA
BRANCH  19  20
ATOM     20  C   UNL     1      -7.225   3.697 121.114  0.00  0.00    +0.000 A 
ATOM     21  C   UNL     1      -5.997   3.887 121.771  0.00  0.00    +0.000 A 
ATOM     22  C   UNL     1      -4.954   4.599 121.148  0.00  0.00    +0.000 A 
ATOM     23  C   UNL     1      -5.131   5.126 119.874  0.00  0.00    +0.000 A 
ATOM     24  C   UNL     1      -6.346   4.947 119.236  0.00  0.00    +0.000 A 
ATOM     25  F   UNL     1      -6.510   5.459 118.008  0.00  0.00    +0.000 F 
ATOM     26  C   UNL     1      -7.399   4.257 119.842  0.00  0.00    +0.000 A 
ATOM     27  C   UNL     1      -8.661   4.143 119.070  0.00  0.00    +0.000 C 
ENDBRANCH  19  20
ENDBRANCH   9  19
TORSDOF 4
ENDMDL
MODEL 2
REMARK VINA RESULT:      -8.4      2.028      2.734
REMARK  Name = CHEMBL1089391
REMARK  7 active torsions:
REMARK  status: ('A' for Active; 'I' for Inactive)
REMARK    1  A    between atoms: C_1  and  O_2
REMARK    2  A    between atoms: O_2  and  C_3
REMARK    3  A    between atoms: C_6  and  N_7
REMARK    4  A    between atoms: C_8  and  C_9
REMARK    5  A    between atoms: C_15  and  O_16
REMARK    6  A    between atoms: O_16  and  C_17
REMARK    7  A    between atoms: C_23  and  C_24
REMARK                            x       y       z     vdW  Elec       q    Type
REMARK                         _______ _______ _______ _____ _____    ______ ____
ROOT
ATOM      1  N   UNL     1      -6.399  -2.291 124.501  0.00  0.00    +0.000 N 
ATOM      2  C   UNL     1      -5.581  -3.149 123.762  0.00  0.00    +0.000 A 
ATOM      3  C   UNL     1      -5.118  -4.528 124.127  0.00  0.00    +0.000 C 
ATOM      4  N   UNL     1      -5.389  -2.617 122.572  0.00  0.00    +0.000 NA
ATOM      5  N   UNL     1      -6.120  -1.447 122.482  0.00  0.00    +0.000 NA
ATOM      6  C   UNL     1      -6.739  -1.249 123.615  0.00  0.00    +0.000 A 
ATOM      7  N   UNL     1      -7.593  -0.241 124.015  0.00  0.00    +0.000 N 
ATOM      8  C   UNL     1      -8.378   0.658 123.222  0.00  0.00    +0.000 C 
ATOM      9  C   UNL     1      -7.685   1.878 123.881  0.00  0.00    +0.000 C 
ATOM     10  C   UNL     1      -7.176   0.817 124.890  0.00  0.00    +0.000 C 
ENDROOT
BRANCH   1  14
ATOM     11  C   UNL     1      -7.800  -2.930 128.376  0.00  0.00    +0.000 A 
ATOM     12  C   UNL     1      -6.537  -2.386 128.207  0.00  0.00    +0.000 A 
ATOM     13  C   UNL     1      -6.081  -2.142 126.912  0.00  0.00    +0.000 A 
ATOM     14  C   UNL     1      -6.897  -2.444 125.817  0.00  0.00    +0.000 A 
ATOM     15  C   UNL     1      -8.129  -3.022 126.072  0.00  0.00    +0.000 A 
ATOM     16  N   UNL     1      -8.587  -3.275 127.329  0.00  0.00    +0.000 NA
BRANCH  11  18
ATOM     17  C   UNL     1      -7.449  -2.931 130.706  0.00  0.00    +0.000 C 
ATOM     18  O   UNL     1      -8.301  -3.261 129.609  0.00  0.00    +0.000 OA
ENDBRANCH  11  18
ENDBRANCH   1  14
BRANCH   9  19
ATOM     19  O   UNL     1      -6.754   2.631 123.037  0.00  0.00    +0.000 OA
BRANCH  19  20
ATOM     20  C   UNL     1      -7.244   3.265 121.905  0.00  0.00    +0.000 A 
ATOM     21  C   UNL     1      -8.629   3.237 121.665  0.00  0.00    +0.000 A 
ATOM     22  C   UNL     1      -9.158   3.755 120.467  0.00  0.00    +0.000 A 
ATOM     23  C   UNL     1      -8.314   4.298 119.506  0.00  0.00    +0.000 A 
ATOM     24  C   UNL     1      -6.950   4.313 119.742  0.00  0.00    +0.000 A 
ATOM     25  F   UNL     1      -6.141   4.838 118.811  0.00  0.00    +0.000 F 
ATOM     26  C   UNL     1      -6.402   3.791 120.917  0.00  0.00    +0.000 A 
ATOM     27  C   UNL     1      -4.926   3.846 121.052  0.00  0.00    +0.000 C 
ENDBRANCH  19  20
ENDBRANCH   9  19
TORSDOF 4
ENDMDL
MODEL 3
REMARK VINA RESULT:      -8.2      2.384      3.328
REMARK  Name = CHEMBL1089391
REMARK  7 active torsions:
REMARK  status: ('A' for Active; 'I' for Inactive)
REMARK    1  A    between atoms: C_1  and  O_2
REMARK    2  A    between atoms: O_2  and  C_3
REMARK    3  A    between atoms: C_6  and  N_7
REMARK    4  A    between atoms: C_8  and  C_9
REMARK    5  A    between atoms: C_15  and  O_16
REMARK    6  A    between atoms: O_16  and  C_17
REMARK    7  A    between atoms: C_23  and  C_24
REMARK                            x       y       z     vdW  Elec       q    Type
REMARK                         _______ _______ _______ _____ _____    ______ ____
ROOT
ATOM      1  N   UNL     1      -6.808  -2.287 124.387  0.00  0.00    +0.000 N 
ATOM      2  C   UNL     1      -5.763  -2.805 123.618  0.00  0.00    +0.000 A 
ATOM      3  C   UNL     1      -4.873  -3.971 123.931  0.00  0.00    +0.000 C 
ATOM      4  N   UNL     1      -5.767  -2.196 122.449  0.00  0.00    +0.000 NA
ATOM      5  N   UNL     1      -6.840  -1.325 122.402  0.00  0.00    +0.000 NA
ATOM      6  C   UNL     1      -7.478  -1.381 123.541  0.00  0.00    +0.000 A 
ATOM      7  N   UNL     1      -8.608  -0.720 123.977  0.00  0.00    +0.000 N 
ATOM      8  C   UNL     1      -9.651  -0.098 123.217  0.00  0.00    +0.000 C 
ATOM      9  C   UNL     1      -9.386   1.257 123.923  0.00  0.00    +0.000 C 
ATOM     10  C   UNL     1      -8.549   0.382 124.892  0.00  0.00    +0.000 C 
ENDROOT
BRANCH   1  14
ATOM     11  C   UNL     1      -8.113  -3.162 128.250  0.00  0.00    +0.000 A 
ATOM     12  C   UNL     1      -8.833  -3.659 127.176  0.00  0.00    +0.000 A 
ATOM     13  C   UNL     1      -8.379  -3.394 125.885  0.00  0.00    +0.000 A 
ATOM     14  C   UNL     1      -7.215  -2.642 125.696  0.00  0.00    +0.000 A 
ATOM     15  C   UNL     1      -6.577  -2.149 126.821  0.00  0.00    +0.000 A 
ATOM     16  N   UNL     1      -7.010  -2.391 128.089  0.00  0.00    +0.000 NA
BRANCH  11  18
ATOM     17  C   UNL     1      -7.541  -2.980 130.528  0.00  0.00    +0.000 C 
ATOM     18  O   UNL     1      -8.522  -3.320 129.549  0.00  0.00    +0.000 OA
ENDBRANCH  11  18
ENDBRANCH   1  14
BRANCH   9  19
ATOM     19  O   UNL     1      -8.759   2.302 123.111  0.00  0.00    +0.000 OA
BRANCH  19  20
ATOM     20  C   UNL     1      -7.803   3.118 123.698  0.00  0.00    +0.000 A 
ATOM     21  C   UNL     1      -8.122   3.769 124.902  0.00  0.00    +0.000 A 
ATOM     22  C   UNL     1      -7.234   4.704 125.468  0.00  0.00    +0.000 A 
ATOM     23  C   UNL     1      -6.030   4.997 124.837  0.00  0.00    +0.000 A 
ATOM     24  C   UNL     1      -5.726   4.361 123.645  0.00  0.00    +0.000 A 
ATOM     25  F   UNL     1      -4.564   4.648 123.042  0.00  0.00    +0.000 F 
ATOM     26  C   UNL     1      -6.599   3.442 123.059  0.00  0.00    +0.000 A 
ATOM     27  C   UNL     1      -6.174   2.838 121.772  0.00  0.00    +0.000 C 
ENDBRANCH  19  20
ENDBRANCH   9  19
TORSDOF 4
ENDMDL
MODEL 4
REMARK VINA RESULT:      -8.1      9.009     10.645
REMARK  Name = CHEMBL1089391
REMARK  7 active torsions:
REMARK  status: ('A' for Active; 'I' for Inactive)
REMARK    1  A    between atoms: C_1  and  O_2
REMARK    2  A    between atoms: O_2  and  C_3
REMARK    3  A    between atoms: C_6  and  N_7
REMARK    4  A    between atoms: C_8  and  C_9
REMARK    5  A    between atoms: C_15  and  O_16
REMARK    6  A    between atoms: O_16  and  C_17
REMARK    7  A    between atoms: C_23  and  C_24
REMARK                            x       y       z     vdW  Elec       q    Type
REMARK                         _______ _______ _______ _____ _____    ______ ____
ROOT
ATOM      1  N   UNL     1      -4.405   5.803 129.721  0.00  0.00    +0.000 N 
ATOM      2  C   UNL     1      -3.808   5.557 128.482  0.00  0.00    +0.000 A 
ATOM      3  C   UNL     1      -2.350   5.603 128.134  0.00  0.00    +0.000 C 
ATOM      4  N   UNL     1      -4.732   5.105 127.659  0.00  0.00    +0.000 NA
ATOM      5  N   UNL     1      -5.924   4.984 128.348  0.00  0.00    +0.000 NA
ATOM      6  C   UNL     1      -5.741   5.379 129.579  0.00  0.00    +0.000 A 
ATOM      7  N   UNL     1      -6.611   5.436 130.649  0.00  0.00    +0.000 N 
ATOM      8  C   UNL     1      -7.835   4.722 130.868  0.00  0.00    +0.000 C 
ATOM      9  C   UNL     1      -8.612   6.056 131.010  0.00  0.00    +0.000 C 
ATOM     10  C   UNL     1      -7.190   6.666 131.105  0.00  0.00    +0.000 C 
ENDROOT
BRANCH   1  14
ATOM     11  C   UNL     1      -2.490   7.156 133.170  0.00  0.00    +0.000 A 
ATOM     12  C   UNL     1      -2.909   8.087 132.233  0.00  0.00    +0.000 A 
ATOM     13  C   UNL     1      -3.578   7.638 131.095  0.00  0.00    +0.000 A 
ATOM     14  C   UNL     1      -3.816   6.271 130.921  0.00  0.00    +0.000 A 
ATOM     15  C   UNL     1      -3.330   5.404 131.884  0.00  0.00    +0.000 A 
ATOM     16  N   UNL     1      -2.668   5.824 132.998  0.00  0.00    +0.000 NA
BRANCH  11  18
ATOM     17  C   UNL     1      -0.373   7.677 134.060  0.00  0.00    +0.000 C 
ATOM     18  O   UNL     1      -1.772   7.504 134.285  0.00  0.00    +0.000 OA
ENDBRANCH  11  18
ENDBRANCH   1  14
BRANCH   9  19
ATOM     19  O   UNL     1      -9.514   6.403 129.910  0.00  0.00    +0.000 OA
BRANCH  19  20
ATOM     20  C   UNL     1     -10.677   7.101 130.197  0.00  0.00    +0.000 A 
ATOM     21  C   UNL     1     -11.420   6.733 131.331  0.00  0.00    +0.000 A 
ATOM     22  C   UNL     1     -12.671   7.325 131.593  0.00  0.00    +0.000 A 
ATOM     23  C   UNL     1     -13.186   8.282 130.726  0.00  0.00    +0.000 A 
ATOM     24  C   UNL     1     -12.456   8.634 129.603  0.00  0.00    +0.000 A 
ATOM     25  F   UNL     1     -12.959   9.556 128.771  0.00  0.00    +0.000 F 
ATOM     26  C   UNL     1     -11.221   8.047 129.317  0.00  0.00    +0.000 A 
ATOM     27  C   UNL     1     -10.538   8.489 128.077  0.00  0.00    +0.000 C 
ENDBRANCH  19  20
ENDBRANCH   9  19
TORSDOF 4
ENDMDL
MODEL 5
REMARK VINA RESULT:      -8.0      7.406      9.109
REMARK  Name = CHEMBL1089391
REMARK  7 active torsions:
REMARK  status: ('A' for Active; 'I' for Inactive)
REMARK    1  A    between atoms: C_1  and  O_2
REMARK    2  A    between atoms: O_2  and  C_3
REMARK    3  A    between atoms: C_6  and  N_7
REMARK    4  A    between atoms: C_8  and  C_9
REMARK    5  A    between atoms: C_15  and  O_16
REMARK    6  A    between atoms: O_16  and  C_17
REMARK    7  A    between atoms: C_23  and  C_24
REMARK                            x       y       z     vdW  Elec       q    Type
REMARK                         _______ _______ _______ _____ _____    ______ ____
ROOT
ATOM      1  N   UNL     1      -4.584   4.043 128.773  0.00  0.00    +0.000 N 
ATOM      2  C   UNL     1      -3.855   4.349 127.621  0.00  0.00    +0.000 A 
ATOM      3  C   UNL     1      -2.425   4.016 127.316  0.00  0.00    +0.000 C 
ATOM      4  N   UNL     1      -4.682   4.858 126.730  0.00  0.00    +0.000 NA
ATOM      5  N   UNL     1      -5.964   4.837 127.246  0.00  0.00    +0.000 NA
ATOM      6  C   UNL     1      -5.924   4.339 128.453  0.00  0.00    +0.000 A 
ATOM      7  N   UNL     1      -6.931   4.101 129.367  0.00  0.00    +0.000 N 
ATOM      8  C   UNL     1      -8.338   3.937 129.151  0.00  0.00    +0.000 C 
ATOM      9  C   UNL     1      -8.644   5.116 130.110  0.00  0.00    +0.000 C 
ATOM     10  C   UNL     1      -7.154   4.947 130.503  0.00  0.00    +0.000 C 
ENDROOT
BRANCH   1  14
ATOM     11  C   UNL     1      -3.450   2.371 132.421  0.00  0.00    +0.000 A 
ATOM     12  C   UNL     1      -4.029   1.552 131.465  0.00  0.00    +0.000 A 
ATOM     13  C   UNL     1      -4.378   2.104 130.233  0.00  0.00    +0.000 A 
ATOM     14  C   UNL     1      -4.139   3.459 129.984  0.00  0.00    +0.000 A 
ATOM     15  C   UNL     1      -3.594   4.216 131.006  0.00  0.00    +0.000 A 
ATOM     16  N   UNL     1      -3.254   3.697 132.218  0.00  0.00    +0.000 NA
BRANCH  11  18
ATOM     17  C   UNL     1      -3.851   2.568 134.734  0.00  0.00    +0.000 C 
ATOM     18  O   UNL     1      -3.134   1.927 133.680  0.00  0.00    +0.000 OA
ENDBRANCH  11  18
ENDBRANCH   1  14
BRANCH   9  19
ATOM     19  O   UNL     1      -9.129   6.350 129.489  0.00  0.00    +0.000 OA
BRANCH  19  20
ATOM     20  C   UNL     1     -10.304   6.917 129.961  0.00  0.00    +0.000 A 
ATOM     21  C   UNL     1     -10.871   6.404 131.140  0.00  0.00    +0.000 A 
ATOM     22  C   UNL     1     -12.126   6.859 131.589  0.00  0.00    +0.000 A 
ATOM     23  C   UNL     1     -12.820   7.822 130.865  0.00  0.00    +0.000 A 
ATOM     24  C   UNL     1     -12.263   8.316 129.699  0.00  0.00    +0.000 A 
ATOM     25  F   UNL     1     -12.937   9.244 129.005  0.00  0.00    +0.000 F 
ATOM     26  C   UNL     1     -11.026   7.867 129.228  0.00  0.00    +0.000 A 
ATOM     27  C   UNL     1     -10.537   8.455 127.956  0.00  0.00    +0.000 C 
ENDBRANCH  19  20
ENDBRANCH   9  19
TORSDOF 4
ENDMDL
MODEL 6
REMARK VINA RESULT:      -8.0      5.148      7.742
REMARK  Name = CHEMBL1089391
REMARK  7 active torsions:
REMARK  status: ('A' for Active; 'I' for Inactive)
REMARK    1  A    between atoms: C_1  and  O_2
REMARK    2  A    between atoms: O_2  and  C_3
REMARK    3  A    between atoms: C_6  and  N_7
REMARK    4  A    between atoms: C_8  and  C_9
REMARK    5  A    between atoms: C_15  and  O_16
REMARK    6  A    between atoms: O_16  and  C_17
REMARK    7  A    between atoms: C_23  and  C_24
REMARK                            x       y       z     vdW  Elec       q    Type
REMARK                         _______ _______ _______ _____ _____    ______ ____
ROOT
ATOM      1  N   UNL     1      -6.452   3.174 122.929  0.00  0.00    +0.000 N 
ATOM      2  C   UNL     1      -5.931   3.827 121.810  0.00  0.00    +0.000 A 
ATOM      3  C   UNL     1      -6.268   3.601 120.366  0.00  0.00    +0.000 C 
ATOM      4  N   UNL     1      -5.179   4.827 122.226  0.00  0.00    +0.000 NA
ATOM      5  N   UNL     1      -5.244   4.891 123.605  0.00  0.00    +0.000 NA
ATOM      6  C   UNL     1      -6.011   3.925 124.036  0.00  0.00    +0.000 A 
ATOM      7  N   UNL     1      -6.395   3.578 125.316  0.00  0.00    +0.000 N 
ATOM      8  C   UNL     1      -6.420   4.374 126.508  0.00  0.00    +0.000 C 
ATOM      9  C   UNL     1      -5.480   3.369 127.223  0.00  0.00    +0.000 C 
ATOM     10  C   UNL     1      -5.825   2.462 126.014  0.00  0.00    +0.000 C 
ENDROOT
BRANCH   1  14
ATOM     11  C   UNL     1      -9.026  -0.086 123.303  0.00  0.00    +0.000 A 
ATOM     12  C   UNL     1      -9.572   1.179 123.156  0.00  0.00    +0.000 A 
ATOM     13  C   UNL     1      -8.712   2.265 122.998  0.00  0.00    +0.000 A 
ATOM     14  C   UNL     1      -7.328   2.063 122.988  0.00  0.00    +0.000 A 
ATOM     15  C   UNL     1      -6.864   0.773 123.181  0.00  0.00    +0.000 A 
ATOM     16  N   UNL     1      -7.688  -0.298 123.344  0.00  0.00    +0.000 NA
BRANCH  11  18
ATOM     17  C   UNL     1      -9.117  -2.440 123.326  0.00  0.00    +0.000 C 
ATOM     18  O   UNL     1      -9.794  -1.200 123.527  0.00  0.00    +0.000 OA
ENDBRANCH  11  18
ENDBRANCH   1  14
BRANCH   9  19
ATOM     19  O   UNL     1      -4.109   3.821 127.466  0.00  0.00    +0.000 OA
BRANCH  19  20
ATOM     20  C   UNL     1      -3.682   3.979 128.776  0.00  0.00    +0.000 A 
ATOM     21  C   UNL     1      -4.156   3.085 129.751  0.00  0.00    +0.000 A 
ATOM     22  C   UNL     1      -3.853   3.282 131.112  0.00  0.00    +0.000 A 
ATOM     23  C   UNL     1      -3.081   4.369 131.507  0.00  0.00    +0.000 A 
ATOM     24  C   UNL     1      -2.626   5.253 130.544  0.00  0.00    +0.000 A 
ATOM     25  F   UNL     1      -1.882   6.300 130.931  0.00  0.00    +0.000 F 
ATOM     26  C   UNL     1      -2.928   5.085 129.190  0.00  0.00    +0.000 A 
ATOM     27  C   UNL     1      -2.401   6.106 128.252  0.00  0.00    +0.000 C 
ENDBRANCH  19  20
ENDBRANCH   9  19
TORSDOF 4
ENDMDL
MODEL 7
REMARK VINA RESULT:      -8.0      6.671      8.321
REMARK  Name = CHEMBL1089391
REMARK  7 active torsions:
REMARK  status: ('A' for Active; 'I' for Inactive)
REMARK    1  A    between atoms: C_1  and  O_2
REMARK    2  A    between atoms: O_2  and  C_3
REMARK    3  A    between atoms: C_6  and  N_7
REMARK    4  A    between atoms: C_8  and  C_9
REMARK    5  A    between atoms: C_15  and  O_16
REMARK    6  A    between atoms: O_16  and  C_17
REMARK    7  A    between atoms: C_23  and  C_24
REMARK                            x       y       z     vdW  Elec       q    Type
REMARK                         _______ _______ _______ _____ _____    ______ ____
ROOT
ATOM      1  N   UNL     1      -6.896   2.547 127.221  0.00  0.00    +0.000 N 
ATOM      2  C   UNL     1      -7.232   1.632 126.220  0.00  0.00    +0.000 A 
ATOM      3  C   UNL     1      -6.328   0.994 125.209  0.00  0.00    +0.000 C 
ATOM      4  N   UNL     1      -8.487   1.269 126.395  0.00  0.00    +0.000 NA
ATOM      5  N   UNL     1      -8.974   1.878 127.537  0.00  0.00    +0.000 NA
ATOM      6  C   UNL     1      -8.034   2.627 128.048  0.00  0.00    +0.000 A 
ATOM      7  N   UNL     1      -8.023   3.417 129.180  0.00  0.00    +0.000 N 
ATOM      8  C   UNL     1      -8.857   3.354 130.344  0.00  0.00    +0.000 C 
ATOM      9  C   UNL     1      -9.311   4.820 130.123  0.00  0.00    +0.000 C 
ATOM     10  C   UNL     1      -8.128   4.846 129.121  0.00  0.00    +0.000 C 
ENDROOT
BRANCH   1  14
ATOM     11  C   UNL     1      -3.345   4.560 128.076  0.00  0.00    +0.000 A 
ATOM     12  C   UNL     1      -3.578   3.335 128.681  0.00  0.00    +0.000 A 
ATOM     13  C   UNL     1      -4.750   2.647 128.371  0.00  0.00    +0.000 A 
ATOM     14  C   UNL     1      -5.660   3.195 127.462  0.00  0.00    +0.000 A 
ATOM     15  C   UNL     1      -5.371   4.440 126.932  0.00  0.00    +0.000 A 
ATOM     16  N   UNL     1      -4.235   5.131 127.229  0.00  0.00    +0.000 NA
BRANCH  11  18
ATOM     17  C   UNL     1      -2.471   6.739 128.271  0.00  0.00    +0.000 C 
ATOM     18  O   UNL     1      -2.251   5.332 128.371  0.00  0.00    +0.000 OA
ENDBRANCH  11  18
ENDBRANCH   1  14
BRANCH   9  19
ATOM     19  O   UNL     1     -10.691   5.013 129.672  0.00  0.00    +0.000 OA
BRANCH  19  20
ATOM     20  C   UNL     1     -11.324   6.214 129.958  0.00  0.00    +0.000 A 
ATOM     21  C   UNL     1     -12.020   6.335 131.172  0.00  0.00    +0.000 A 
ATOM     22  C   UNL     1     -12.782   7.487 131.449  0.00  0.00    +0.000 A 
ATOM     23  C   UNL     1     -12.857   8.517 130.518  0.00  0.00    +0.000 A 
ATOM     24  C   UNL     1     -12.179   8.388 129.319  0.00  0.00    +0.000 A 
ATOM     25  F   UNL     1     -12.255   9.384 128.425  0.00  0.00    +0.000 F 
ATOM     26  C   UNL     1     -11.429   7.247 129.017  0.00  0.00    +0.000 A 
ATOM     27  C   UNL     1     -10.761   7.213 127.693  0.00  0.00    +0.000 C 
ENDBRANCH  19  20
ENDBRANCH   9  19
TORSDOF 4
ENDMDL
MODEL 8
REMARK VINA RESULT:      -7.6      6.783     10.091
REMARK  Name = CHEMBL1089391
REMARK  7 active torsions:
REMARK  status: ('A' for Active; 'I' for Inactive)
REMARK    1  A    between atoms: C_1  and  O_2
REMARK    2  A    between atoms: O_2  and  C_3
REMARK    3  A    between atoms: C_6  and  N_7
REMARK    4  A    between atoms: C_8  and  C_9
REMARK    5  A    between atoms: C_15  and  O_16
REMARK    6  A    between atoms: O_16  and  C_17
REMARK    7  A    between atoms: C_23  and  C_24
REMARK                            x       y       z     vdW  Elec       q    Type
REMARK                         _______ _______ _______ _____ _____    ______ ____
ROOT
ATOM      1  N   UNL     1      -7.291   4.694 130.995  0.00  0.00    +0.000 N 
ATOM      2  C   UNL     1      -6.136   5.471 130.878  0.00  0.00    +0.000 A 
ATOM      3  C   UNL     1      -6.001   6.956 131.035  0.00  0.00    +0.000 C 
ATOM      4  N   UNL     1      -5.103   4.662 130.759  0.00  0.00    +0.000 NA
ATOM      5  N   UNL     1      -5.543   3.355 130.860  0.00  0.00    +0.000 NA
ATOM      6  C   UNL     1      -6.840   3.359 131.019  0.00  0.00    +0.000 A 
ATOM      7  N   UNL     1      -7.734   2.320 131.179  0.00  0.00    +0.000 N 
ATOM      8  C   UNL     1      -7.502   0.978 131.625  0.00  0.00    +0.000 C 
ATOM      9  C   UNL     1      -8.095   0.415 130.307  0.00  0.00    +0.000 C 
ATOM     10  C   UNL     1      -8.591   1.873 130.120  0.00  0.00    +0.000 C 
ENDROOT
BRANCH   1  14
ATOM     11  C   UNL     1     -11.186   6.104 131.482  0.00  0.00    +0.000 A 
ATOM     12  C   UNL     1     -10.770   5.721 130.217  0.00  0.00    +0.000 A 
ATOM     13  C   UNL     1      -9.479   5.219 130.060  0.00  0.00    +0.000 A 
ATOM     14  C   UNL     1      -8.634   5.108 131.168  0.00  0.00    +0.000 A 
ATOM     15  C   UNL     1      -9.113   5.550 132.389  0.00  0.00    +0.000 A 
ATOM     16  N   UNL     1     -10.368   6.050 132.561  0.00  0.00    +0.000 NA
BRANCH  11  18
ATOM     17  C   UNL     1     -12.811   7.649 130.760  0.00  0.00    +0.000 C 
ATOM     18  O   UNL     1     -12.414   6.666 131.716  0.00  0.00    +0.000 OA
ENDBRANCH  11  18
ENDBRANCH   1  14
BRANCH   9  19
ATOM     19  O   UNL     1      -7.144  -0.188 129.372  0.00  0.00    +0.000 OA
BRANCH  19  20
ATOM     20  C   UNL     1      -7.622  -1.068 128.411  0.00  0.00    +0.000 A 
ATOM     21  C   UNL     1      -7.982  -0.559 127.152  0.00  0.00    +0.000 A 
ATOM     22  C   UNL     1      -8.589  -1.389 126.191  0.00  0.00    +0.000 A 
ATOM     23  C   UNL     1      -8.843  -2.725 126.480  0.00  0.00    +0.000 A 
ATOM     24  C   UNL     1      -8.497  -3.220 127.725  0.00  0.00    +0.000 A 
ATOM     25  F   UNL     1      -8.745  -4.508 127.998  0.00  0.00    +0.000 F 
ATOM     26  C   UNL     1      -7.907  -2.409 128.700  0.00  0.00    +0.000 A 
ATOM     27  C   UNL     1      -7.597  -3.044 130.004  0.00  0.00    +0.000 C 
ENDBRANCH  19  20
ENDBRANCH   9  19
TORSDOF 4
ENDMDL
MODEL 9
REMARK VINA RESULT:      -7.4      7.492      9.773
REMARK  Name = CHEMBL1089391
REMARK  7 active torsions:
REMARK  status: ('A' for Active; 'I' for Inactive)
REMARK    1  A    between atoms: C_1  and  O_2
REMARK    2  A    between atoms: O_2  and  C_3
REMARK    3  A    between atoms: C_6  and  N_7
REMARK    4  A    between atoms: C_8  and  C_9
REMARK    5  A    between atoms: C_15  and  O_16
REMARK    6  A    between atoms: O_16  and  C_17
REMARK    7  A    between atoms: C_23  and  C_24
REMARK                            x       y       z     vdW  Elec       q    Type
REMARK                         _______ _______ _______ _____ _____    ______ ____
ROOT
ATOM      1  N   UNL     1      -8.390   3.854 131.534  0.00  0.00    +0.000 N 
ATOM      2  C   UNL     1      -8.299   3.495 132.881  0.00  0.00    +0.000 A 
ATOM      3  C   UNL     1      -9.257   3.812 133.989  0.00  0.00    +0.000 C 
ATOM      4  N   UNL     1      -7.284   2.665 133.021  0.00  0.00    +0.000 NA
ATOM      5  N   UNL     1      -6.737   2.413 131.777  0.00  0.00    +0.000 NA
ATOM      6  C   UNL     1      -7.395   3.100 130.881  0.00  0.00    +0.000 A 
ATOM      7  N   UNL     1      -7.243   3.178 129.511  0.00  0.00    +0.000 N 
ATOM      8  C   UNL     1      -6.617   2.256 128.609  0.00  0.00    +0.000 C 
ATOM      9  C   UNL     1      -5.646   3.362 128.120  0.00  0.00    +0.000 C 
ATOM     10  C   UNL     1      -6.626   4.302 128.869  0.00  0.00    +0.000 C 
ENDROOT
BRANCH   1  14
ATOM     11  C   UNL     1     -11.253   6.361 129.828  0.00  0.00    +0.000 A 
ATOM     12  C   UNL     1     -10.087   6.923 130.324  0.00  0.00    +0.000 A 
ATOM     13  C   UNL     1      -9.116   6.081 130.865  0.00  0.00    +0.000 A 
ATOM     14  C   UNL     1      -9.329   4.700 130.896  0.00  0.00    +0.000 A 
ATOM     15  C   UNL     1     -10.537   4.223 130.416  0.00  0.00    +0.000 A 
ATOM     16  N   UNL     1     -11.500   5.030 129.891  0.00  0.00    +0.000 NA
BRANCH  11  18
ATOM     17  C   UNL     1     -12.086   8.527 129.429  0.00  0.00    +0.000 C 
ATOM     18  O   UNL     1     -12.286   7.117 129.337  0.00  0.00    +0.000 OA
ENDBRANCH  11  18
ENDBRANCH   1  14
BRANCH   9  19
ATOM     19  O   UNL     1      -4.250   3.233 128.540  0.00  0.00    +0.000 OA
BRANCH  19  20
ATOM     20  C   UNL     1      -3.556   4.376 128.908  0.00  0.00    +0.000 A 
ATOM     21  C   UNL     1      -3.141   5.265 127.902  0.00  0.00    +0.000 A 
ATOM     22  C   UNL     1      -2.327   6.371 128.214  0.00  0.00    +0.000 A 
ATOM     23  C   UNL     1      -1.920   6.593 129.524  0.00  0.00    +0.000 A 
ATOM     24  C   UNL     1      -2.322   5.708 130.510  0.00  0.00    +0.000 A 
ATOM     25  F   UNL     1      -1.926   5.928 131.772  0.00  0.00    +0.000 F 
ATOM     26  C   UNL     1      -3.117   4.597 130.221  0.00  0.00    +0.000 A 
ATOM     27  C   UNL     1      -3.470   3.708 131.355  0.00  0.00    +0.000 C 
ENDBRANCH  19  20
ENDBRANCH   9  19
TORSDOF 4
ENDMDL
