MODEL 1
REMARK VINA RESULT:     -10.7      0.000      0.000
REMARK  Name = CHEMBL66240
REMARK  10 active torsions:
REMARK  status: ('A' for Active; 'I' for Inactive)
REMARK    1  A    between atoms: C_1  and  C_2
REMARK    2  A    between atoms: C_2  and  C_3
REMARK    3  A    between atoms: C_4  and  C_5
REMARK    4  A    between atoms: C_5  and  N_6
REMARK    5  A    between atoms: C_9  and  O_10
REMARK    6  A    between atoms: O_10  and  C_11
REMARK    7  A    between atoms: C_14  and  C_15
REMARK    8  A    between atoms: C_20  and  N_21
REMARK    9  A    between atoms: C_34  and  O_35
REMARK   10  A    between atoms: O_35  and  C_36
REMARK                            x       y       z     vdW  Elec       q    Type
REMARK                         _______ _______ _______ _____ _____    ______ ____
ROOT
ATOM      1  C   UNL     1      -8.202  -1.609 127.192  0.00  0.00    +0.000 A 
ATOM      2  C   UNL     1      -8.263  -0.234 127.032  0.00  0.00    +0.000 A 
ATOM      3  C   UNL     1      -7.712   0.618 128.028  0.00  0.00    +0.000 A 
ATOM      4  C   UNL     1      -7.200   0.108 129.253  0.00  0.00    +0.000 A 
ATOM      5  C   UNL     1      -7.161  -1.275 129.374  0.00  0.00    +0.000 A 
ATOM      6  C   UNL     1      -7.581  -2.078 128.329  0.00  0.00    +0.000 A 
ENDROOT
BRANCH   4   7
ATOM      7  C   UNL     1      -6.847   1.044 130.401  0.00  0.00    +0.000 C 
ATOM      8  O   UNL     1      -5.739   0.898 130.924  0.00  0.00    +0.000 OA
ATOM      9  N   UNL     1      -7.692   2.126 130.770  0.00  0.00    +0.000 N 
ATOM     10  C   UNL     1      -7.229   3.507 130.613  0.00  0.00    +0.000 C 
ATOM     11  C   UNL     1      -7.607   4.369 131.806  0.00  0.00    +0.000 C 
ATOM     12  C   UNL     1      -9.334   4.624 131.784  0.00  0.00    +0.000 C 
ATOM     13  C   UNL     1      -9.572   2.943 132.184  0.00  0.00    +0.000 C 
ATOM     14  C   UNL     1      -9.118   2.006 131.090  0.00  0.00    +0.000 C 
BRANCH  12  15
ATOM     15  N   UNL     1      -9.847   6.027 130.678  0.00  0.00    +0.000 N 
ATOM     16  C   UNL     1     -10.749   6.283 131.764  0.00  0.00    +0.000 C 
ATOM     17  O   UNL     1     -10.475   6.464 132.993  0.00  0.00    +0.000 OA
ATOM     18  O   UNL     1     -12.030   6.104 131.517  0.00  0.00    +0.000 OA
ATOM     19  C   UNL     1     -12.294   7.420 131.215  0.00  0.00    +0.000 C 
ATOM     20  C   UNL     1     -12.190   7.113 129.795  0.00  0.00    +0.000 A 
ATOM     21  C   UNL     1     -13.396   7.058 129.011  0.00  0.00    +0.000 A 
ATOM     22  C   UNL     1     -13.478   7.335 127.669  0.00  0.00    +0.000 A 
ATOM     23  C   UNL     1     -12.352   7.979 127.254  0.00  0.00    +0.000 A 
ATOM     24  C   UNL     1     -11.040   7.751 128.107  0.00  0.00    +0.000 A 
ATOM     25  C   UNL     1     -10.917   6.780 129.356  0.00  0.00    +0.000 A 
ENDBRANCH  12  15
ENDBRANCH   4   7
BRANCH   5  26
ATOM     26  O   UNL     1      -6.732  -1.846 130.515  0.00  0.00    +0.000 OA
ATOM     27  C   UNL     1      -6.864  -3.229 130.783  0.00  0.00    +0.000 C 
ENDBRANCH   5  26
BRANCH   1  28
ATOM     28  O   UNL     1      -8.553  -2.463 126.182  0.00  0.00    +0.000 OA
BRANCH  28  32
ATOM     29  N   UNL     1      -6.778  -0.820 123.591  0.00  0.00    +0.000 NA
ATOM     30  C   UNL     1      -6.246  -0.842 124.940  0.00  0.00    +0.000 C 
ATOM     31  C   UNL     1      -6.128  -2.276 125.398  0.00  0.00    +0.000 C 
ATOM     32  C   UNL     1      -7.489  -2.993 125.342  0.00  0.00    +0.000 C 
ATOM     33  C   UNL     1      -7.976  -2.959 123.878  0.00  0.00    +0.000 C 
ATOM     34  C   UNL     1      -8.033  -1.548 123.336  0.00  0.00    +0.000 C 
BRANCH  29  35
ATOM     35  C   UNL     1      -6.863   0.547 123.114  0.00  0.00    +0.000 C 
BRANCH  35  37
ATOM     36  C   UNL     1      -8.014   2.448 124.351  0.00  0.00    +0.000 A 
ATOM     37  C   UNL     1      -6.890   1.628 124.186  0.00  0.00    +0.000 A 
ATOM     38  C   UNL     1      -5.802   1.861 125.049  0.00  0.00    +0.000 A 
ATOM     39  C   UNL     1      -5.756   2.841 126.002  0.00  0.00    +0.000 A 
ATOM     40  C   UNL     1      -6.844   3.666 126.091  0.00  0.00    +0.000 A 
ATOM     41  N   UNL     1      -7.973   3.498 125.287  0.00  0.00    +0.000 N 
ATOM     42  O   UNL     1      -8.939   4.312 125.429  0.00  0.00    +0.000 OA
BRANCH  36  44
ATOM     43  C   UNL     1     -10.273   1.319 124.342  0.00  0.00    +0.000 C 
ATOM     44  C   UNL     1      -9.288   2.207 123.577  0.00  0.00    +0.000 C 
ENDBRANCH  36  44
ENDBRANCH  35  37
ENDBRANCH  29  35
ENDBRANCH  28  32
ENDBRANCH   1  28
TORSDOF 8
ENDMDL
MODEL 2
REMARK VINA RESULT:     -10.5      0.990      2.151
REMARK  Name = CHEMBL66240
REMARK  10 active torsions:
REMARK  status: ('A' for Active; 'I' for Inactive)
REMARK    1  A    between atoms: C_1  and  C_2
REMARK    2  A    between atoms: C_2  and  C_3
REMARK    3  A    between atoms: C_4  and  C_5
REMARK    4  A    between atoms: C_5  and  N_6
REMARK    5  A    between atoms: C_9  and  O_10
REMARK    6  A    between atoms: O_10  and  C_11
REMARK    7  A    between atoms: C_14  and  C_15
REMARK    8  A    between atoms: C_20  and  N_21
REMARK    9  A    between atoms: C_34  and  O_35
REMARK   10  A    between atoms: O_35  and  C_36
REMARK                            x       y       z     vdW  Elec       q    Type
REMARK                         _______ _______ _______ _____ _____    ______ ____
ROOT
ATOM      1  C   UNL     1      -7.756  -1.840 127.556  0.00  0.00    +0.000 A 
ATOM      2  C   UNL     1      -7.495  -2.278 128.844  0.00  0.00    +0.000 A 
ATOM      3  C   UNL     1      -7.360  -1.333 129.897  0.00  0.00    +0.000 A 
ATOM      4  C   UNL     1      -7.365   0.068 129.654  0.00  0.00    +0.000 A 
ATOM      5  C   UNL     1      -7.626   0.464 128.349  0.00  0.00    +0.000 A 
ATOM      6  C   UNL     1      -7.887  -0.481 127.374  0.00  0.00    +0.000 A 
ENDROOT
BRANCH   4   7
ATOM      7  C   UNL     1      -6.972   1.051 130.749  0.00  0.00    +0.000 C 
ATOM      8  O   UNL     1      -5.877   0.877 131.292  0.00  0.00    +0.000 OA
ATOM      9  N   UNL     1      -7.760   2.197 131.045  0.00  0.00    +0.000 N 
ATOM     10  C   UNL     1      -7.221   3.539 130.812  0.00  0.00    +0.000 C 
ATOM     11  C   UNL     1      -7.562   4.490 131.948  0.00  0.00    +0.000 C 
ATOM     12  C   UNL     1      -9.272   4.835 131.891  0.00  0.00    +0.000 C 
ATOM     13  C   UNL     1      -9.604   3.195 132.387  0.00  0.00    +0.000 C 
ATOM     14  C   UNL     1      -9.193   2.172 131.356  0.00  0.00    +0.000 C 
BRANCH  12  15
ATOM     15  N   UNL     1      -9.700   6.194 130.700  0.00  0.00    +0.000 N 
ATOM     16  C   UNL     1     -10.809   6.352 131.595  0.00  0.00    +0.000 C 
ATOM     17  O   UNL     1     -10.790   6.544 132.853  0.00  0.00    +0.000 OA
ATOM     18  O   UNL     1     -11.999   6.056 131.114  0.00  0.00    +0.000 OA
ATOM     19  C   UNL     1     -12.326   7.344 130.759  0.00  0.00    +0.000 C 
ATOM     20  C   UNL     1     -11.929   7.064 129.385  0.00  0.00    +0.000 A 
ATOM     21  C   UNL     1     -12.956   6.903 128.390  0.00  0.00    +0.000 A 
ATOM     22  C   UNL     1     -12.811   7.187 127.054  0.00  0.00    +0.000 A 
ATOM     23  C   UNL     1     -11.694   7.939 126.853  0.00  0.00    +0.000 A 
ATOM     24  C   UNL     1     -10.549   7.827 127.939  0.00  0.00    +0.000 A 
ATOM     25  C   UNL     1     -10.570   6.858 129.196  0.00  0.00    +0.000 A 
ENDBRANCH  12  15
ENDBRANCH   4   7
BRANCH   5  26
ATOM     26  O   UNL     1      -7.608   1.768 128.017  0.00  0.00    +0.000 OA
ATOM     27  C   UNL     1      -6.536   2.373 127.322  0.00  0.00    +0.000 C 
ENDBRANCH   5  26
BRANCH   1  28
ATOM     28  O   UNL     1      -8.072  -2.716 126.553  0.00  0.00    +0.000 OA
BRANCH  28  32
ATOM     29  N   UNL     1      -6.555  -1.523 123.580  0.00  0.00    +0.000 NA
ATOM     30  C   UNL     1      -5.991  -1.186 124.873  0.00  0.00    +0.000 C 
ATOM     31  C   UNL     1      -5.703  -2.460 125.630  0.00  0.00    +0.000 C 
ATOM     32  C   UNL     1      -6.976  -3.308 125.800  0.00  0.00    +0.000 C 
ATOM     33  C   UNL     1      -7.499  -3.655 124.390  0.00  0.00    +0.000 C 
ATOM     34  C   UNL     1      -7.727  -2.416 123.554  0.00  0.00    +0.000 C 
BRANCH  29  35
ATOM     35  C   UNL     1      -6.805  -0.314 122.818  0.00  0.00    +0.000 C 
BRANCH  35  37
ATOM     36  C   UNL     1      -7.787   1.824 123.783  0.00  0.00    +0.000 A 
ATOM     37  C   UNL     1      -7.984   0.533 123.275  0.00  0.00    +0.000 A 
ATOM     38  C   UNL     1      -9.312   0.068 123.219  0.00  0.00    +0.000 A 
ATOM     39  C   UNL     1     -10.405   0.770 123.651  0.00  0.00    +0.000 A 
ATOM     40  C   UNL     1     -10.169   1.999 124.202  0.00  0.00    +0.000 A 
ATOM     41  N   UNL     1      -8.886   2.545 124.284  0.00  0.00    +0.000 N 
ATOM     42  O   UNL     1      -8.753   3.692 124.817  0.00  0.00    +0.000 OA
BRANCH  36  44
ATOM     43  C   UNL     1      -6.207   3.336 122.519  0.00  0.00    +0.000 C 
ATOM     44  C   UNL     1      -6.427   2.479 123.769  0.00  0.00    +0.000 C 
ENDBRANCH  36  44
ENDBRANCH  35  37
ENDBRANCH  29  35
ENDBRANCH  28  32
ENDBRANCH   1  28
TORSDOF 8
ENDMDL
MODEL 3
REMARK VINA RESULT:     -10.5      1.772      2.235
REMARK  Name = CHEMBL66240
REMARK  10 active torsions:
REMARK  status: ('A' for Active; 'I' for Inactive)
REMARK    1  A    between atoms: C_1  and  C_2
REMARK    2  A    between atoms: C_2  and  C_3
REMARK    3  A    between atoms: C_4  and  C_5
REMARK    4  A    between atoms: C_5  and  N_6
REMARK    5  A    between atoms: C_9  and  O_10
REMARK    6  A    between atoms: O_10  and  C_11
REMARK    7  A    between atoms: C_14  and  C_15
REMARK    8  A    between atoms: C_20  and  N_21
REMARK    9  A    between atoms: C_34  and  O_35
REMARK   10  A    between atoms: O_35  and  C_36
REMARK                            x       y       z     vdW  Elec       q    Type
REMARK                         _______ _______ _______ _____ _____    ______ ____
ROOT
ATOM      1  C   UNL     1      -5.532  -0.073 126.768  0.00  0.00    +0.000 A 
ATOM      2  C   UNL     1      -5.293   1.291 126.725  0.00  0.00    +0.000 A 
ATOM      3  C   UNL     1      -5.106   2.015 127.933  0.00  0.00    +0.000 A 
ATOM      4  C   UNL     1      -5.274   1.405 129.207  0.00  0.00    +0.000 A 
ATOM      5  C   UNL     1      -5.517   0.037 129.207  0.00  0.00    +0.000 A 
ATOM      6  C   UNL     1      -5.559  -0.662 128.014  0.00  0.00    +0.000 A 
ENDROOT
BRANCH   4   7
ATOM      7  C   UNL     1      -5.316   2.247 130.476  0.00  0.00    +0.000 C 
ATOM      8  O   UNL     1      -4.286   2.289 131.155  0.00  0.00    +0.000 OA
ATOM      9  N   UNL     1      -6.438   3.058 130.800  0.00  0.00    +0.000 N 
ATOM     10  C   UNL     1      -6.303   4.515 130.842  0.00  0.00    +0.000 C 
ATOM     11  C   UNL     1      -7.036   5.116 132.031  0.00  0.00    +0.000 C 
ATOM     12  C   UNL     1      -8.753   4.978 131.754  0.00  0.00    +0.000 C 
ATOM     13  C   UNL     1      -8.632   3.250 131.960  0.00  0.00    +0.000 C 
ATOM     14  C   UNL     1      -7.823   2.581 130.875  0.00  0.00    +0.000 C 
BRANCH  12  15
ATOM     15  N   UNL     1      -9.434   6.356 130.710  0.00  0.00    +0.000 N 
ATOM     16  C   UNL     1     -10.470   6.321 131.701  0.00  0.00    +0.000 C 
ATOM     17  O   UNL     1     -10.360   6.429 132.964  0.00  0.00    +0.000 OA
ATOM     18  O   UNL     1     -11.657   5.920 131.296  0.00  0.00    +0.000 OA
ATOM     19  C   UNL     1     -12.156   7.182 131.069  0.00  0.00    +0.000 C 
ATOM     20  C   UNL     1     -11.854   7.045 129.651  0.00  0.00    +0.000 A 
ATOM     21  C   UNL     1     -12.941   6.832 128.731  0.00  0.00    +0.000 A 
ATOM     22  C   UNL     1     -12.948   7.220 127.415  0.00  0.00    +0.000 A 
ATOM     23  C   UNL     1     -11.944   8.110 127.183  0.00  0.00    +0.000 A 
ATOM     24  C   UNL     1     -10.702   8.060 128.161  0.00  0.00    +0.000 A 
ATOM     25  C   UNL     1     -10.503   7.012 129.336  0.00  0.00    +0.000 A 
ENDBRANCH  12  15
ENDBRANCH   4   7
BRANCH   5  26
ATOM     26  O   UNL     1      -5.733  -0.616 130.363  0.00  0.00    +0.000 OA
ATOM     27  C   UNL     1      -6.996  -1.134 130.733  0.00  0.00    +0.000 C 
ENDBRANCH   5  26
BRANCH   1  28
ATOM     28  O   UNL     1      -5.537  -0.835 125.632  0.00  0.00    +0.000 OA
BRANCH  28  32
ATOM     29  N   UNL     1      -8.312   0.401 123.805  0.00  0.00    +0.000 NA
ATOM     30  C   UNL     1      -7.260  -0.332 123.127  0.00  0.00    +0.000 C 
ATOM     31  C   UNL     1      -7.095  -1.679 123.790  0.00  0.00    +0.000 C 
ATOM     32  C   UNL     1      -6.770  -1.528 125.287  0.00  0.00    +0.000 C 
ATOM     33  C   UNL     1      -7.943  -0.772 125.946  0.00  0.00    +0.000 C 
ATOM     34  C   UNL     1      -8.210   0.554 125.267  0.00  0.00    +0.000 C 
BRANCH  29  35
ATOM     35  C   UNL     1      -8.515   1.684 123.160  0.00  0.00    +0.000 C 
BRANCH  35  37
ATOM     36  C   UNL     1      -6.620   3.378 123.073  0.00  0.00    +0.000 A 
ATOM     37  C   UNL     1      -7.736   2.855 123.741  0.00  0.00    +0.000 A 
ATOM     38  C   UNL     1      -8.085   3.460 124.964  0.00  0.00    +0.000 A 
ATOM     39  C   UNL     1      -7.399   4.488 125.551  0.00  0.00    +0.000 A 
ATOM     40  C   UNL     1      -6.278   4.929 124.905  0.00  0.00    +0.000 A 
ATOM     41  N   UNL     1      -5.866   4.398 123.680  0.00  0.00    +0.000 N 
ATOM     42  O   UNL     1      -4.808   4.861 123.149  0.00  0.00    +0.000 OA
BRANCH  36  44
ATOM     43  C   UNL     1      -6.778   3.809 120.589  0.00  0.00    +0.000 C 
ATOM     44  C   UNL     1      -6.231   2.901 121.695  0.00  0.00    +0.000 C 
ENDBRANCH  36  44
ENDBRANCH  35  37
ENDBRANCH  29  35
ENDBRANCH  28  32
ENDBRANCH   1  28
TORSDOF 8
ENDMDL
MODEL 4
REMARK VINA RESULT:     -10.3      3.515      8.615
REMARK  Name = CHEMBL66240
REMARK  10 active torsions:
REMARK  status: ('A' for Active; 'I' for Inactive)
REMARK    1  A    between atoms: C_1  and  C_2
REMARK    2  A    between atoms: C_2  and  C_3
REMARK    3  A    between atoms: C_4  and  C_5
REMARK    4  A    between atoms: C_5  and  N_6
REMARK    5  A    between atoms: C_9  and  O_10
REMARK    6  A    between atoms: O_10  and  C_11
REMARK    7  A    between atoms: C_14  and  C_15
REMARK    8  A    between atoms: C_20  and  N_21
REMARK    9  A    between atoms: C_34  and  O_35
REMARK   10  A    between atoms: O_35  and  C_36
REMARK                            x       y       z     vdW  Elec       q    Type
REMARK                         _______ _______ _______ _____ _____    ______ ____
ROOT
ATOM      1  C   UNL     1      -4.857   2.823 131.482  0.00  0.00    +0.000 A 
ATOM      2  C   UNL     1      -4.161   2.325 130.393  0.00  0.00    +0.000 A 
ATOM      3  C   UNL     1      -4.112   3.072 129.185  0.00  0.00    +0.000 A 
ATOM      4  C   UNL     1      -4.859   4.270 129.012  0.00  0.00    +0.000 A 
ATOM      5  C   UNL     1      -5.546   4.732 130.127  0.00  0.00    +0.000 A 
ATOM      6  C   UNL     1      -5.462   4.052 131.328  0.00  0.00    +0.000 A 
ENDROOT
BRANCH   4   7
ATOM      7  C   UNL     1      -4.990   4.916 127.638  0.00  0.00    +0.000 C 
ATOM      8  O   UNL     1      -4.304   5.919 127.422  0.00  0.00    +0.000 OA
ATOM      9  N   UNL     1      -5.762   4.321 126.603  0.00  0.00    +0.000 N 
ATOM     10  C   UNL     1      -5.108   3.839 125.384  0.00  0.00    +0.000 C 
ATOM     11  C   UNL     1      -5.904   4.193 124.138  0.00  0.00    +0.000 C 
ATOM     12  C   UNL     1      -7.354   3.222 124.109  0.00  0.00    +0.000 C 
ATOM     13  C   UNL     1      -7.969   4.128 125.467  0.00  0.00    +0.000 C 
ATOM     14  C   UNL     1      -7.167   3.918 126.729  0.00  0.00    +0.000 C 
BRANCH  12  15
ATOM     15  N   UNL     1      -7.083   1.532 123.387  0.00  0.00    +0.000 N 
ATOM     16  C   UNL     1      -8.505   1.600 123.217  0.00  0.00    +0.000 C 
ATOM     17  O   UNL     1      -9.187   2.486 122.610  0.00  0.00    +0.000 OA
ATOM     18  O   UNL     1      -9.224   0.771 123.946  0.00  0.00    +0.000 OA
ATOM     19  C   UNL     1      -9.329  -0.202 122.980  0.00  0.00    +0.000 C 
ATOM     20  C   UNL     1      -8.233  -0.934 123.601  0.00  0.00    +0.000 A 
ATOM     21  C   UNL     1      -8.535  -2.132 124.342  0.00  0.00    +0.000 A 
ATOM     22  C   UNL     1      -7.683  -3.196 124.502  0.00  0.00    +0.000 A 
ATOM     23  C   UNL     1      -6.658  -3.115 123.609  0.00  0.00    +0.000 A 
ATOM     24  C   UNL     1      -6.301  -1.676 123.057  0.00  0.00    +0.000 A 
ATOM     25  C   UNL     1      -6.991  -0.322 123.514  0.00  0.00    +0.000 A 
ENDBRANCH  12  15
ENDBRANCH   4   7
BRANCH   5  26
ATOM     26  O   UNL     1      -6.314   5.834 130.044  0.00  0.00    +0.000 OA
ATOM     27  C   UNL     1      -6.399   6.795 131.078  0.00  0.00    +0.000 C 
ENDBRANCH   5  26
BRANCH   1  28
ATOM     28  O   UNL     1      -4.779   2.230 132.713  0.00  0.00    +0.000 OA
BRANCH  28  32
ATOM     29  N   UNL     1      -6.324  -0.959 132.625  0.00  0.00    +0.000 NA
ATOM     30  C   UNL     1      -5.441  -0.606 133.720  0.00  0.00    +0.000 C 
ATOM     31  C   UNL     1      -5.942   0.664 134.364  0.00  0.00    +0.000 C 
ATOM     32  C   UNL     1      -6.023   1.813 133.344  0.00  0.00    +0.000 C 
ATOM     33  C   UNL     1      -7.001   1.382 132.230  0.00  0.00    +0.000 C 
ATOM     34  C   UNL     1      -6.594   0.067 131.603  0.00  0.00    +0.000 C 
BRANCH  29  35
ATOM     35  C   UNL     1      -5.884  -2.199 132.015  0.00  0.00    +0.000 C 
BRANCH  35  37
ATOM     36  C   UNL     1      -5.642  -2.312 129.485  0.00  0.00    +0.000 A 
ATOM     37  C   UNL     1      -6.435  -2.493 130.626  0.00  0.00    +0.000 A 
ATOM     38  C   UNL     1      -7.751  -2.948 130.419  0.00  0.00    +0.000 A 
ATOM     39  C   UNL     1      -8.311  -3.191 129.194  0.00  0.00    +0.000 A 
ATOM     40  C   UNL     1      -7.530  -2.940 128.100  0.00  0.00    +0.000 A 
ATOM     41  N   UNL     1      -6.209  -2.502 128.212  0.00  0.00    +0.000 N 
ATOM     42  O   UNL     1      -5.553  -2.287 127.144  0.00  0.00    +0.000 OA
BRANCH  36  44
ATOM     43  C   UNL     1      -3.276  -3.193 129.544  0.00  0.00    +0.000 C 
ATOM     44  C   UNL     1      -4.178  -1.957 129.590  0.00  0.00    +0.000 C 
ENDBRANCH  36  44
ENDBRANCH  35  37
ENDBRANCH  29  35
ENDBRANCH  28  32
ENDBRANCH   1  28
TORSDOF 8
ENDMDL
MODEL 5
REMARK VINA RESULT:     -10.2      2.529      9.129
REMARK  Name = CHEMBL66240
REMARK  10 active torsions:
REMARK  status: ('A' for Active; 'I' for Inactive)
REMARK    1  A    between atoms: C_1  and  C_2
REMARK    2  A    between atoms: C_2  and  C_3
REMARK    3  A    between atoms: C_4  and  C_5
REMARK    4  A    between atoms: C_5  and  N_6
REMARK    5  A    between atoms: C_9  and  O_10
REMARK    6  A    between atoms: O_10  and  C_11
REMARK    7  A    between atoms: C_14  and  C_15
REMARK    8  A    between atoms: C_20  and  N_21
REMARK    9  A    between atoms: C_34  and  O_35
REMARK   10  A    between atoms: O_35  and  C_36
REMARK                            x       y       z     vdW  Elec       q    Type
REMARK                         _______ _______ _______ _____ _____    ______ ____
ROOT
ATOM      1  C   UNL     1      -6.551   3.257 130.263  0.00  0.00    +0.000 A 
ATOM      2  C   UNL     1      -5.846   2.753 129.184  0.00  0.00    +0.000 A 
ATOM      3  C   UNL     1      -6.157   3.193 127.869  0.00  0.00    +0.000 A 
ATOM      4  C   UNL     1      -7.259   4.053 127.606  0.00  0.00    +0.000 A 
ATOM      5  C   UNL     1      -7.942   4.532 128.715  0.00  0.00    +0.000 A 
ATOM      6  C   UNL     1      -7.528   4.191 129.990  0.00  0.00    +0.000 A 
ENDROOT
BRANCH   4   7
ATOM      7  C   UNL     1      -7.724   4.310 126.179  0.00  0.00    +0.000 C 
ATOM      8  O   UNL     1      -7.653   5.471 125.766  0.00  0.00    +0.000 OA
ATOM      9  N   UNL     1      -8.098   3.248 125.310  0.00  0.00    +0.000 N 
ATOM     10  C   UNL     1      -7.308   2.970 124.109  0.00  0.00    +0.000 C 
ATOM     11  C   UNL     1      -8.192   2.665 122.910  0.00  0.00    +0.000 C 
ATOM     12  C   UNL     1      -8.939   1.106 123.150  0.00  0.00    +0.000 C 
ATOM     13  C   UNL     1      -9.910   1.786 124.430  0.00  0.00    +0.000 C 
ATOM     14  C   UNL     1      -9.094   2.218 125.624  0.00  0.00    +0.000 C 
BRANCH  12  15
ATOM     15  N   UNL     1      -7.849  -0.308 122.636  0.00  0.00    +0.000 N 
ATOM     16  C   UNL     1      -8.995  -1.071 123.041  0.00  0.00    +0.000 C 
ATOM     17  O   UNL     1     -10.197  -0.968 122.636  0.00  0.00    +0.000 OA
ATOM     18  O   UNL     1      -8.848  -1.827 124.109  0.00  0.00    +0.000 OA
ATOM     19  C   UNL     1      -8.543  -2.977 123.419  0.00  0.00    +0.000 C 
ATOM     20  C   UNL     1      -7.125  -2.737 123.649  0.00  0.00    +0.000 A 
ATOM     21  C   UNL     1      -6.435  -3.552 124.615  0.00  0.00    +0.000 A 
ATOM     22  C   UNL     1      -5.098  -3.861 124.574  0.00  0.00    +0.000 A 
ATOM     23  C   UNL     1      -4.587  -3.576 123.344  0.00  0.00    +0.000 A 
ATOM     24  C   UNL     1      -5.344  -2.479 122.492  0.00  0.00    +0.000 A 
ATOM     25  C   UNL     1      -6.598  -1.640 122.984  0.00  0.00    +0.000 A 
ENDBRANCH  12  15
ENDBRANCH   4   7
BRANCH   5  26
ATOM     26  O   UNL     1      -9.025   5.317 128.561  0.00  0.00    +0.000 OA
ATOM     27  C   UNL     1      -9.735   5.875 129.649  0.00  0.00    +0.000 C 
ENDBRANCH   5  26
BRANCH   1  28
ATOM     28  O   UNL     1      -6.167   3.002 131.552  0.00  0.00    +0.000 OA
BRANCH  28  32
ATOM     29  N   UNL     1      -7.013  -0.273 132.611  0.00  0.00    +0.000 NA
ATOM     30  C   UNL     1      -6.079   0.524 133.381  0.00  0.00    +0.000 C 
ATOM     31  C   UNL     1      -6.737   1.831 133.751  0.00  0.00    +0.000 C 
ATOM     32  C   UNL     1      -7.197   2.598 132.498  0.00  0.00    +0.000 C 
ATOM     33  C   UNL     1      -8.210   1.707 131.749  0.00  0.00    +0.000 C 
ATOM     34  C   UNL     1      -7.631   0.347 131.426  0.00  0.00    +0.000 C 
BRANCH  29  35
ATOM     35  C   UNL     1      -6.416  -1.552 132.278  0.00  0.00    +0.000 C 
BRANCH  35  37
ATOM     36  C   UNL     1      -5.693  -1.709 129.844  0.00  0.00    +0.000 A 
ATOM     37  C   UNL     1      -6.618  -2.031 130.847  0.00  0.00    +0.000 A 
ATOM     38  C   UNL     1      -7.729  -2.806 130.462  0.00  0.00    +0.000 A 
ATOM     39  C   UNL     1      -7.981  -3.231 129.186  0.00  0.00    +0.000 A 
ATOM     40  C   UNL     1      -7.093  -2.842 128.220  0.00  0.00    +0.000 A 
ATOM     41  N   UNL     1      -5.956  -2.087 128.515  0.00  0.00    +0.000 N 
ATOM     42  O   UNL     1      -5.185  -1.762 127.557  0.00  0.00    +0.000 OA
BRANCH  36  44
ATOM     43  C   UNL     1      -3.236  -1.973 130.362  0.00  0.00    +0.000 C 
ATOM     44  C   UNL     1      -4.400  -0.999 130.162  0.00  0.00    +0.000 C 
ENDBRANCH  36  44
ENDBRANCH  35  37
ENDBRANCH  29  35
ENDBRANCH  28  32
ENDBRANCH   1  28
TORSDOF 8
ENDMDL
MODEL 6
REMARK VINA RESULT:     -10.0      3.580      9.740
REMARK  Name = CHEMBL66240
REMARK  10 active torsions:
REMARK  status: ('A' for Active; 'I' for Inactive)
REMARK    1  A    between atoms: C_1  and  C_2
REMARK    2  A    between atoms: C_2  and  C_3
REMARK    3  A    between atoms: C_4  and  C_5
REMARK    4  A    between atoms: C_5  and  N_6
REMARK    5  A    between atoms: C_9  and  O_10
REMARK    6  A    between atoms: O_10  and  C_11
REMARK    7  A    between atoms: C_14  and  C_15
REMARK    8  A    between atoms: C_20  and  N_21
REMARK    9  A    between atoms: C_34  and  O_35
REMARK   10  A    between atoms: O_35  and  C_36
REMARK                            x       y       z     vdW  Elec       q    Type
REMARK                         _______ _______ _______ _____ _____    ______ ____
ROOT
ATOM      1  C   UNL     1      -3.716   5.819 133.168  0.00  0.00    +0.000 A 
ATOM      2  C   UNL     1      -2.919   4.775 132.729  0.00  0.00    +0.000 A 
ATOM      3  C   UNL     1      -2.607   4.657 131.347  0.00  0.00    +0.000 A 
ATOM      4  C   UNL     1      -3.187   5.514 130.371  0.00  0.00    +0.000 A 
ATOM      5  C   UNL     1      -3.983   6.544 130.853  0.00  0.00    +0.000 A 
ATOM      6  C   UNL     1      -4.156   6.711 132.215  0.00  0.00    +0.000 A 
ENDROOT
BRANCH   4   7
ATOM      7  C   UNL     1      -3.038   5.216 128.885  0.00  0.00    +0.000 C 
ATOM      8  O   UNL     1      -2.159   5.831 128.274  0.00  0.00    +0.000 OA
ATOM      9  N   UNL     1      -3.779   4.182 128.250  0.00  0.00    +0.000 N 
ATOM     10  C   UNL     1      -3.088   3.016 127.695  0.00  0.00    +0.000 C 
ATOM     11  C   UNL     1      -3.655   2.614 126.343  0.00  0.00    +0.000 C 
ATOM     12  C   UNL     1      -5.245   1.936 126.586  0.00  0.00    +0.000 C 
ATOM     13  C   UNL     1      -5.837   3.520 127.016  0.00  0.00    +0.000 C 
ATOM     14  C   UNL     1      -5.239   4.046 128.298  0.00  0.00    +0.000 C 
BRANCH  12  15
ATOM     15  N   UNL     1      -5.206   0.136 127.042  0.00  0.00    +0.000 N 
ATOM     16  C   UNL     1      -6.331   0.096 126.154  0.00  0.00    +0.000 C 
ATOM     17  O   UNL     1      -6.396   0.479 124.942  0.00  0.00    +0.000 OA
ATOM     18  O   UNL     1      -7.500  -0.169 126.699  0.00  0.00    +0.000 OA
ATOM     19  C   UNL     1      -7.467  -1.519 126.440  0.00  0.00    +0.000 C 
ATOM     20  C   UNL     1      -7.009  -1.768 127.800  0.00  0.00    +0.000 A 
ATOM     21  C   UNL     1      -7.935  -2.329 128.748  0.00  0.00    +0.000 A 
ATOM     22  C   UNL     1      -7.588  -3.113 129.821  0.00  0.00    +0.000 A 
ATOM     23  C   UNL     1      -6.308  -3.556 129.683  0.00  0.00    +0.000 A 
ATOM     24  C   UNL     1      -5.343  -2.689 128.777  0.00  0.00    +0.000 A 
ATOM     25  C   UNL     1      -5.728  -1.315 128.082  0.00  0.00    +0.000 A 
ENDBRANCH  12  15
ENDBRANCH   4   7
BRANCH   5  26
ATOM     26  O   UNL     1      -4.607   7.378 130.001  0.00  0.00    +0.000 OA
ATOM     27  C   UNL     1      -4.079   8.634 129.623  0.00  0.00    +0.000 C 
ENDBRANCH   5  26
BRANCH   1  28
ATOM     28  O   UNL     1      -3.890   6.074 134.501  0.00  0.00    +0.000 OA
BRANCH  28  32
ATOM     29  N   UNL     1      -7.213   4.915 134.932  0.00  0.00    +0.000 NA
ATOM     30  C   UNL     1      -6.344   4.291 133.954  0.00  0.00    +0.000 C 
ATOM     31  C   UNL     1      -5.086   3.819 134.643  0.00  0.00    +0.000 C 
ATOM     32  C   UNL     1      -4.363   4.984 135.343  0.00  0.00    +0.000 C 
ATOM     33  C   UNL     1      -5.332   5.576 136.389  0.00  0.00    +0.000 C 
ATOM     34  C   UNL     1      -6.647   5.990 135.766  0.00  0.00    +0.000 C 
BRANCH  29  35
ATOM     35  C   UNL     1      -8.446   5.342 134.299  0.00  0.00    +0.000 C 
BRANCH  35  37
ATOM     36  C   UNL     1      -9.397   4.950 131.973  0.00  0.00    +0.000 A 
ATOM     37  C   UNL     1      -8.987   4.429 133.208  0.00  0.00    +0.000 A 
ATOM     38  C   UNL     1      -9.109   3.037 133.382  0.00  0.00    +0.000 A 
ATOM     39  C   UNL     1      -9.624   2.175 132.452  0.00  0.00    +0.000 A 
ATOM     40  C   UNL     1     -10.075   2.726 131.285  0.00  0.00    +0.000 A 
ATOM     41  N   UNL     1      -9.979   4.094 131.020  0.00  0.00    +0.000 N 
ATOM     42  O   UNL     1     -10.429   4.526 129.912  0.00  0.00    +0.000 OA
BRANCH  36  44
ATOM     43  C   UNL     1      -7.789   6.674 131.068  0.00  0.00    +0.000 C 
ATOM     44  C   UNL     1      -9.191   6.404 131.622  0.00  0.00    +0.000 C 
ENDBRANCH  36  44
ENDBRANCH  35  37
ENDBRANCH  29  35
ENDBRANCH  28  32
ENDBRANCH   1  28
TORSDOF 8
ENDMDL
MODEL 7
REMARK VINA RESULT:      -9.8      2.954      9.065
REMARK  Name = CHEMBL66240
REMARK  10 active torsions:
REMARK  status: ('A' for Active; 'I' for Inactive)
REMARK    1  A    between atoms: C_1  and  C_2
REMARK    2  A    between atoms: C_2  and  C_3
REMARK    3  A    between atoms: C_4  and  C_5
REMARK    4  A    between atoms: C_5  and  N_6
REMARK    5  A    between atoms: C_9  and  O_10
REMARK    6  A    between atoms: O_10  and  C_11
REMARK    7  A    between atoms: C_14  and  C_15
REMARK    8  A    between atoms: C_20  and  N_21
REMARK    9  A    between atoms: C_34  and  O_35
REMARK   10  A    between atoms: O_35  and  C_36
REMARK                            x       y       z     vdW  Elec       q    Type
REMARK                         _______ _______ _______ _____ _____    ______ ____
ROOT
ATOM      1  C   UNL     1      -4.289   3.926 130.232  0.00  0.00    +0.000 A 
ATOM      2  C   UNL     1      -5.519   4.551 130.111  0.00  0.00    +0.000 A 
ATOM      3  C   UNL     1      -6.147   4.635 128.838  0.00  0.00    +0.000 A 
ATOM      4  C   UNL     1      -5.496   4.202 127.650  0.00  0.00    +0.000 A 
ATOM      5  C   UNL     1      -4.263   3.585 127.815  0.00  0.00    +0.000 A 
ATOM      6  C   UNL     1      -3.742   3.398 129.082  0.00  0.00    +0.000 A 
ENDROOT
BRANCH   4   7
ATOM      7  C   UNL     1      -6.077   4.527 126.280  0.00  0.00    +0.000 C 
ATOM      8  O   UNL     1      -5.864   5.659 125.835  0.00  0.00    +0.000 OA
ATOM      9  N   UNL     1      -6.719   3.539 125.485  0.00  0.00    +0.000 N 
ATOM     10  C   UNL     1      -6.131   3.129 124.208  0.00  0.00    +0.000 C 
ATOM     11  C   UNL     1      -7.187   2.971 123.125  0.00  0.00    +0.000 C 
ATOM     12  C   UNL     1      -8.147   1.558 123.485  0.00  0.00    +0.000 C 
ATOM     13  C   UNL     1      -8.837   2.395 124.852  0.00  0.00    +0.000 C 
ATOM     14  C   UNL     1      -7.827   2.690 125.934  0.00  0.00    +0.000 C 
BRANCH  12  15
ATOM     15  N   UNL     1      -7.373  -0.019 122.882  0.00  0.00    +0.000 N 
ATOM     16  C   UNL     1      -8.589  -0.575 123.400  0.00  0.00    +0.000 C 
ATOM     17  O   UNL     1      -9.788  -0.263 123.110  0.00  0.00    +0.000 OA
ATOM     18  O   UNL     1      -8.475  -1.354 124.456  0.00  0.00    +0.000 OA
ATOM     19  C   UNL     1      -8.441  -2.534 123.750  0.00  0.00    +0.000 C 
ATOM     20  C   UNL     1      -6.987  -2.545 123.843  0.00  0.00    +0.000 A 
ATOM     21  C   UNL     1      -6.360  -3.475 124.746  0.00  0.00    +0.000 A 
ATOM     22  C   UNL     1      -5.107  -4.010 124.581  0.00  0.00    +0.000 A 
ATOM     23  C   UNL     1      -4.673  -3.808 123.306  0.00  0.00    +0.000 A 
ATOM     24  C   UNL     1      -5.306  -2.590 122.520  0.00  0.00    +0.000 A 
ATOM     25  C   UNL     1      -6.343  -1.550 123.121  0.00  0.00    +0.000 A 
ENDBRANCH  12  15
ENDBRANCH   4   7
BRANCH   5  26
ATOM     26  O   UNL     1      -3.555   3.182 126.744  0.00  0.00    +0.000 OA
ATOM     27  C   UNL     1      -2.173   3.435 126.592  0.00  0.00    +0.000 C 
ENDBRANCH   5  26
BRANCH   1  28
ATOM     28  O   UNL     1      -3.737   3.663 131.456  0.00  0.00    +0.000 OA
BRANCH  28  32
ATOM     29  N   UNL     1      -6.475   1.873 132.823  0.00  0.00    +0.000 NA
ATOM     30  C   UNL     1      -6.176   1.781 131.407  0.00  0.00    +0.000 C 
ATOM     31  C   UNL     1      -4.747   1.326 131.234  0.00  0.00    +0.000 C 
ATOM     32  C   UNL     1      -3.768   2.287 131.931  0.00  0.00    +0.000 C 
ATOM     33  C   UNL     1      -4.122   2.310 133.433  0.00  0.00    +0.000 C 
ATOM     34  C   UNL     1      -5.571   2.679 133.664  0.00  0.00    +0.000 C 
BRANCH  29  35
ATOM     35  C   UNL     1      -7.856   2.272 133.013  0.00  0.00    +0.000 C 
BRANCH  35  37
ATOM     36  C   UNL     1      -9.043   3.726 131.297  0.00  0.00    +0.000 A 
ATOM     37  C   UNL     1      -8.245   3.629 132.445  0.00  0.00    +0.000 A 
ATOM     38  C   UNL     1      -7.824   4.839 133.029  0.00  0.00    +0.000 A 
ATOM     39  C   UNL     1      -8.110   6.085 132.541  0.00  0.00    +0.000 A 
ATOM     40  C   UNL     1      -8.835   6.140 131.382  0.00  0.00    +0.000 A 
ATOM     41  N   UNL     1      -9.307   4.992 130.743  0.00  0.00    +0.000 N 
ATOM     42  O   UNL     1      -9.968   5.132 129.667  0.00  0.00    +0.000 OA
BRANCH  36  44
ATOM     43  C   UNL     1      -8.897   2.046 129.418  0.00  0.00    +0.000 C 
ATOM     44  C   UNL     1      -9.662   2.505 130.662  0.00  0.00    +0.000 C 
ENDBRANCH  36  44
ENDBRANCH  35  37
ENDBRANCH  29  35
ENDBRANCH  28  32
ENDBRANCH   1  28
TORSDOF 8
ENDMDL
MODEL 8
REMARK VINA RESULT:      -9.8      4.341     10.911
REMARK  Name = CHEMBL66240
REMARK  10 active torsions:
REMARK  status: ('A' for Active; 'I' for Inactive)
REMARK    1  A    between atoms: C_1  and  C_2
REMARK    2  A    between atoms: C_2  and  C_3
REMARK    3  A    between atoms: C_4  and  C_5
REMARK    4  A    between atoms: C_5  and  N_6
REMARK    5  A    between atoms: C_9  and  O_10
REMARK    6  A    between atoms: O_10  and  C_11
REMARK    7  A    between atoms: C_14  and  C_15
REMARK    8  A    between atoms: C_20  and  N_21
REMARK    9  A    between atoms: C_34  and  O_35
REMARK   10  A    between atoms: O_35  and  C_36
REMARK                            x       y       z     vdW  Elec       q    Type
REMARK                         _______ _______ _______ _____ _____    ______ ____
ROOT
ATOM      1  C   UNL     1      -4.382   4.368 129.750  0.00  0.00    +0.000 A 
ATOM      2  C   UNL     1      -5.713   4.744 129.689  0.00  0.00    +0.000 A 
ATOM      3  C   UNL     1      -6.406   4.695 128.448  0.00  0.00    +0.000 A 
ATOM      4  C   UNL     1      -5.741   4.384 127.230  0.00  0.00    +0.000 A 
ATOM      5  C   UNL     1      -4.406   4.017 127.334  0.00  0.00    +0.000 A 
ATOM      6  C   UNL     1      -3.799   3.944 128.575  0.00  0.00    +0.000 A 
ENDROOT
BRANCH   4   7
ATOM      7  C   UNL     1      -6.438   4.580 125.890  0.00  0.00    +0.000 C 
ATOM      8  O   UNL     1      -6.372   5.703 125.382  0.00  0.00    +0.000 OA
ATOM      9  N   UNL     1      -7.024   3.493 125.185  0.00  0.00    +0.000 N 
ATOM     10  C   UNL     1      -6.480   3.080 123.889  0.00  0.00    +0.000 C 
ATOM     11  C   UNL     1      -7.580   2.762 122.889  0.00  0.00    +0.000 C 
ATOM     12  C   UNL     1      -8.366   1.282 123.376  0.00  0.00    +0.000 C 
ATOM     13  C   UNL     1      -9.050   2.114 124.749  0.00  0.00    +0.000 C 
ATOM     14  C   UNL     1      -8.009   2.563 125.746  0.00  0.00    +0.000 C 
BRANCH  12  15
ATOM     15  N   UNL     1      -7.474  -0.240 122.791  0.00  0.00    +0.000 N 
ATOM     16  C   UNL     1      -8.678  -0.872 123.247  0.00  0.00    +0.000 C 
ATOM     17  O   UNL     1      -9.878  -0.626 122.905  0.00  0.00    +0.000 OA
ATOM     18  O   UNL     1      -8.567  -1.658 124.297  0.00  0.00    +0.000 OA
ATOM     19  C   UNL     1      -8.431  -2.824 123.581  0.00  0.00    +0.000 C 
ATOM     20  C   UNL     1      -6.985  -2.752 123.741  0.00  0.00    +0.000 A 
ATOM     21  C   UNL     1      -6.346  -3.656 124.661  0.00  0.00    +0.000 A 
ATOM     22  C   UNL     1      -5.058  -4.116 124.549  0.00  0.00    +0.000 A 
ATOM     23  C   UNL     1      -4.579  -3.871 123.298  0.00  0.00    +0.000 A 
ATOM     24  C   UNL     1      -5.245  -2.680 122.497  0.00  0.00    +0.000 A 
ATOM     25  C   UNL     1      -6.368  -1.711 123.061  0.00  0.00    +0.000 A 
ENDBRANCH  12  15
ENDBRANCH   4   7
BRANCH   5  26
ATOM     26  O   UNL     1      -3.686   3.747 126.230  0.00  0.00    +0.000 OA
ATOM     27  C   UNL     1      -2.279   3.604 126.241  0.00  0.00    +0.000 C 
ENDBRANCH   5  26
BRANCH   1  28
ATOM     28  O   UNL     1      -3.732   4.226 130.945  0.00  0.00    +0.000 OA
BRANCH  28  32
ATOM     29  N   UNL     1      -3.392   5.846 134.080  0.00  0.00    +0.000 NA
ATOM     30  C   UNL     1      -2.584   4.683 133.768  0.00  0.00    +0.000 C 
ATOM     31  C   UNL     1      -1.825   4.941 132.489  0.00  0.00    +0.000 C 
ATOM     32  C   UNL     1      -2.782   5.261 131.327  0.00  0.00    +0.000 C 
ATOM     33  C   UNL     1      -3.582   6.523 131.713  0.00  0.00    +0.000 C 
ATOM     34  C   UNL     1      -4.299   6.353 133.034  0.00  0.00    +0.000 C 
BRANCH  29  35
ATOM     35  C   UNL     1      -4.102   5.637 135.327  0.00  0.00    +0.000 C 
BRANCH  35  37
ATOM     36  C   UNL     1      -5.777   6.988 136.683  0.00  0.00    +0.000 A 
ATOM     37  C   UNL     1      -4.515   6.894 136.080  0.00  0.00    +0.000 A 
ATOM     38  C   UNL     1      -3.668   8.012 136.202  0.00  0.00    +0.000 A 
ATOM     39  C   UNL     1      -4.001   9.180 136.833  0.00  0.00    +0.000 A 
ATOM     40  C   UNL     1      -5.264   9.261 137.352  0.00  0.00    +0.000 A 
ATOM     41  N   UNL     1      -6.164   8.196 137.291  0.00  0.00    +0.000 N 
ATOM     42  O   UNL     1      -7.321   8.357 137.793  0.00  0.00    +0.000 OA
BRANCH  36  44
ATOM     43  C   UNL     1      -7.638   5.747 135.511  0.00  0.00    +0.000 C 
ATOM     44  C   UNL     1      -6.717   5.808 136.733  0.00  0.00    +0.000 C 
ENDBRANCH  36  44
ENDBRANCH  35  37
ENDBRANCH  29  35
ENDBRANCH  28  32
ENDBRANCH   1  28
TORSDOF 8
ENDMDL
MODEL 9
REMARK VINA RESULT:      -9.7      4.152      9.610
REMARK  Name = CHEMBL66240
REMARK  10 active torsions:
REMARK  status: ('A' for Active; 'I' for Inactive)
REMARK    1  A    between atoms: C_1  and  C_2
REMARK    2  A    between atoms: C_2  and  C_3
REMARK    3  A    between atoms: C_4  and  C_5
REMARK    4  A    between atoms: C_5  and  N_6
REMARK    5  A    between atoms: C_9  and  O_10
REMARK    6  A    between atoms: O_10  and  C_11
REMARK    7  A    between atoms: C_14  and  C_15
REMARK    8  A    between atoms: C_20  and  N_21
REMARK    9  A    between atoms: C_34  and  O_35
REMARK   10  A    between atoms: O_35  and  C_36
REMARK                            x       y       z     vdW  Elec       q    Type
REMARK                         _______ _______ _______ _____ _____    ______ ____
ROOT
ATOM      1  C   UNL     1      -4.193   3.581 130.456  0.00  0.00    +0.000 A 
ATOM      2  C   UNL     1      -5.408   4.241 130.375  0.00  0.00    +0.000 A 
ATOM      3  C   UNL     1      -6.028   4.429 129.111  0.00  0.00    +0.000 A 
ATOM      4  C   UNL     1      -5.383   4.064 127.897  0.00  0.00    +0.000 A 
ATOM      5  C   UNL     1      -4.165   3.409 128.021  0.00  0.00    +0.000 A 
ATOM      6  C   UNL     1      -3.654   3.121 129.274  0.00  0.00    +0.000 A 
ENDROOT
BRANCH   4   7
ATOM      7  C   UNL     1      -5.950   4.498 126.551  0.00  0.00    +0.000 C 
ATOM      8  O   UNL     1      -5.679   5.641 126.171  0.00  0.00    +0.000 OA
ATOM      9  N   UNL     1      -6.646   3.592 125.705  0.00  0.00    +0.000 N 
ATOM     10  C   UNL     1      -6.085   3.226 124.402  0.00  0.00    +0.000 C 
ATOM     11  C   UNL     1      -7.151   3.186 123.319  0.00  0.00    +0.000 C 
ATOM     12  C   UNL     1      -8.184   1.808 123.604  0.00  0.00    +0.000 C 
ATOM     13  C   UNL     1      -8.824   2.600 125.021  0.00  0.00    +0.000 C 
ATOM     14  C   UNL     1      -7.797   2.779 126.112  0.00  0.00    +0.000 C 
BRANCH  12  15
ATOM     15  N   UNL     1      -7.497   0.229 122.907  0.00  0.00    +0.000 N 
ATOM     16  C   UNL     1      -8.727  -0.295 123.425  0.00  0.00    +0.000 C 
ATOM     17  O   UNL     1      -9.916   0.085 123.178  0.00  0.00    +0.000 OA
ATOM     18  O   UNL     1      -8.628  -1.131 124.438  0.00  0.00    +0.000 OA
ATOM     19  C   UNL     1      -8.663  -2.274 123.675  0.00  0.00    +0.000 C 
ATOM     20  C   UNL     1      -7.210  -2.356 123.734  0.00  0.00    +0.000 A 
ATOM     21  C   UNL     1      -6.609  -3.358 124.576  0.00  0.00    +0.000 A 
ATOM     22  C   UNL     1      -5.385  -3.941 124.356  0.00  0.00    +0.000 A 
ATOM     23  C   UNL     1      -4.969  -3.695 123.083  0.00  0.00    +0.000 A 
ATOM     24  C   UNL     1      -5.560  -2.411 122.372  0.00  0.00    +0.000 A 
ATOM     25  C   UNL     1      -6.535  -1.357 123.047  0.00  0.00    +0.000 A 
ENDBRANCH  12  15
ENDBRANCH   4   7
BRANCH   5  26
ATOM     26  O   UNL     1      -3.462   3.065 126.926  0.00  0.00    +0.000 OA
ATOM     27  C   UNL     1      -2.050   3.091 126.876  0.00  0.00    +0.000 C 
ENDBRANCH   5  26
BRANCH   1  28
ATOM     28  O   UNL     1      -3.653   3.220 131.660  0.00  0.00    +0.000 OA
BRANCH  28  32
ATOM     29  N   UNL     1      -3.932  -0.173 132.647  0.00  0.00    +0.000 NA
ATOM     30  C   UNL     1      -3.073   0.734 133.385  0.00  0.00    +0.000 C 
ATOM     31  C   UNL     1      -3.889   1.917 133.846  0.00  0.00    +0.000 C 
ATOM     32  C   UNL     1      -4.543   2.641 132.655  0.00  0.00    +0.000 C 
ATOM     33  C   UNL     1      -5.464   1.630 131.941  0.00  0.00    +0.000 C 
ATOM     34  C   UNL     1      -4.715   0.381 131.529  0.00  0.00    +0.000 C 
BRANCH  29  35
ATOM     35  C   UNL     1      -3.177  -1.338 132.227  0.00  0.00    +0.000 C 
BRANCH  35  37
ATOM     36  C   UNL     1      -4.386  -3.391 131.335  0.00  0.00    +0.000 A 
ATOM     37  C   UNL     1      -3.861  -2.684 132.425  0.00  0.00    +0.000 A 
ATOM     38  C   UNL     1      -4.004  -3.276 133.695  0.00  0.00    +0.000 A 
ATOM     39  C   UNL     1      -4.642  -4.463 133.937  0.00  0.00    +0.000 A 
ATOM     40  C   UNL     1      -5.201  -5.092 132.859  0.00  0.00    +0.000 A 
ATOM     41  N   UNL     1      -5.093  -4.586 131.562  0.00  0.00    +0.000 N 
ATOM     42  O   UNL     1      -5.647  -5.230 130.617  0.00  0.00    +0.000 OA
BRANCH  36  44
ATOM     43  C   UNL     1      -2.976  -3.602 129.251  0.00  0.00    +0.000 C 
ATOM     44  C   UNL     1      -4.176  -2.922 129.916  0.00  0.00    +0.000 C 
ENDBRANCH  36  44
ENDBRANCH  35  37
ENDBRANCH  29  35
ENDBRANCH  28  32
ENDBRANCH   1  28
TORSDOF 8
ENDMDL
