MODEL 1
REMARK VINA RESULT:      -9.0      0.000      0.000
REMARK  Name = CHEMBL457998
REMARK  9 active torsions:
REMARK  status: ('A' for Active; 'I' for Inactive)
REMARK    1  A    between atoms: C_1  and  O_2
REMARK    2  A    between atoms: O_2  and  C_3
REMARK    3  A    between atoms: C_6  and  N_7
REMARK    4  A    between atoms: N_7  and  C_8
REMARK    5  A    between atoms: N_7  and  S_22
REMARK    6  A    between atoms: C_8  and  C_9
REMARK    7  A    between atoms: C_12  and  C_13
REMARK    8  A    between atoms: C_18  and  C_19
REMARK    9  A    between atoms: S_22  and  C_25
REMARK                            x       y       z     vdW  Elec       q    Type
REMARK                         _______ _______ _______ _____ _____    ______ ____
ROOT
ATOM      1  N   UNL     1      -8.378   1.724 124.211  0.00  0.00    +0.000 N 
ENDROOT
BRANCH   1   5
ATOM      2  C   UNL     1      -7.083   3.830 120.723  0.00  0.00    +0.000 A 
ATOM      3  C   UNL     1      -6.130   3.186 121.492  0.00  0.00    +0.000 A 
ATOM      4  C   UNL     1      -6.524   2.483 122.650  0.00  0.00    +0.000 A 
ATOM      5  C   UNL     1      -7.863   2.389 123.005  0.00  0.00    +0.000 A 
ATOM      6  C   UNL     1      -8.688   2.960 122.049  0.00  0.00    +0.000 A 
ATOM      7  N   UNL     1      -8.367   3.744 121.002  0.00  0.00    +0.000 NA
BRANCH   2   9
ATOM      8  C   UNL     1      -5.530   5.126 119.663  0.00  0.00    +0.000 C 
ATOM      9  O   UNL     1      -6.821   4.541 119.596  0.00  0.00    +0.000 OA
ENDBRANCH   2   9
ENDBRANCH   1   5
BRANCH   1  10
ATOM     10  S   UNL     1      -9.260   0.260 124.003  0.00  0.00    +0.000 S 
ATOM     11  O   UNL     1     -10.185   0.149 125.123  0.00  0.00    +0.000 OA
ATOM     12  O   UNL     1      -9.774   0.288 122.651  0.00  0.00    +0.000 OA
BRANCH  10  13
ATOM     13  C   UNL     1      -8.233  -1.209 124.085  0.00  0.00    +0.000 A 
ATOM     14  C   UNL     1      -8.491  -2.292 124.918  0.00  0.00    +0.000 A 
ATOM     15  C   UNL     1      -7.549  -3.294 125.125  0.00  0.00    +0.000 A 
ATOM     16  C   UNL     1      -6.425  -3.345 124.320  0.00  0.00    +0.000 A 
ATOM     17  C   UNL     1      -6.209  -2.346 123.372  0.00  0.00    +0.000 A 
ATOM     18  C   UNL     1      -7.088  -1.258 123.277  0.00  0.00    +0.000 A 
ENDBRANCH  10  13
ENDBRANCH   1  10
BRANCH   1  19
ATOM     19  C   UNL     1      -8.112   2.218 125.599  0.00  0.00    +0.000 C 
BRANCH  19  20
ATOM     20  C   UNL     1      -7.395   1.383 126.642  0.00  0.00    +0.000 A 
ATOM     21  C   UNL     1      -8.037   1.065 127.832  0.00  0.00    +0.000 A 
ATOM     22  C   UNL     1      -7.604  -0.070 128.518  0.00  0.00    +0.000 A 
ATOM     23  C   UNL     1      -6.521  -0.828 128.043  0.00  0.00    +0.000 A 
ATOM     24  C   UNL     1      -5.885  -0.371 126.891  0.00  0.00    +0.000 A 
ATOM     25  N   UNL     1      -6.284   0.719 126.196  0.00  0.00    +0.000 NA
BRANCH  23  26
ATOM     26  C   UNL     1      -6.059  -2.026 128.745  0.00  0.00    +0.000 A 
ATOM     27  C   UNL     1      -4.700  -2.076 129.094  0.00  0.00    +0.000 A 
ATOM     28  C   UNL     1      -4.186  -3.128 129.844  0.00  0.00    +0.000 A 
ATOM     29  C   UNL     1      -5.025  -4.156 130.254  0.00  0.00    +0.000 A 
ATOM     30  C   UNL     1      -6.370  -4.149 129.890  0.00  0.00    +0.000 A 
ATOM     31  C   UNL     1      -6.902  -3.096 129.129  0.00  0.00    +0.000 A 
ATOM     32  C   UNL     1      -8.349  -3.168 128.726  0.00  0.00    +0.000 C 
ENDBRANCH  23  26
ENDBRANCH  19  20
ENDBRANCH   1  19
TORSDOF 7
ENDMDL
MODEL 2
REMARK VINA RESULT:      -8.8      2.318      7.821
REMARK  Name = CHEMBL457998
REMARK  9 active torsions:
REMARK  status: ('A' for Active; 'I' for Inactive)
REMARK    1  A    between atoms: C_1  and  O_2
REMARK    2  A    between atoms: O_2  and  C_3
REMARK    3  A    between atoms: C_6  and  N_7
REMARK    4  A    between atoms: N_7  and  C_8
REMARK    5  A    between atoms: N_7  and  S_22
REMARK    6  A    between atoms: C_8  and  C_9
REMARK    7  A    between atoms: C_12  and  C_13
REMARK    8  A    between atoms: C_18  and  C_19
REMARK    9  A    between atoms: S_22  and  C_25
REMARK                            x       y       z     vdW  Elec       q    Type
REMARK                         _______ _______ _______ _____ _____    ______ ____
ROOT
ATOM      1  N   UNL     1      -8.153  -0.820 127.266  0.00  0.00    +0.000 N 
ENDROOT
BRANCH   1   5
ATOM      2  C   UNL     1      -6.524  -3.103 130.494  0.00  0.00    +0.000 A 
ATOM      3  C   UNL     1      -5.827  -3.064 129.301  0.00  0.00    +0.000 A 
ATOM      4  C   UNL     1      -6.336  -2.321 128.215  0.00  0.00    +0.000 A 
ATOM      5  C   UNL     1      -7.509  -1.588 128.342  0.00  0.00    +0.000 A 
ATOM      6  C   UNL     1      -7.994  -1.618 129.640  0.00  0.00    +0.000 A 
ATOM      7  N   UNL     1      -7.625  -2.401 130.673  0.00  0.00    +0.000 NA
BRANCH   2   9
ATOM      8  C   UNL     1      -5.297  -4.876 131.245  0.00  0.00    +0.000 C 
ATOM      9  O   UNL     1      -6.136  -3.789 131.600  0.00  0.00    +0.000 OA
ENDBRANCH   2   9
ENDBRANCH   1   5
BRANCH   1  10
ATOM     10  S   UNL     1      -8.786  -1.696 125.926  0.00  0.00    +0.000 S 
ATOM     11  O   UNL     1      -9.255  -2.979 126.431  0.00  0.00    +0.000 OA
ATOM     12  O   UNL     1      -9.715  -0.804 125.265  0.00  0.00    +0.000 OA
BRANCH  10  13
ATOM     13  C   UNL     1      -7.552  -2.092 124.685  0.00  0.00    +0.000 A 
ATOM     14  C   UNL     1      -6.575  -3.068 124.846  0.00  0.00    +0.000 A 
ATOM     15  C   UNL     1      -5.501  -3.176 123.969  0.00  0.00    +0.000 A 
ATOM     16  C   UNL     1      -5.515  -2.457 122.787  0.00  0.00    +0.000 A 
ATOM     17  C   UNL     1      -6.560  -1.571 122.531  0.00  0.00    +0.000 A 
ATOM     18  C   UNL     1      -7.558  -1.356 123.492  0.00  0.00    +0.000 A 
ENDBRANCH  10  13
ENDBRANCH   1  10
BRANCH   1  19
ATOM     19  C   UNL     1      -8.345   0.664 127.318  0.00  0.00    +0.000 C 
BRANCH  19  20
ATOM     20  C   UNL     1      -7.648   1.614 126.365  0.00  0.00    +0.000 A 
ATOM     21  C   UNL     1      -6.446   1.241 125.775  0.00  0.00    +0.000 A 
ATOM     22  C   UNL     1      -6.098   1.855 124.571  0.00  0.00    +0.000 A 
ATOM     23  C   UNL     1      -6.913   2.852 124.010  0.00  0.00    +0.000 A 
ATOM     24  C   UNL     1      -8.049   3.221 124.728  0.00  0.00    +0.000 A 
ATOM     25  N   UNL     1      -8.421   2.641 125.893  0.00  0.00    +0.000 NA
BRANCH  23  26
ATOM     26  C   UNL     1      -6.567   3.500 122.744  0.00  0.00    +0.000 A 
ATOM     27  C   UNL     1      -5.312   4.126 122.671  0.00  0.00    +0.000 A 
ATOM     28  C   UNL     1      -4.855   4.686 121.484  0.00  0.00    +0.000 A 
ATOM     29  C   UNL     1      -5.652   4.638 120.347  0.00  0.00    +0.000 A 
ATOM     30  C   UNL     1      -6.916   4.055 120.403  0.00  0.00    +0.000 A 
ATOM     31  C   UNL     1      -7.393   3.489 121.596  0.00  0.00    +0.000 A 
ATOM     32  C   UNL     1      -8.784   2.919 121.607  0.00  0.00    +0.000 C 
ENDBRANCH  23  26
ENDBRANCH  19  20
ENDBRANCH   1  19
TORSDOF 7
ENDMDL
MODEL 3
REMARK VINA RESULT:      -8.6      7.522      9.480
REMARK  Name = CHEMBL457998
REMARK  9 active torsions:
REMARK  status: ('A' for Active; 'I' for Inactive)
REMARK    1  A    between atoms: C_1  and  O_2
REMARK    2  A    between atoms: O_2  and  C_3
REMARK    3  A    between atoms: C_6  and  N_7
REMARK    4  A    between atoms: N_7  and  C_8
REMARK    5  A    between atoms: N_7  and  S_22
REMARK    6  A    between atoms: C_8  and  C_9
REMARK    7  A    between atoms: C_12  and  C_13
REMARK    8  A    between atoms: C_18  and  C_19
REMARK    9  A    between atoms: S_22  and  C_25
REMARK                            x       y       z     vdW  Elec       q    Type
REMARK                         _______ _______ _______ _____ _____    ______ ____
ROOT
ATOM      1  N   UNL     1     -10.330   5.609 131.262  0.00  0.00    +0.000 N 
ENDROOT
BRANCH   1   5
ATOM      2  C   UNL     1     -12.641   8.820 129.642  0.00  0.00    +0.000 A 
ATOM      3  C   UNL     1     -13.104   8.188 130.782  0.00  0.00    +0.000 A 
ATOM      4  C   UNL     1     -12.367   7.124 131.341  0.00  0.00    +0.000 A 
ATOM      5  C   UNL     1     -11.155   6.731 130.790  0.00  0.00    +0.000 A 
ATOM      6  C   UNL     1     -10.770   7.563 129.751  0.00  0.00    +0.000 A 
ATOM      7  N   UNL     1     -11.483   8.503 129.101  0.00  0.00    +0.000 NA
BRANCH   2   9
ATOM      8  C   UNL     1     -13.505  10.917 129.913  0.00  0.00    +0.000 C 
ATOM      9  O   UNL     1     -13.268   9.847 129.012  0.00  0.00    +0.000 OA
ENDBRANCH   2   9
ENDBRANCH   1   5
BRANCH   1  10
ATOM     10  S   UNL     1     -10.152   4.251 130.219  0.00  0.00    +0.000 S 
ATOM     11  O   UNL     1     -11.477   3.676 130.028  0.00  0.00    +0.000 OA
ATOM     12  O   UNL     1      -9.404   4.720 129.072  0.00  0.00    +0.000 OA
BRANCH  10  13
ATOM     13  C   UNL     1      -9.157   2.935 130.922  0.00  0.00    +0.000 A 
ATOM     14  C   UNL     1      -9.678   1.871 131.649  0.00  0.00    +0.000 A 
ATOM     15  C   UNL     1      -8.859   1.012 132.375  0.00  0.00    +0.000 A 
ATOM     16  C   UNL     1      -7.488   1.068 132.194  0.00  0.00    +0.000 A 
ATOM     17  C   UNL     1      -6.942   2.038 131.356  0.00  0.00    +0.000 A 
ATOM     18  C   UNL     1      -7.766   2.996 130.750  0.00  0.00    +0.000 A 
ENDBRANCH  10  13
ENDBRANCH   1  10
BRANCH   1  19
ATOM     19  C   UNL     1      -9.587   5.625 132.563  0.00  0.00    +0.000 C 
BRANCH  19  20
ATOM     20  C   UNL     1      -8.149   6.089 132.678  0.00  0.00    +0.000 A 
ATOM     21  C   UNL     1      -7.352   5.615 133.713  0.00  0.00    +0.000 A 
ATOM     22  C   UNL     1      -5.969   5.630 133.524  0.00  0.00    +0.000 A 
ATOM     23  C   UNL     1      -5.410   6.157 132.349  0.00  0.00    +0.000 A 
ATOM     24  C   UNL     1      -6.291   6.695 131.413  0.00  0.00    +0.000 A 
ATOM     25  N   UNL     1      -7.636   6.688 131.559  0.00  0.00    +0.000 NA
BRANCH  23  26
ATOM     26  C   UNL     1      -3.963   6.174 132.131  0.00  0.00    +0.000 A 
ATOM     27  C   UNL     1      -3.273   7.335 132.516  0.00  0.00    +0.000 A 
ATOM     28  C   UNL     1      -1.888   7.410 132.436  0.00  0.00    +0.000 A 
ATOM     29  C   UNL     1      -1.165   6.324 131.959  0.00  0.00    +0.000 A 
ATOM     30  C   UNL     1      -1.828   5.173 131.536  0.00  0.00    +0.000 A 
ATOM     31  C   UNL     1      -3.227   5.085 131.607  0.00  0.00    +0.000 A 
ATOM     32  C   UNL     1      -3.889   3.837 131.090  0.00  0.00    +0.000 C 
ENDBRANCH  23  26
ENDBRANCH  19  20
ENDBRANCH   1  19
TORSDOF 7
ENDMDL
MODEL 4
REMARK VINA RESULT:      -8.6      1.796      3.083
REMARK  Name = CHEMBL457998
REMARK  9 active torsions:
REMARK  status: ('A' for Active; 'I' for Inactive)
REMARK    1  A    between atoms: C_1  and  O_2
REMARK    2  A    between atoms: O_2  and  C_3
REMARK    3  A    between atoms: C_6  and  N_7
REMARK    4  A    between atoms: N_7  and  C_8
REMARK    5  A    between atoms: N_7  and  S_22
REMARK    6  A    between atoms: C_8  and  C_9
REMARK    7  A    between atoms: C_12  and  C_13
REMARK    8  A    between atoms: C_18  and  C_19
REMARK    9  A    between atoms: S_22  and  C_25
REMARK                            x       y       z     vdW  Elec       q    Type
REMARK                         _______ _______ _______ _____ _____    ______ ____
ROOT
ATOM      1  N   UNL     1      -8.068   1.981 123.597  0.00  0.00    +0.000 N 
ENDROOT
BRANCH   1   5
ATOM      2  C   UNL     1      -7.047   4.188 120.080  0.00  0.00    +0.000 A 
ATOM      3  C   UNL     1      -6.024   3.630 120.824  0.00  0.00    +0.000 A 
ATOM      4  C   UNL     1      -6.325   2.897 121.991  0.00  0.00    +0.000 A 
ATOM      5  C   UNL     1      -7.642   2.687 122.379  0.00  0.00    +0.000 A 
ATOM      6  C   UNL     1      -8.538   3.183 121.445  0.00  0.00    +0.000 A 
ATOM      7  N   UNL     1      -8.312   3.991 120.390  0.00  0.00    +0.000 NA
BRANCH   2   9
ATOM      8  C   UNL     1      -5.627   5.589 118.969  0.00  0.00    +0.000 C 
ATOM      9  O   UNL     1      -6.877   4.918 118.948  0.00  0.00    +0.000 OA
ENDBRANCH   2   9
ENDBRANCH   1   5
BRANCH   1  10
ATOM     10  S   UNL     1      -8.012   2.847 125.084  0.00  0.00    +0.000 S 
ATOM     11  O   UNL     1      -7.748   4.243 124.762  0.00  0.00    +0.000 OA
ATOM     12  O   UNL     1      -9.220   2.494 125.800  0.00  0.00    +0.000 OA
BRANCH  10  13
ATOM     13  C   UNL     1      -6.666   2.339 126.155  0.00  0.00    +0.000 A 
ATOM     14  C   UNL     1      -6.844   1.816 127.431  0.00  0.00    +0.000 A 
ATOM     15  C   UNL     1      -5.778   1.662 128.312  0.00  0.00    +0.000 A 
ATOM     16  C   UNL     1      -4.485   1.814 127.845  0.00  0.00    +0.000 A 
ATOM     17  C   UNL     1      -4.269   2.202 126.523  0.00  0.00    +0.000 A 
ATOM     18  C   UNL     1      -5.354   2.502 125.688  0.00  0.00    +0.000 A 
ENDBRANCH  10  13
ENDBRANCH   1  10
BRANCH   1  19
ATOM     19  C   UNL     1      -8.610   0.585 123.591  0.00  0.00    +0.000 C 
BRANCH  19  20
ATOM     20  C   UNL     1      -8.073  -0.505 124.497  0.00  0.00    +0.000 A 
ATOM     21  C   UNL     1      -6.721  -0.821 124.470  0.00  0.00    +0.000 A 
ATOM     22  C   UNL     1      -6.173  -1.417 125.607  0.00  0.00    +0.000 A 
ATOM     23  C   UNL     1      -6.979  -1.732 126.713  0.00  0.00    +0.000 A 
ATOM     24  C   UNL     1      -8.341  -1.461 126.603  0.00  0.00    +0.000 A 
ATOM     25  N   UNL     1      -8.904  -0.876 125.520  0.00  0.00    +0.000 NA
BRANCH  23  26
ATOM     26  C   UNL     1      -6.420  -2.350 127.916  0.00  0.00    +0.000 A 
ATOM     27  C   UNL     1      -5.082  -2.051 128.223  0.00  0.00    +0.000 A 
ATOM     28  C   UNL     1      -4.491  -2.513 129.394  0.00  0.00    +0.000 A 
ATOM     29  C   UNL     1      -5.227  -3.293 130.276  0.00  0.00    +0.000 A 
ATOM     30  C   UNL     1      -6.545  -3.634 129.977  0.00  0.00    +0.000 A 
ATOM     31  C   UNL     1      -7.153  -3.178 128.797  0.00  0.00    +0.000 A 
ATOM     32  C   UNL     1      -8.561  -3.620 128.506  0.00  0.00    +0.000 C 
ENDBRANCH  23  26
ENDBRANCH  19  20
ENDBRANCH   1  19
TORSDOF 7
ENDMDL
MODEL 5
REMARK VINA RESULT:      -8.4      6.755      9.505
REMARK  Name = CHEMBL457998
REMARK  9 active torsions:
REMARK  status: ('A' for Active; 'I' for Inactive)
REMARK    1  A    between atoms: C_1  and  O_2
REMARK    2  A    between atoms: O_2  and  C_3
REMARK    3  A    between atoms: C_6  and  N_7
REMARK    4  A    between atoms: N_7  and  C_8
REMARK    5  A    between atoms: N_7  and  S_22
REMARK    6  A    between atoms: C_8  and  C_9
REMARK    7  A    between atoms: C_12  and  C_13
REMARK    8  A    between atoms: C_18  and  C_19
REMARK    9  A    between atoms: S_22  and  C_25
REMARK                            x       y       z     vdW  Elec       q    Type
REMARK                         _______ _______ _______ _____ _____    ______ ____
ROOT
ATOM      1  N   UNL     1      -4.808   4.584 128.789  0.00  0.00    +0.000 N 
ENDROOT
BRANCH   1   5
ATOM      2  C   UNL     1      -6.001   2.754 125.114  0.00  0.00    +0.000 A 
ATOM      3  C   UNL     1      -5.203   2.029 125.979  0.00  0.00    +0.000 A 
ATOM      4  C   UNL     1      -4.790   2.603 127.199  0.00  0.00    +0.000 A 
ATOM      5  C   UNL     1      -5.213   3.874 127.567  0.00  0.00    +0.000 A 
ATOM      6  C   UNL     1      -6.122   4.394 126.660  0.00  0.00    +0.000 A 
ATOM      7  N   UNL     1      -6.451   3.951 125.431  0.00  0.00    +0.000 NA
BRANCH   2   9
ATOM      8  C   UNL     1      -7.764   2.784 123.663  0.00  0.00    +0.000 C 
ATOM      9  O   UNL     1      -6.450   2.309 123.912  0.00  0.00    +0.000 OA
ENDBRANCH   2   9
ENDBRANCH   1   5
BRANCH   1  10
ATOM     10  S   UNL     1      -3.539   5.741 128.659  0.00  0.00    +0.000 S 
ATOM     11  O   UNL     1      -2.395   5.063 128.065  0.00  0.00    +0.000 OA
ATOM     12  O   UNL     1      -4.111   6.893 127.995  0.00  0.00    +0.000 OA
BRANCH  10  13
ATOM     13  C   UNL     1      -2.964   6.351 130.245  0.00  0.00    +0.000 A 
ATOM     14  C   UNL     1      -2.123   5.639 131.092  0.00  0.00    +0.000 A 
ATOM     15  C   UNL     1      -1.899   6.042 132.405  0.00  0.00    +0.000 A 
ATOM     16  C   UNL     1      -2.330   7.291 132.814  0.00  0.00    +0.000 A 
ATOM     17  C   UNL     1      -3.056   8.093 131.935  0.00  0.00    +0.000 A 
ATOM     18  C   UNL     1      -3.408   7.613 130.666  0.00  0.00    +0.000 A 
ENDBRANCH  10  13
ENDBRANCH   1  10
BRANCH   1  19
ATOM     19  C   UNL     1      -5.490   4.403 130.110  0.00  0.00    +0.000 C 
BRANCH  19  20
ATOM     20  C   UNL     1      -6.836   5.021 130.428  0.00  0.00    +0.000 A 
ATOM     21  C   UNL     1      -6.897   6.282 131.008  0.00  0.00    +0.000 A 
ATOM     22  C   UNL     1      -8.066   7.022 130.825  0.00  0.00    +0.000 A 
ATOM     23  C   UNL     1      -9.157   6.483 130.124  0.00  0.00    +0.000 A 
ATOM     24  C   UNL     1      -9.031   5.173 129.664  0.00  0.00    +0.000 A 
ATOM     25  N   UNL     1      -7.909   4.431 129.815  0.00  0.00    +0.000 NA
BRANCH  23  26
ATOM     26  C   UNL     1     -10.387   7.248 129.917  0.00  0.00    +0.000 A 
ATOM     27  C   UNL     1     -10.446   8.063 128.774  0.00  0.00    +0.000 A 
ATOM     28  C   UNL     1     -11.605   8.754 128.440  0.00  0.00    +0.000 A 
ATOM     29  C   UNL     1     -12.727   8.650 129.252  0.00  0.00    +0.000 A 
ATOM     30  C   UNL     1     -12.683   7.877 130.411  0.00  0.00    +0.000 A 
ATOM     31  C   UNL     1     -11.519   7.177 130.762  0.00  0.00    +0.000 A 
ATOM     32  C   UNL     1     -11.516   6.400 132.050  0.00  0.00    +0.000 C 
ENDBRANCH  23  26
ENDBRANCH  19  20
ENDBRANCH   1  19
TORSDOF 7
ENDMDL
MODEL 6
REMARK VINA RESULT:      -8.3      4.398      7.724
REMARK  Name = CHEMBL457998
REMARK  9 active torsions:
REMARK  status: ('A' for Active; 'I' for Inactive)
REMARK    1  A    between atoms: C_1  and  O_2
REMARK    2  A    between atoms: O_2  and  C_3
REMARK    3  A    between atoms: C_6  and  N_7
REMARK    4  A    between atoms: N_7  and  C_8
REMARK    5  A    between atoms: N_7  and  S_22
REMARK    6  A    between atoms: C_8  and  C_9
REMARK    7  A    between atoms: C_12  and  C_13
REMARK    8  A    between atoms: C_18  and  C_19
REMARK    9  A    between atoms: S_22  and  C_25
REMARK                            x       y       z     vdW  Elec       q    Type
REMARK                         _______ _______ _______ _____ _____    ______ ____
ROOT
ATOM      1  N   UNL     1      -7.431   1.466 131.393  0.00  0.00    +0.000 N 
ENDROOT
BRANCH   1   5
ATOM      2  C   UNL     1      -9.437   5.067 132.528  0.00  0.00    +0.000 A 
ATOM      3  C   UNL     1      -9.138   4.143 133.514  0.00  0.00    +0.000 A 
ATOM      4  C   UNL     1      -8.479   2.945 133.173  0.00  0.00    +0.000 A 
ATOM      5  C   UNL     1      -8.081   2.697 131.866  0.00  0.00    +0.000 A 
ATOM      6  C   UNL     1      -8.323   3.785 131.042  0.00  0.00    +0.000 A 
ATOM      7  N   UNL     1      -9.055   4.891 131.280  0.00  0.00    +0.000 NA
BRANCH   2   9
ATOM      8  C   UNL     1     -11.230   6.342 131.918  0.00  0.00    +0.000 C 
ATOM      9  O   UNL     1     -10.075   6.247 132.736  0.00  0.00    +0.000 OA
ENDBRANCH   2   9
ENDBRANCH   1   5
BRANCH   1  10
ATOM     10  S   UNL     1      -8.027  -0.034 131.992  0.00  0.00    +0.000 S 
ATOM     11  O   UNL     1      -7.496  -0.204 133.338  0.00  0.00    +0.000 OA
ATOM     12  O   UNL     1      -9.459  -0.010 131.785  0.00  0.00    +0.000 OA
BRANCH  10  13
ATOM     13  C   UNL     1      -7.443  -1.455 131.065  0.00  0.00    +0.000 A 
ATOM     14  C   UNL     1      -8.159  -2.060 130.038  0.00  0.00    +0.000 A 
ATOM     15  C   UNL     1      -7.782  -3.293 129.514  0.00  0.00    +0.000 A 
ATOM     16  C   UNL     1      -6.551  -3.826 129.852  0.00  0.00    +0.000 A 
ATOM     17  C   UNL     1      -5.743  -3.166 130.777  0.00  0.00    +0.000 A 
ATOM     18  C   UNL     1      -6.200  -2.003 131.413  0.00  0.00    +0.000 A 
ENDBRANCH  10  13
ENDBRANCH   1  10
BRANCH   1  19
ATOM     19  C   UNL     1      -6.337   1.454 130.370  0.00  0.00    +0.000 C 
BRANCH  19  20
ATOM     20  C   UNL     1      -6.561   1.019 128.936  0.00  0.00    +0.000 A 
ATOM     21  C   UNL     1      -5.665   0.145 128.333  0.00  0.00    +0.000 A 
ATOM     22  C   UNL     1      -6.129  -0.620 127.261  0.00  0.00    +0.000 A 
ATOM     23  C   UNL     1      -7.440  -0.466 126.783  0.00  0.00    +0.000 A 
ATOM     24  C   UNL     1      -8.229   0.505 127.396  0.00  0.00    +0.000 A 
ATOM     25  N   UNL     1      -7.815   1.257 128.442  0.00  0.00    +0.000 NA
BRANCH  23  26
ATOM     26  C   UNL     1      -7.945  -1.265 125.666  0.00  0.00    +0.000 A 
ATOM     27  C   UNL     1      -8.623  -2.453 125.986  0.00  0.00    +0.000 A 
ATOM     28  C   UNL     1      -9.221  -3.230 125.001  0.00  0.00    +0.000 A 
ATOM     29  C   UNL     1      -9.143  -2.837 123.671  0.00  0.00    +0.000 A 
ATOM     30  C   UNL     1      -8.445  -1.682 123.323  0.00  0.00    +0.000 A 
ATOM     31  C   UNL     1      -7.833  -0.890 124.306  0.00  0.00    +0.000 A 
ATOM     32  C   UNL     1      -7.053   0.318 123.864  0.00  0.00    +0.000 C 
ENDBRANCH  23  26
ENDBRANCH  19  20
ENDBRANCH   1  19
TORSDOF 7
ENDMDL
MODEL 7
REMARK VINA RESULT:      -8.3      2.959      4.300
REMARK  Name = CHEMBL457998
REMARK  9 active torsions:
REMARK  status: ('A' for Active; 'I' for Inactive)
REMARK    1  A    between atoms: C_1  and  O_2
REMARK    2  A    between atoms: O_2  and  C_3
REMARK    3  A    between atoms: C_6  and  N_7
REMARK    4  A    between atoms: N_7  and  C_8
REMARK    5  A    between atoms: N_7  and  S_22
REMARK    6  A    between atoms: C_8  and  C_9
REMARK    7  A    between atoms: C_12  and  C_13
REMARK    8  A    between atoms: C_18  and  C_19
REMARK    9  A    between atoms: S_22  and  C_25
REMARK                            x       y       z     vdW  Elec       q    Type
REMARK                         _______ _______ _______ _____ _____    ______ ____
ROOT
ATOM      1  N   UNL     1      -8.795   0.776 124.657  0.00  0.00    +0.000 N 
ENDROOT
BRANCH   1   5
ATOM      2  C   UNL     1      -7.255   3.274 121.548  0.00  0.00    +0.000 A 
ATOM      3  C   UNL     1      -8.622   3.245 121.749  0.00  0.00    +0.000 A 
ATOM      4  C   UNL     1      -9.164   2.431 122.765  0.00  0.00    +0.000 A 
ATOM      5  C   UNL     1      -8.337   1.691 123.600  0.00  0.00    +0.000 A 
ATOM      6  C   UNL     1      -6.998   1.951 123.358  0.00  0.00    +0.000 A 
ATOM      7  N   UNL     1      -6.428   2.613 122.332  0.00  0.00    +0.000 NA
BRANCH   2   9
ATOM      8  C   UNL     1      -5.296   4.311 120.997  0.00  0.00    +0.000 C 
ATOM      9  O   UNL     1      -6.624   4.011 120.597  0.00  0.00    +0.000 OA
ENDBRANCH   2   9
ENDBRANCH   1   5
BRANCH   1  10
ATOM     10  S   UNL     1      -9.005  -0.882 124.245  0.00  0.00    +0.000 S 
ATOM     11  O   UNL     1      -9.653  -1.530 125.377  0.00  0.00    +0.000 OA
ATOM     12  O   UNL     1      -9.648  -0.896 122.948  0.00  0.00    +0.000 OA
BRANCH  10  13
ATOM     13  C   UNL     1      -7.458  -1.761 124.011  0.00  0.00    +0.000 A 
ATOM     14  C   UNL     1      -6.769  -2.404 125.033  0.00  0.00    +0.000 A 
ATOM     15  C   UNL     1      -5.467  -2.862 124.859  0.00  0.00    +0.000 A 
ATOM     16  C   UNL     1      -4.922  -2.889 123.588  0.00  0.00    +0.000 A 
ATOM     17  C   UNL     1      -5.649  -2.379 122.514  0.00  0.00    +0.000 A 
ATOM     18  C   UNL     1      -6.899  -1.780 122.726  0.00  0.00    +0.000 A 
ENDBRANCH  10  13
ENDBRANCH   1  10
BRANCH   1  19
ATOM     19  C   UNL     1      -9.013   1.203 126.076  0.00  0.00    +0.000 C 
BRANCH  19  20
ATOM     20  C   UNL     1      -7.884   1.670 126.973  0.00  0.00    +0.000 A 
ATOM     21  C   UNL     1      -6.617   1.118 126.831  0.00  0.00    +0.000 A 
ATOM     22  C   UNL     1      -5.529   1.875 127.268  0.00  0.00    +0.000 A 
ATOM     23  C   UNL     1      -5.721   3.125 127.878  0.00  0.00    +0.000 A 
ATOM     24  C   UNL     1      -7.036   3.547 128.060  0.00  0.00    +0.000 A 
ATOM     25  N   UNL     1      -8.114   2.843 127.640  0.00  0.00    +0.000 NA
BRANCH  23  26
ATOM     26  C   UNL     1      -4.591   3.935 128.335  0.00  0.00    +0.000 A 
ATOM     27  C   UNL     1      -4.109   4.913 127.451  0.00  0.00    +0.000 A 
ATOM     28  C   UNL     1      -3.102   5.794 127.830  0.00  0.00    +0.000 A 
ATOM     29  C   UNL     1      -2.551   5.706 129.102  0.00  0.00    +0.000 A 
ATOM     30  C   UNL     1      -2.987   4.720 129.985  0.00  0.00    +0.000 A 
ATOM     31  C   UNL     1      -3.999   3.821 129.615  0.00  0.00    +0.000 A 
ATOM     32  C   UNL     1      -4.392   2.749 130.594  0.00  0.00    +0.000 C 
ENDBRANCH  23  26
ENDBRANCH  19  20
ENDBRANCH   1  19
TORSDOF 7
ENDMDL
MODEL 8
REMARK VINA RESULT:      -8.2      4.289      7.108
REMARK  Name = CHEMBL457998
REMARK  9 active torsions:
REMARK  status: ('A' for Active; 'I' for Inactive)
REMARK    1  A    between atoms: C_1  and  O_2
REMARK    2  A    between atoms: O_2  and  C_3
REMARK    3  A    between atoms: C_6  and  N_7
REMARK    4  A    between atoms: N_7  and  C_8
REMARK    5  A    between atoms: N_7  and  S_22
REMARK    6  A    between atoms: C_8  and  C_9
REMARK    7  A    between atoms: C_12  and  C_13
REMARK    8  A    between atoms: C_18  and  C_19
REMARK    9  A    between atoms: S_22  and  C_25
REMARK                            x       y       z     vdW  Elec       q    Type
REMARK                         _______ _______ _______ _____ _____    ______ ____
ROOT
ATOM      1  N   UNL     1      -6.969   2.048 124.883  0.00  0.00    +0.000 N 
ENDROOT
BRANCH   1   5
ATOM      2  C   UNL     1      -7.784  -1.842 126.458  0.00  0.00    +0.000 A 
ATOM      3  C   UNL     1      -8.220  -0.741 127.172  0.00  0.00    +0.000 A 
ATOM      4  C   UNL     1      -7.967   0.556 126.681  0.00  0.00    +0.000 A 
ATOM      5  C   UNL     1      -7.324   0.745 125.465  0.00  0.00    +0.000 A 
ATOM      6  C   UNL     1      -7.092  -0.457 124.816  0.00  0.00    +0.000 A 
ATOM      7  N   UNL     1      -7.196  -1.716 125.286  0.00  0.00    +0.000 NA
BRANCH   2   9
ATOM      8  C   UNL     1      -8.122  -3.227 128.242  0.00  0.00    +0.000 C 
ATOM      9  O   UNL     1      -7.962  -3.135 126.836  0.00  0.00    +0.000 OA
ENDBRANCH   2   9
ENDBRANCH   1   5
BRANCH   1  10
ATOM     10  S   UNL     1      -8.178   2.877 123.980  0.00  0.00    +0.000 S 
ATOM     11  O   UNL     1      -9.309   1.970 123.837  0.00  0.00    +0.000 OA
ATOM     12  O   UNL     1      -8.364   4.155 124.635  0.00  0.00    +0.000 OA
BRANCH  10  13
ATOM     13  C   UNL     1      -7.670   3.277 122.307  0.00  0.00    +0.000 A 
ATOM     14  C   UNL     1      -6.344   3.353 121.895  0.00  0.00    +0.000 A 
ATOM     15  C   UNL     1      -5.993   3.896 120.663  0.00  0.00    +0.000 A 
ATOM     16  C   UNL     1      -6.981   4.158 119.731  0.00  0.00    +0.000 A 
ATOM     17  C   UNL     1      -8.318   3.956 120.067  0.00  0.00    +0.000 A 
ATOM     18  C   UNL     1      -8.670   3.553 121.363  0.00  0.00    +0.000 A 
ENDBRANCH  10  13
ENDBRANCH   1  10
BRANCH   1  19
ATOM     19  C   UNL     1      -5.644   2.712 125.100  0.00  0.00    +0.000 C 
BRANCH  19  20
ATOM     20  C   UNL     1      -5.036   2.895 126.476  0.00  0.00    +0.000 A 
ATOM     21  C   UNL     1      -3.696   2.593 126.684  0.00  0.00    +0.000 A 
ATOM     22  C   UNL     1      -3.048   3.222 127.748  0.00  0.00    +0.000 A 
ATOM     23  C   UNL     1      -3.748   4.087 128.606  0.00  0.00    +0.000 A 
ATOM     24  C   UNL     1      -5.111   4.250 128.368  0.00  0.00    +0.000 A 
ATOM     25  N   UNL     1      -5.769   3.663 127.341  0.00  0.00    +0.000 NA
BRANCH  23  26
ATOM     26  C   UNL     1      -3.083   4.761 129.721  0.00  0.00    +0.000 A 
ATOM     27  C   UNL     1      -3.160   4.141 130.979  0.00  0.00    +0.000 A 
ATOM     28  C   UNL     1      -2.482   4.654 132.079  0.00  0.00    +0.000 A 
ATOM     29  C   UNL     1      -1.719   5.807 131.942  0.00  0.00    +0.000 A 
ATOM     30  C   UNL     1      -1.656   6.462 130.713  0.00  0.00    +0.000 A 
ATOM     31  C   UNL     1      -2.338   5.958 129.596  0.00  0.00    +0.000 A 
ATOM     32  C   UNL     1      -2.272   6.735 128.310  0.00  0.00    +0.000 C 
ENDBRANCH  23  26
ENDBRANCH  19  20
ENDBRANCH   1  19
TORSDOF 7
ENDMDL
MODEL 9
REMARK VINA RESULT:      -8.2      5.701      9.151
REMARK  Name = CHEMBL457998
REMARK  9 active torsions:
REMARK  status: ('A' for Active; 'I' for Inactive)
REMARK    1  A    between atoms: C_1  and  O_2
REMARK    2  A    between atoms: O_2  and  C_3
REMARK    3  A    between atoms: C_6  and  N_7
REMARK    4  A    between atoms: N_7  and  C_8
REMARK    5  A    between atoms: N_7  and  S_22
REMARK    6  A    between atoms: C_8  and  C_9
REMARK    7  A    between atoms: C_12  and  C_13
REMARK    8  A    between atoms: C_18  and  C_19
REMARK    9  A    between atoms: S_22  and  C_25
REMARK                            x       y       z     vdW  Elec       q    Type
REMARK                         _______ _______ _______ _____ _____    ______ ____
ROOT
ATOM      1  N   UNL     1      -8.900   3.991 130.489  0.00  0.00    +0.000 N 
ENDROOT
BRANCH   1   5
ATOM      2  C   UNL     1      -6.829   3.645 134.214  0.00  0.00    +0.000 A 
ATOM      3  C   UNL     1      -8.191   3.886 134.240  0.00  0.00    +0.000 A 
ATOM      4  C   UNL     1      -8.904   4.007 133.030  0.00  0.00    +0.000 A 
ATOM      5  C   UNL     1      -8.265   3.841 131.807  0.00  0.00    +0.000 A 
ATOM      6  C   UNL     1      -6.943   3.459 131.967  0.00  0.00    +0.000 A 
ATOM      7  N   UNL     1      -6.185   3.451 133.081  0.00  0.00    +0.000 NA
BRANCH   2   9
ATOM      8  C   UNL     1      -5.816   4.783 135.914  0.00  0.00    +0.000 C 
ATOM      9  O   UNL     1      -6.040   3.519 135.312  0.00  0.00    +0.000 OA
ENDBRANCH   2   9
ENDBRANCH   1   5
BRANCH   1  10
ATOM     10  S   UNL     1      -8.872   5.551 129.761  0.00  0.00    +0.000 S 
ATOM     11  O   UNL     1      -7.747   6.277 130.336  0.00  0.00    +0.000 OA
ATOM     12  O   UNL     1      -8.925   5.329 128.332  0.00  0.00    +0.000 OA
BRANCH  10  13
ATOM     13  C   UNL     1     -10.322   6.540 130.136  0.00  0.00    +0.000 A 
ATOM     14  C   UNL     1     -11.127   6.344 131.253  0.00  0.00    +0.000 A 
ATOM     15  C   UNL     1     -12.364   6.968 131.379  0.00  0.00    +0.000 A 
ATOM     16  C   UNL     1     -12.708   7.977 130.495  0.00  0.00    +0.000 A 
ATOM     17  C   UNL     1     -11.851   8.295 129.444  0.00  0.00    +0.000 A 
ATOM     18  C   UNL     1     -10.678   7.555 129.237  0.00  0.00    +0.000 A 
ENDBRANCH  10  13
ENDBRANCH   1  10
BRANCH   1  19
ATOM     19  C   UNL     1      -9.496   2.847 129.729  0.00  0.00    +0.000 C 
BRANCH  19  20
ATOM     20  C   UNL     1      -8.670   1.929 128.851  0.00  0.00    +0.000 A 
ATOM     21  C   UNL     1      -7.979   0.867 129.421  0.00  0.00    +0.000 A 
ATOM     22  C   UNL     1      -7.669  -0.219 128.601  0.00  0.00    +0.000 A 
ATOM     23  C   UNL     1      -8.000  -0.206 127.236  0.00  0.00    +0.000 A 
ATOM     24  C   UNL     1      -8.608   0.946 126.741  0.00  0.00    +0.000 A 
ATOM     25  N   UNL     1      -8.931   2.012 127.509  0.00  0.00    +0.000 NA
BRANCH  23  26
ATOM     26  C   UNL     1      -7.690  -1.339 126.363  0.00  0.00    +0.000 A 
ATOM     27  C   UNL     1      -8.689  -2.313 126.203  0.00  0.00    +0.000 A 
ATOM     28  C   UNL     1      -8.525  -3.376 125.322  0.00  0.00    +0.000 A 
ATOM     29  C   UNL     1      -7.350  -3.489 124.590  0.00  0.00    +0.000 A 
ATOM     30  C   UNL     1      -6.329  -2.557 124.758  0.00  0.00    +0.000 A 
ATOM     31  C   UNL     1      -6.479  -1.481 125.646  0.00  0.00    +0.000 A 
ATOM     32  C   UNL     1      -5.323  -0.535 125.821  0.00  0.00    +0.000 C 
ENDBRANCH  23  26
ENDBRANCH  19  20
ENDBRANCH   1  19
TORSDOF 7
ENDMDL
