MODEL 1
REMARK VINA RESULT:      -9.3      0.000      0.000
REMARK  Name = CHEMBL2017980
REMARK  8 active torsions:
REMARK  status: ('A' for Active; 'I' for Inactive)
REMARK    1  A    between atoms: C_1  and  S_2
REMARK    2  A    between atoms: S_2  and  N_5
REMARK    3  A    between atoms: C_8  and  O_9
REMARK    4  A    between atoms: O_9  and  C_10
REMARK    5  A    between atoms: C_13  and  C_14
REMARK    6  A    between atoms: C_14  and  C_15
REMARK    7  A    between atoms: C_20  and  N_21
REMARK    8  A    between atoms: C_34  and  O_35
REMARK                            x       y       z     vdW  Elec       q    Type
REMARK                         _______ _______ _______ _____ _____    ______ ____
ROOT
ATOM      1  C   UNL     1      -7.531  -2.328 126.249  0.00  0.00    +0.000 C 
ENDROOT
BRANCH   1   2
ATOM      2  C   UNL     1      -8.649  -1.370 125.685  0.00  0.00    +0.000 C 
ATOM      3  O   UNL     1      -9.824  -1.615 125.427  0.00  0.00    +0.000 OA
ATOM      4  N   UNL     1      -8.253  -0.093 125.411  0.00  0.00    +0.000 N 
ATOM      5  C   UNL     1      -9.254   0.982 125.680  0.00  0.00    +0.000 C 
ATOM      6  C   UNL     1      -9.840   1.613 124.436  0.00  0.00    +0.000 C 
ATOM      7  C   UNL     1      -8.744   1.885 123.415  0.00  0.00    +0.000 C 
ATOM      8  C   UNL     1      -7.966   0.622 123.057  0.00  0.00    +0.000 C 
ATOM      9  C   UNL     1      -7.337  -0.014 124.273  0.00  0.00    +0.000 C 
BRANCH   7  10
ATOM     10  N   UNL     1      -7.862   3.023 123.817  0.00  0.00    +0.000 N 
ATOM     11  C   UNL     1      -7.963   3.667 125.066  0.00  0.00    +0.000 C 
ATOM     12  O   UNL     1      -8.717   3.432 126.005  0.00  0.00    +0.000 OA
ATOM     13  C   UNL     1      -7.130   4.859 125.321  0.00  0.00    +0.000 C 
ATOM     14  C   UNL     1      -5.744   4.597 124.843  0.00  0.00    +0.000 C 
ATOM     15  C   UNL     1      -5.800   4.241 123.390  0.00  0.00    +0.000 A 
ATOM     16  C   UNL     1      -4.775   4.660 122.542  0.00  0.00    +0.000 A 
ATOM     17  C   UNL     1      -4.790   4.307 121.197  0.00  0.00    +0.000 A 
ATOM     18  C   UNL     1      -5.823   3.528 120.693  0.00  0.00    +0.000 A 
ATOM     19  C   UNL     1      -6.848   3.103 121.536  0.00  0.00    +0.000 A 
ATOM     20  C   UNL     1      -6.846   3.444 122.898  0.00  0.00    +0.000 A 
ENDBRANCH   7  10
ENDBRANCH   1   2
BRANCH   1  24
ATOM     21  C   UNL     1      -6.735  -1.916 130.569  0.00  0.00    +0.000 A 
ATOM     22  C   UNL     1      -7.562  -2.933 130.166  0.00  0.00    +0.000 A 
ATOM     23  C   UNL     1      -7.877  -3.104 128.756  0.00  0.00    +0.000 A 
ATOM     24  C   UNL     1      -7.264  -2.344 127.732  0.00  0.00    +0.000 A 
ATOM     25  C   UNL     1      -6.236  -1.623 128.181  0.00  0.00    +0.000 A 
ATOM     26  C   UNL     1      -6.183  -1.310 129.500  0.00  0.00    +0.000 A 
BRANCH  25  27
ATOM     27  O   UNL     1      -5.191  -1.197 127.430  0.00  0.00    +0.000 OA
ATOM     28  H   UNL     1      -4.599  -1.999 127.371  0.00  0.00    +0.000 HD
ENDBRANCH  25  27
BRANCH  21  29
ATOM     29  O   UNL     1      -6.415  -1.592 131.851  0.00  0.00    +0.000 OA
BRANCH  29  33
ATOM     30  N   UNL     1      -7.758   1.956 131.152  0.00  0.00    +0.000 NA
ATOM     31  C   UNL     1      -8.658   0.672 131.015  0.00  0.00    +0.000 C 
ATOM     32  C   UNL     1      -8.530  -0.228 132.230  0.00  0.00    +0.000 C 
ATOM     33  C   UNL     1      -7.075  -0.522 132.625  0.00  0.00    +0.000 C 
ATOM     34  C   UNL     1      -6.287   0.781 132.876  0.00  0.00    +0.000 C 
ATOM     35  C   UNL     1      -6.309   1.768 131.719  0.00  0.00    +0.000 C 
BRANCH  30  37
ATOM     36  C   UNL     1      -6.738   2.251 128.556  0.00  0.00    +0.000 C 
ATOM     37  S   UNL     1      -7.932   2.938 129.718  0.00  0.00    +0.000 S 
ATOM     38  O   UNL     1      -7.565   4.284 130.050  0.00  0.00    +0.000 OA
ATOM     39  O   UNL     1      -9.281   2.722 129.219  0.00  0.00    +0.000 OA
ENDBRANCH  30  37
ENDBRANCH  29  33
ENDBRANCH  21  29
ENDBRANCH   1  24
TORSDOF 7
ENDMDL
MODEL 2
REMARK VINA RESULT:      -9.1      3.921      6.908
REMARK  Name = CHEMBL2017980
REMARK  8 active torsions:
REMARK  status: ('A' for Active; 'I' for Inactive)
REMARK    1  A    between atoms: C_1  and  S_2
REMARK    2  A    between atoms: S_2  and  N_5
REMARK    3  A    between atoms: C_8  and  O_9
REMARK    4  A    between atoms: O_9  and  C_10
REMARK    5  A    between atoms: C_13  and  C_14
REMARK    6  A    between atoms: C_14  and  C_15
REMARK    7  A    between atoms: C_20  and  N_21
REMARK    8  A    between atoms: C_34  and  O_35
REMARK                            x       y       z     vdW  Elec       q    Type
REMARK                         _______ _______ _______ _____ _____    ______ ____
ROOT
ATOM      1  C   UNL     1      -5.693   1.330 131.098  0.00  0.00    +0.000 C 
ENDROOT
BRANCH   1   2
ATOM      2  C   UNL     1      -5.728  -0.246 131.090  0.00  0.00    +0.000 C 
ATOM      3  O   UNL     1      -5.240  -1.038 131.891  0.00  0.00    +0.000 OA
ATOM      4  N   UNL     1      -6.363  -0.821 130.027  0.00  0.00    +0.000 N 
ATOM      5  C   UNL     1      -7.128  -2.072 130.310  0.00  0.00    +0.000 C 
ATOM      6  C   UNL     1      -6.495  -3.328 129.751  0.00  0.00    +0.000 C 
ATOM      7  C   UNL     1      -6.006  -3.085 128.329  0.00  0.00    +0.000 C 
ATOM      8  C   UNL     1      -5.030  -1.916 128.250  0.00  0.00    +0.000 C 
ATOM      9  C   UNL     1      -5.642  -0.637 128.767  0.00  0.00    +0.000 C 
BRANCH   7  10
ATOM     10  N   UNL     1      -7.131  -2.978 127.351  0.00  0.00    +0.000 N 
ATOM     11  C   UNL     1      -8.469  -3.265 127.688  0.00  0.00    +0.000 C 
ATOM     12  O   UNL     1      -8.945  -3.612 128.764  0.00  0.00    +0.000 OA
ATOM     13  C   UNL     1      -9.490  -3.248 126.621  0.00  0.00    +0.000 C 
ATOM     14  C   UNL     1      -9.285  -2.044 125.769  0.00  0.00    +0.000 C 
ATOM     15  C   UNL     1      -7.890  -2.077 125.223  0.00  0.00    +0.000 A 
ATOM     16  C   UNL     1      -7.648  -1.607 123.933  0.00  0.00    +0.000 A 
ATOM     17  C   UNL     1      -6.355  -1.594 123.423  0.00  0.00    +0.000 A 
ATOM     18  C   UNL     1      -5.295  -2.045 124.200  0.00  0.00    +0.000 A 
ATOM     19  C   UNL     1      -5.531  -2.512 125.491  0.00  0.00    +0.000 A 
ATOM     20  C   UNL     1      -6.829  -2.526 126.025  0.00  0.00    +0.000 A 
ENDBRANCH   7  10
ENDBRANCH   1   2
BRANCH   1  24
ATOM     21  C   UNL     1      -9.368   3.771 131.131  0.00  0.00    +0.000 A 
ATOM     22  C   UNL     1      -8.817   3.464 129.914  0.00  0.00    +0.000 A 
ATOM     23  C   UNL     1      -7.594   2.679 129.843  0.00  0.00    +0.000 A 
ATOM     24  C   UNL     1      -6.989   2.089 130.978  0.00  0.00    +0.000 A 
ATOM     25  C   UNL     1      -7.768   2.153 132.059  0.00  0.00    +0.000 A 
ATOM     26  C   UNL     1      -8.731   3.108 132.115  0.00  0.00    +0.000 A 
BRANCH  25  27
ATOM     27  O   UNL     1      -7.713   1.306 133.115  0.00  0.00    +0.000 OA
ATOM     28  H   UNL     1      -7.048   1.734 133.727  0.00  0.00    +0.000 HD
ENDBRANCH  25  27
BRANCH  21  29
ATOM     29  O   UNL     1     -10.458   4.555 131.351  0.00  0.00    +0.000 OA
BRANCH  29  33
ATOM     30  N   UNL     1     -11.547   7.884 129.737  0.00  0.00    +0.000 NA
ATOM     31  C   UNL     1     -12.482   7.072 130.708  0.00  0.00    +0.000 C 
ATOM     32  C   UNL     1     -11.748   6.660 131.970  0.00  0.00    +0.000 C 
ATOM     33  C   UNL     1     -10.394   5.987 131.698  0.00  0.00    +0.000 C 
ATOM     34  C   UNL     1      -9.475   6.896 130.854  0.00  0.00    +0.000 C 
ATOM     35  C   UNL     1     -10.081   7.364 129.540  0.00  0.00    +0.000 C 
BRANCH  30  37
ATOM     36  C   UNL     1     -13.628   6.971 128.092  0.00  0.00    +0.000 C 
ATOM     37  S   UNL     1     -12.441   8.312 128.299  0.00  0.00    +0.000 S 
ATOM     38  O   UNL     1     -11.529   8.325 127.192  0.00  0.00    +0.000 OA
ATOM     39  O   UNL     1     -13.147   9.549 128.592  0.00  0.00    +0.000 OA
ENDBRANCH  30  37
ENDBRANCH  29  33
ENDBRANCH  21  29
ENDBRANCH   1  24
TORSDOF 7
ENDMDL
MODEL 3
REMARK VINA RESULT:      -9.1      3.224      7.397
REMARK  Name = CHEMBL2017980
REMARK  8 active torsions:
REMARK  status: ('A' for Active; 'I' for Inactive)
REMARK    1  A    between atoms: C_1  and  S_2
REMARK    2  A    between atoms: S_2  and  N_5
REMARK    3  A    between atoms: C_8  and  O_9
REMARK    4  A    between atoms: O_9  and  C_10
REMARK    5  A    between atoms: C_13  and  C_14
REMARK    6  A    between atoms: C_14  and  C_15
REMARK    7  A    between atoms: C_20  and  N_21
REMARK    8  A    between atoms: C_34  and  O_35
REMARK                            x       y       z     vdW  Elec       q    Type
REMARK                         _______ _______ _______ _____ _____    ______ ____
ROOT
ATOM      1  C   UNL     1      -8.074   4.099 125.067  0.00  0.00    +0.000 C 
ENDROOT
BRANCH   1   2
ATOM      2  C   UNL     1      -6.509   4.264 125.159  0.00  0.00    +0.000 C 
ATOM      3  O   UNL     1      -5.694   4.462 124.262  0.00  0.00    +0.000 OA
ATOM      4  N   UNL     1      -5.971   4.137 126.407  0.00  0.00    +0.000 N 
ATOM      5  C   UNL     1      -4.807   5.019 126.718  0.00  0.00    +0.000 C 
ATOM      6  C   UNL     1      -3.482   4.293 126.807  0.00  0.00    +0.000 C 
ATOM      7  C   UNL     1      -3.641   2.999 127.594  0.00  0.00    +0.000 C 
ATOM      8  C   UNL     1      -4.709   2.090 126.995  0.00  0.00    +0.000 C 
ATOM      9  C   UNL     1      -6.053   2.772 126.926  0.00  0.00    +0.000 C 
BRANCH   7  10
ATOM     10  N   UNL     1      -3.831   3.243 129.057  0.00  0.00    +0.000 N 
ATOM     11  C   UNL     1      -4.616   2.408 129.877  0.00  0.00    +0.000 C 
ATOM     12  O   UNL     1      -5.233   1.387 129.588  0.00  0.00    +0.000 OA
ATOM     13  C   UNL     1      -4.842   2.800 131.283  0.00  0.00    +0.000 C 
ATOM     14  C   UNL     1      -3.554   3.257 131.875  0.00  0.00    +0.000 C 
ATOM     15  C   UNL     1      -3.021   4.385 131.046  0.00  0.00    +0.000 A 
ATOM     16  C   UNL     1      -2.348   5.435 131.670  0.00  0.00    +0.000 A 
ATOM     17  C   UNL     1      -1.813   6.472 130.913  0.00  0.00    +0.000 A 
ATOM     18  C   UNL     1      -1.941   6.463 129.530  0.00  0.00    +0.000 A 
ATOM     19  C   UNL     1      -2.609   5.415 128.901  0.00  0.00    +0.000 A 
ATOM     20  C   UNL     1      -3.149   4.356 129.648  0.00  0.00    +0.000 A 
ENDBRANCH   7  10
ENDBRANCH   1   2
BRANCH   1  24
ATOM     21  C   UNL     1      -9.367   0.198 123.464  0.00  0.00    +0.000 A 
ATOM     22  C   UNL     1      -9.673   0.485 124.770  0.00  0.00    +0.000 A 
ATOM     23  C   UNL     1      -9.254   1.748 125.358  0.00  0.00    +0.000 A 
ATOM     24  C   UNL     1      -8.644   2.782 124.609  0.00  0.00    +0.000 A 
ATOM     25  C   UNL     1      -8.692   2.554 123.296  0.00  0.00    +0.000 A 
ATOM     26  C   UNL     1      -8.839   1.278 122.859  0.00  0.00    +0.000 A 
BRANCH  25  27
ATOM     27  O   UNL     1      -8.648   3.508 122.334  0.00  0.00    +0.000 OA
ATOM     28  H   UNL     1      -7.715   3.858 122.389  0.00  0.00    +0.000 HD
ENDBRANCH  25  27
BRANCH  21  29
ATOM     29  O   UNL     1      -9.626  -0.966 122.810  0.00  0.00    +0.000 OA
BRANCH  29  33
ATOM     30  N   UNL     1      -7.662  -2.681 125.652  0.00  0.00    +0.000 NA
ATOM     31  C   UNL     1      -9.187  -2.969 125.388  0.00  0.00    +0.000 C 
ATOM     32  C   UNL     1      -9.453  -3.249 123.921  0.00  0.00    +0.000 C 
ATOM     33  C   UNL     1      -8.841  -2.204 122.976  0.00  0.00    +0.000 C 
ATOM     34  C   UNL     1      -7.319  -2.072 123.197  0.00  0.00    +0.000 C 
ATOM     35  C   UNL     1      -6.911  -1.762 124.628  0.00  0.00    +0.000 C 
BRANCH  30  37
ATOM     36  C   UNL     1      -8.439  -3.571 128.196  0.00  0.00    +0.000 C 
ATOM     37  S   UNL     1      -7.423  -2.346 127.349  0.00  0.00    +0.000 S 
ATOM     38  O   UNL     1      -7.924  -1.030 127.621  0.00  0.00    +0.000 OA
ATOM     39  O   UNL     1      -6.019  -2.594 127.636  0.00  0.00    +0.000 OA
ENDBRANCH  30  37
ENDBRANCH  29  33
ENDBRANCH  21  29
ENDBRANCH   1  24
TORSDOF 7
ENDMDL
MODEL 4
REMARK VINA RESULT:      -9.1      3.256      7.846
REMARK  Name = CHEMBL2017980
REMARK  8 active torsions:
REMARK  status: ('A' for Active; 'I' for Inactive)
REMARK    1  A    between atoms: C_1  and  S_2
REMARK    2  A    between atoms: S_2  and  N_5
REMARK    3  A    between atoms: C_8  and  O_9
REMARK    4  A    between atoms: O_9  and  C_10
REMARK    5  A    between atoms: C_13  and  C_14
REMARK    6  A    between atoms: C_14  and  C_15
REMARK    7  A    between atoms: C_20  and  N_21
REMARK    8  A    between atoms: C_34  and  O_35
REMARK                            x       y       z     vdW  Elec       q    Type
REMARK                         _______ _______ _______ _____ _____    ______ ____
ROOT
ATOM      1  C   UNL     1      -8.574  -0.523 130.951  0.00  0.00    +0.000 C 
ENDROOT
BRANCH   1   2
ATOM      2  C   UNL     1      -7.865   0.091 132.218  0.00  0.00    +0.000 C 
ATOM      3  O   UNL     1      -7.543  -0.456 133.269  0.00  0.00    +0.000 OA
ATOM      4  N   UNL     1      -7.598   1.428 132.159  0.00  0.00    +0.000 N 
ATOM      5  C   UNL     1      -6.330   1.878 132.807  0.00  0.00    +0.000 C 
ATOM      6  C   UNL     1      -6.529   2.659 134.089  0.00  0.00    +0.000 C 
ATOM      7  C   UNL     1      -7.655   3.670 133.921  0.00  0.00    +0.000 C 
ATOM      8  C   UNL     1      -8.961   3.010 133.490  0.00  0.00    +0.000 C 
ATOM      9  C   UNL     1      -8.806   2.252 132.195  0.00  0.00    +0.000 C 
BRANCH   7  10
ATOM     10  N   UNL     1      -7.263   4.819 133.049  0.00  0.00    +0.000 N 
ATOM     11  C   UNL     1      -5.922   5.194 132.832  0.00  0.00    +0.000 C 
ATOM     12  O   UNL     1      -4.891   4.686 133.263  0.00  0.00    +0.000 OA
ATOM     13  C   UNL     1      -5.641   6.416 132.053  0.00  0.00    +0.000 C 
ATOM     14  C   UNL     1      -6.518   6.439 130.849  0.00  0.00    +0.000 C 
ATOM     15  C   UNL     1      -7.945   6.362 131.296  0.00  0.00    +0.000 A 
ATOM     16  C   UNL     1      -8.922   7.069 130.595  0.00  0.00    +0.000 A 
ATOM     17  C   UNL     1     -10.257   6.979 130.972  0.00  0.00    +0.000 A 
ATOM     18  C   UNL     1     -10.626   6.179 132.046  0.00  0.00    +0.000 A 
ATOM     19  C   UNL     1      -9.655   5.468 132.747  0.00  0.00    +0.000 A 
ATOM     20  C   UNL     1      -8.303   5.540 132.377  0.00  0.00    +0.000 A 
ENDBRANCH   7  10
ENDBRANCH   1   2
BRANCH   1  24
ATOM     21  C   UNL     1      -6.420  -1.623 127.261  0.00  0.00    +0.000 A 
ATOM     22  C   UNL     1      -6.706  -0.297 127.462  0.00  0.00    +0.000 A 
ATOM     23  C   UNL     1      -7.433   0.121 128.651  0.00  0.00    +0.000 A 
ATOM     24  C   UNL     1      -7.761  -0.764 129.705  0.00  0.00    +0.000 A 
ATOM     25  C   UNL     1      -7.154  -1.945 129.584  0.00  0.00    +0.000 A 
ATOM     26  C   UNL     1      -6.736  -2.342 128.355  0.00  0.00    +0.000 A 
BRANCH  25  27
ATOM     27  O   UNL     1      -6.874  -2.790 130.605  0.00  0.00    +0.000 OA
ATOM     28  H   UNL     1      -6.395  -3.547 130.162  0.00  0.00    +0.000 HD
ENDBRANCH  25  27
BRANCH  21  29
ATOM     29  O   UNL     1      -5.819  -2.164 126.167  0.00  0.00    +0.000 OA
BRANCH  29  33
ATOM     30  N   UNL     1      -8.686  -1.061 123.835  0.00  0.00    +0.000 NA
ATOM     31  C   UNL     1      -7.174  -0.775 123.505  0.00  0.00    +0.000 C 
ATOM     32  C   UNL     1      -6.324  -2.020 123.677  0.00  0.00    +0.000 C 
ATOM     33  C   UNL     1      -6.548  -2.735 125.018  0.00  0.00    +0.000 C 
ATOM     34  C   UNL     1      -8.032  -3.107 125.214  0.00  0.00    +0.000 C 
ATOM     35  C   UNL     1      -8.999  -1.939 125.094  0.00  0.00    +0.000 C 
BRANCH  30  37
ATOM     36  C   UNL     1      -8.374   1.662 123.236  0.00  0.00    +0.000 C 
ATOM     37  S   UNL     1      -9.607   0.410 123.639  0.00  0.00    +0.000 S 
ATOM     38  O   UNL     1     -10.222   0.724 124.896  0.00  0.00    +0.000 OA
ATOM     39  O   UNL     1     -10.489   0.209 122.501  0.00  0.00    +0.000 OA
ENDBRANCH  30  37
ENDBRANCH  29  33
ENDBRANCH  21  29
ENDBRANCH   1  24
TORSDOF 7
ENDMDL
MODEL 5
REMARK VINA RESULT:      -9.0      3.713      6.285
REMARK  Name = CHEMBL2017980
REMARK  8 active torsions:
REMARK  status: ('A' for Active; 'I' for Inactive)
REMARK    1  A    between atoms: C_1  and  S_2
REMARK    2  A    between atoms: S_2  and  N_5
REMARK    3  A    between atoms: C_8  and  O_9
REMARK    4  A    between atoms: O_9  and  C_10
REMARK    5  A    between atoms: C_13  and  C_14
REMARK    6  A    between atoms: C_14  and  C_15
REMARK    7  A    between atoms: C_20  and  N_21
REMARK    8  A    between atoms: C_34  and  O_35
REMARK                            x       y       z     vdW  Elec       q    Type
REMARK                         _______ _______ _______ _____ _____    ______ ____
ROOT
ATOM      1  C   UNL     1      -6.991  -0.336 131.934  0.00  0.00    +0.000 C 
ENDROOT
BRANCH   1   2
ATOM      2  C   UNL     1      -7.112  -1.578 130.969  0.00  0.00    +0.000 C 
ATOM      3  O   UNL     1      -7.132  -2.775 131.242  0.00  0.00    +0.000 OA
ATOM      4  N   UNL     1      -7.170  -1.290 129.636  0.00  0.00    +0.000 N 
ATOM      5  C   UNL     1      -8.048  -2.169 128.808  0.00  0.00    +0.000 C 
ATOM      6  C   UNL     1      -7.298  -3.106 127.886  0.00  0.00    +0.000 C 
ATOM      7  C   UNL     1      -6.156  -2.370 127.199  0.00  0.00    +0.000 C 
ATOM      8  C   UNL     1      -5.201  -1.730 128.201  0.00  0.00    +0.000 C 
ATOM      9  C   UNL     1      -5.910  -0.760 129.114  0.00  0.00    +0.000 C 
BRANCH   7  10
ATOM     10  N   UNL     1      -6.640  -1.414 126.157  0.00  0.00    +0.000 N 
ATOM     11  C   UNL     1      -6.194  -0.080 126.074  0.00  0.00    +0.000 C 
ATOM     12  O   UNL     1      -5.373   0.512 126.768  0.00  0.00    +0.000 OA
ATOM     13  C   UNL     1      -6.822   0.820 125.087  0.00  0.00    +0.000 C 
ATOM     14  C   UNL     1      -6.953   0.104 123.787  0.00  0.00    +0.000 C 
ATOM     15  C   UNL     1      -7.750  -1.145 124.009  0.00  0.00    +0.000 A 
ATOM     16  C   UNL     1      -8.628  -1.582 123.018  0.00  0.00    +0.000 A 
ATOM     17  C   UNL     1      -9.348  -2.759 123.189  0.00  0.00    +0.000 A 
ATOM     18  C   UNL     1      -9.190  -3.510 124.347  0.00  0.00    +0.000 A 
ATOM     19  C   UNL     1      -8.312  -3.080 125.339  0.00  0.00    +0.000 A 
ATOM     20  C   UNL     1      -7.571  -1.897 125.181  0.00  0.00    +0.000 A 
ENDBRANCH   7  10
ENDBRANCH   1   2
BRANCH   1  24
ATOM     21  C   UNL     1      -9.639   3.083 131.063  0.00  0.00    +0.000 A 
ATOM     22  C   UNL     1     -10.162   2.036 131.777  0.00  0.00    +0.000 A 
ATOM     23  C   UNL     1      -9.341   0.873 132.075  0.00  0.00    +0.000 A 
ATOM     24  C   UNL     1      -7.960   0.807 131.777  0.00  0.00    +0.000 A 
ATOM     25  C   UNL     1      -7.466   1.986 131.397  0.00  0.00    +0.000 A 
ATOM     26  C   UNL     1      -8.313   2.917 130.892  0.00  0.00    +0.000 A 
BRANCH  25  27
ATOM     27  O   UNL     1      -6.169   2.364 131.509  0.00  0.00    +0.000 OA
ATOM     28  H   UNL     1      -6.036   2.468 132.493  0.00  0.00    +0.000 HD
ENDBRANCH  25  27
BRANCH  21  29
ATOM     29  O   UNL     1     -10.306   4.193 130.648  0.00  0.00    +0.000 OA
BRANCH  29  33
ATOM     30  N   UNL     1     -11.362   7.818 129.857  0.00  0.00    +0.000 NA
ATOM     31  C   UNL     1     -12.311   6.806 130.601  0.00  0.00    +0.000 C 
ATOM     32  C   UNL     1     -11.592   6.102 131.735  0.00  0.00    +0.000 C 
ATOM     33  C   UNL     1     -10.238   5.503 131.324  0.00  0.00    +0.000 C 
ATOM     34  C   UNL     1      -9.307   6.579 130.726  0.00  0.00    +0.000 C 
ATOM     35  C   UNL     1      -9.897   7.349 129.555  0.00  0.00    +0.000 C 
BRANCH  30  37
ATOM     36  C   UNL     1     -13.528   7.393 128.125  0.00  0.00    +0.000 C 
ATOM     37  S   UNL     1     -12.240   8.579 128.553  0.00  0.00    +0.000 S 
ATOM     38  O   UNL     1     -11.344   8.742 127.445  0.00  0.00    +0.000 OA
ATOM     39  O   UNL     1     -12.846   9.784 129.098  0.00  0.00    +0.000 OA
ENDBRANCH  30  37
ENDBRANCH  29  33
ENDBRANCH  21  29
ENDBRANCH   1  24
TORSDOF 7
ENDMDL
MODEL 6
REMARK VINA RESULT:      -9.0      1.399      1.723
REMARK  Name = CHEMBL2017980
REMARK  8 active torsions:
REMARK  status: ('A' for Active; 'I' for Inactive)
REMARK    1  A    between atoms: C_1  and  S_2
REMARK    2  A    between atoms: S_2  and  N_5
REMARK    3  A    between atoms: C_8  and  O_9
REMARK    4  A    between atoms: O_9  and  C_10
REMARK    5  A    between atoms: C_13  and  C_14
REMARK    6  A    between atoms: C_14  and  C_15
REMARK    7  A    between atoms: C_20  and  N_21
REMARK    8  A    between atoms: C_34  and  O_35
REMARK                            x       y       z     vdW  Elec       q    Type
REMARK                         _______ _______ _______ _____ _____    ______ ____
ROOT
ATOM      1  C   UNL     1      -7.439  -2.422 126.203  0.00  0.00    +0.000 C 
ENDROOT
BRANCH   1   2
ATOM      2  C   UNL     1      -8.585  -1.429 125.770  0.00  0.00    +0.000 C 
ATOM      3  O   UNL     1      -9.783  -1.647 125.612  0.00  0.00    +0.000 OA
ATOM      4  N   UNL     1      -8.191  -0.150 125.500  0.00  0.00    +0.000 N 
ATOM      5  C   UNL     1      -9.144   0.931 125.891  0.00  0.00    +0.000 C 
ATOM      6  C   UNL     1      -9.828   1.610 124.723  0.00  0.00    +0.000 C 
ATOM      7  C   UNL     1      -8.821   1.897 123.617  0.00  0.00    +0.000 C 
ATOM      8  C   UNL     1      -8.103   0.635 123.153  0.00  0.00    +0.000 C 
ATOM      9  C   UNL     1      -7.379  -0.049 124.287  0.00  0.00    +0.000 C 
BRANCH   7  10
ATOM     10  N   UNL     1      -7.886   3.008 123.972  0.00  0.00    +0.000 N 
ATOM     11  C   UNL     1      -7.896   3.645 125.229  0.00  0.00    +0.000 C 
ATOM     12  O   UNL     1      -8.600   3.425 126.210  0.00  0.00    +0.000 OA
ATOM     13  C   UNL     1      -7.017   4.813 125.441  0.00  0.00    +0.000 C 
ATOM     14  C   UNL     1      -5.669   4.517 124.880  0.00  0.00    +0.000 C 
ATOM     15  C   UNL     1      -5.821   4.173 123.430  0.00  0.00    +0.000 A 
ATOM     16  C   UNL     1      -4.837   4.571 122.526  0.00  0.00    +0.000 A 
ATOM     17  C   UNL     1      -4.941   4.228 121.182  0.00  0.00    +0.000 A 
ATOM     18  C   UNL     1      -6.023   3.481 120.735  0.00  0.00    +0.000 A 
ATOM     19  C   UNL     1      -7.008   3.078 121.635  0.00  0.00    +0.000 A 
ATOM     20  C   UNL     1      -6.916   3.408 122.997  0.00  0.00    +0.000 A 
ENDBRANCH   7  10
ENDBRANCH   1   2
BRANCH   1  24
ATOM     21  C   UNL     1      -6.406  -2.320 130.491  0.00  0.00    +0.000 A 
ATOM     22  C   UNL     1      -7.264  -3.301 130.064  0.00  0.00    +0.000 A 
ATOM     23  C   UNL     1      -7.656  -3.370 128.665  0.00  0.00    +0.000 A 
ATOM     24  C   UNL     1      -7.092  -2.543 127.664  0.00  0.00    +0.000 A 
ATOM     25  C   UNL     1      -6.034  -1.862 128.105  0.00  0.00    +0.000 A 
ATOM     26  C   UNL     1      -5.907  -1.643 129.438  0.00  0.00    +0.000 A 
BRANCH  25  27
ATOM     27  O   UNL     1      -5.027  -1.391 127.330  0.00  0.00    +0.000 OA
ATOM     28  H   UNL     1      -5.365  -0.506 127.014  0.00  0.00    +0.000 HD
ENDBRANCH  25  27
BRANCH  21  29
ATOM     29  O   UNL     1      -6.015  -2.089 131.773  0.00  0.00    +0.000 OA
BRANCH  29  33
ATOM     30  N   UNL     1      -7.131   1.125 133.590  0.00  0.00    +0.000 NA
ATOM     31  C   UNL     1      -7.885   0.566 132.327  0.00  0.00    +0.000 C 
ATOM     32  C   UNL     1      -8.168  -0.918 132.461  0.00  0.00    +0.000 C 
ATOM     33  C   UNL     1      -6.937  -1.742 132.871  0.00  0.00    +0.000 C 
ATOM     34  C   UNL     1      -6.328  -1.222 134.191  0.00  0.00    +0.000 C 
ATOM     35  C   UNL     1      -5.970   0.256 134.185  0.00  0.00    +0.000 C 
BRANCH  30  37
ATOM     36  C   UNL     1      -8.393   3.508 132.816  0.00  0.00    +0.000 C 
ATOM     37  S   UNL     1      -6.817   2.829 133.367  0.00  0.00    +0.000 S 
ATOM     38  O   UNL     1      -5.839   2.972 132.328  0.00  0.00    +0.000 OA
ATOM     39  O   UNL     1      -6.480   3.372 134.674  0.00  0.00    +0.000 OA
ENDBRANCH  30  37
ENDBRANCH  29  33
ENDBRANCH  21  29
ENDBRANCH   1  24
TORSDOF 7
ENDMDL
MODEL 7
REMARK VINA RESULT:      -9.0      2.913      4.012
REMARK  Name = CHEMBL2017980
REMARK  8 active torsions:
REMARK  status: ('A' for Active; 'I' for Inactive)
REMARK    1  A    between atoms: C_1  and  S_2
REMARK    2  A    between atoms: S_2  and  N_5
REMARK    3  A    between atoms: C_8  and  O_9
REMARK    4  A    between atoms: O_9  and  C_10
REMARK    5  A    between atoms: C_13  and  C_14
REMARK    6  A    between atoms: C_14  and  C_15
REMARK    7  A    between atoms: C_20  and  N_21
REMARK    8  A    between atoms: C_34  and  O_35
REMARK                            x       y       z     vdW  Elec       q    Type
REMARK                         _______ _______ _______ _____ _____    ______ ____
ROOT
ATOM      1  C   UNL     1      -7.446  -2.319 126.283  0.00  0.00    +0.000 C 
ENDROOT
BRANCH   1   2
ATOM      2  C   UNL     1      -8.585  -1.358 125.767  0.00  0.00    +0.000 C 
ATOM      3  O   UNL     1      -9.770  -1.602 125.555  0.00  0.00    +0.000 OA
ATOM      4  N   UNL     1      -8.200  -0.079 125.484  0.00  0.00    +0.000 N 
ATOM      5  C   UNL     1      -9.189   0.994 125.798  0.00  0.00    +0.000 C 
ATOM      6  C   UNL     1      -9.824   1.631 124.580  0.00  0.00    +0.000 C 
ATOM      7  C   UNL     1      -8.768   1.908 123.519  0.00  0.00    +0.000 C 
ATOM      8  C   UNL     1      -8.006   0.647 123.125  0.00  0.00    +0.000 C 
ATOM      9  C   UNL     1      -7.329   0.005 124.311  0.00  0.00    +0.000 C 
BRANCH   7  10
ATOM     10  N   UNL     1      -7.871   3.044 123.891  0.00  0.00    +0.000 N 
ATOM     11  C   UNL     1      -7.946   3.704 125.134  0.00  0.00    +0.000 C 
ATOM     12  O   UNL     1      -8.686   3.487 126.089  0.00  0.00    +0.000 OA
ATOM     13  C   UNL     1      -7.100   4.893 125.360  0.00  0.00    +0.000 C 
ATOM     14  C   UNL     1      -5.724   4.614 124.862  0.00  0.00    +0.000 C 
ATOM     15  C   UNL     1      -5.807   4.240 123.414  0.00  0.00    +0.000 A 
ATOM     16  C   UNL     1      -4.794   4.641 122.544  0.00  0.00    +0.000 A 
ATOM     17  C   UNL     1      -4.834   4.271 121.205  0.00  0.00    +0.000 A 
ATOM     18  C   UNL     1      -5.882   3.495 120.728  0.00  0.00    +0.000 A 
ATOM     19  C   UNL     1      -6.895   3.088 121.593  0.00  0.00    +0.000 A 
ATOM     20  C   UNL     1      -6.867   3.446 122.950  0.00  0.00    +0.000 A 
ENDBRANCH   7  10
ENDBRANCH   1   2
BRANCH   1  24
ATOM     21  C   UNL     1      -6.988  -2.810 130.643  0.00  0.00    +0.000 A 
ATOM     22  C   UNL     1      -8.123  -3.313 130.059  0.00  0.00    +0.000 A 
ATOM     23  C   UNL     1      -8.337  -3.162 128.629  0.00  0.00    +0.000 A 
ATOM     24  C   UNL     1      -7.361  -2.625 127.755  0.00  0.00    +0.000 A 
ATOM     25  C   UNL     1      -6.175  -2.479 128.348  0.00  0.00    +0.000 A 
ATOM     26  C   UNL     1      -6.128  -2.379 129.700  0.00  0.00    +0.000 A 
BRANCH  25  27
ATOM     27  O   UNL     1      -4.979  -2.461 127.711  0.00  0.00    +0.000 OA
ATOM     28  H   UNL     1      -4.596  -3.364 127.900  0.00  0.00    +0.000 HD
ENDBRANCH  25  27
BRANCH  21  29
ATOM     29  O   UNL     1      -6.692  -2.811 131.971  0.00  0.00    +0.000 OA
BRANCH  29  33
ATOM     30  N   UNL     1      -3.571  -3.725 134.043  0.00  0.00    +0.000 NA
ATOM     31  C   UNL     1      -4.862  -3.103 134.693  0.00  0.00    +0.000 C 
ATOM     32  C   UNL     1      -6.116  -3.821 134.235  0.00  0.00    +0.000 C 
ATOM     33  C   UNL     1      -6.203  -3.991 132.710  0.00  0.00    +0.000 C 
ATOM     34  C   UNL     1      -4.966  -4.730 132.156  0.00  0.00    +0.000 C 
ATOM     35  C   UNL     1      -3.633  -4.096 132.521  0.00  0.00    +0.000 C 
BRANCH  30  37
ATOM     36  C   UNL     1      -2.107  -1.387 133.534  0.00  0.00    +0.000 C 
ATOM     37  S   UNL     1      -2.166  -2.845 134.592  0.00  0.00    +0.000 S 
ATOM     38  O   UNL     1      -1.008  -3.659 134.359  0.00  0.00    +0.000 OA
ATOM     39  O   UNL     1      -2.428  -2.443 135.965  0.00  0.00    +0.000 OA
ENDBRANCH  30  37
ENDBRANCH  29  33
ENDBRANCH  21  29
ENDBRANCH   1  24
TORSDOF 7
ENDMDL
MODEL 8
REMARK VINA RESULT:      -8.9      3.501      6.227
REMARK  Name = CHEMBL2017980
REMARK  8 active torsions:
REMARK  status: ('A' for Active; 'I' for Inactive)
REMARK    1  A    between atoms: C_1  and  S_2
REMARK    2  A    between atoms: S_2  and  N_5
REMARK    3  A    between atoms: C_8  and  O_9
REMARK    4  A    between atoms: O_9  and  C_10
REMARK    5  A    between atoms: C_13  and  C_14
REMARK    6  A    between atoms: C_14  and  C_15
REMARK    7  A    between atoms: C_20  and  N_21
REMARK    8  A    between atoms: C_34  and  O_35
REMARK                            x       y       z     vdW  Elec       q    Type
REMARK                         _______ _______ _______ _____ _____    ______ ____
ROOT
ATOM      1  C   UNL     1      -4.476   2.864 126.529  0.00  0.00    +0.000 C 
ENDROOT
BRANCH   1   2
ATOM      2  C   UNL     1      -5.952   3.220 126.103  0.00  0.00    +0.000 C 
ATOM      3  O   UNL     1      -6.583   4.258 126.280  0.00  0.00    +0.000 OA
ATOM      4  N   UNL     1      -6.645   2.224 125.477  0.00  0.00    +0.000 N 
ATOM      5  C   UNL     1      -7.583   2.650 124.396  0.00  0.00    +0.000 C 
ATOM      6  C   UNL     1      -9.048   2.523 124.758  0.00  0.00    +0.000 C 
ATOM      7  C   UNL     1      -9.305   1.196 125.458  0.00  0.00    +0.000 C 
ATOM      8  C   UNL     1      -8.433   1.022 126.697  0.00  0.00    +0.000 C 
ATOM      9  C   UNL     1      -6.963   1.107 126.366  0.00  0.00    +0.000 C 
BRANCH   7  10
ATOM     10  N   UNL     1      -9.232   0.034 124.521  0.00  0.00    +0.000 N 
ATOM     11  C   UNL     1      -9.433   0.157 123.131  0.00  0.00    +0.000 C 
ATOM     12  O   UNL     1      -9.670   1.159 122.463  0.00  0.00    +0.000 OA
ATOM     13  C   UNL     1      -9.461  -1.067 122.306  0.00  0.00    +0.000 C 
ATOM     14  C   UNL     1      -8.341  -1.958 122.717  0.00  0.00    +0.000 C 
ATOM     15  C   UNL     1      -8.478  -2.253 124.179  0.00  0.00    +0.000 A 
ATOM     16  C   UNL     1      -8.126  -3.514 124.659  0.00  0.00    +0.000 A 
ATOM     17  C   UNL     1      -8.210  -3.794 126.019  0.00  0.00    +0.000 A 
ATOM     18  C   UNL     1      -8.639  -2.816 126.906  0.00  0.00    +0.000 A 
ATOM     19  C   UNL     1      -8.989  -1.554 126.433  0.00  0.00    +0.000 A 
ATOM     20  C   UNL     1      -8.903  -1.250 125.064  0.00  0.00    +0.000 A 
ENDBRANCH   7  10
ENDBRANCH   1   2
BRANCH   1  24
ATOM     21  C   UNL     1      -2.973   4.657 130.269  0.00  0.00    +0.000 A 
ATOM     22  C   UNL     1      -3.878   3.632 130.371  0.00  0.00    +0.000 A 
ATOM     23  C   UNL     1      -4.424   3.017 129.171  0.00  0.00    +0.000 A 
ATOM     24  C   UNL     1      -3.970   3.333 127.868  0.00  0.00    +0.000 A 
ATOM     25  C   UNL     1      -2.866   4.081 127.883  0.00  0.00    +0.000 A 
ATOM     26  C   UNL     1      -2.591   4.819 128.988  0.00  0.00    +0.000 A 
BRANCH  25  27
ATOM     27  O   UNL     1      -1.949   4.144 126.887  0.00  0.00    +0.000 OA
ATOM     28  H   UNL     1      -1.477   5.008 127.053  0.00  0.00    +0.000 HD
ENDBRANCH  25  27
BRANCH  21  29
ATOM     29  O   UNL     1      -2.441   5.372 131.297  0.00  0.00    +0.000 OA
BRANCH  29  33
ATOM     30  N   UNL     1      -5.991   6.861 131.537  0.00  0.00    +0.000 NA
ATOM     31  C   UNL     1      -5.403   5.901 132.637  0.00  0.00    +0.000 C 
ATOM     32  C   UNL     1      -4.010   6.327 133.059  0.00  0.00    +0.000 C 
ATOM     33  C   UNL     1      -3.062   6.579 131.877  0.00  0.00    +0.000 C 
ATOM     34  C   UNL     1      -3.640   7.631 130.907  0.00  0.00    +0.000 C 
ATOM     35  C   UNL     1      -5.032   7.313 130.383  0.00  0.00    +0.000 C 
BRANCH  30  37
ATOM     36  C   UNL     1      -8.404   5.958 132.646  0.00  0.00    +0.000 C 
ATOM     37  S   UNL     1      -7.583   6.308 131.080  0.00  0.00    +0.000 S 
ATOM     38  O   UNL     1      -7.438   5.096 130.328  0.00  0.00    +0.000 OA
ATOM     39  O   UNL     1      -8.245   7.423 130.420  0.00  0.00    +0.000 OA
ENDBRANCH  30  37
ENDBRANCH  29  33
ENDBRANCH  21  29
ENDBRANCH   1  24
TORSDOF 7
ENDMDL
MODEL 9
REMARK VINA RESULT:      -8.9      3.261      7.046
REMARK  Name = CHEMBL2017980
REMARK  8 active torsions:
REMARK  status: ('A' for Active; 'I' for Inactive)
REMARK    1  A    between atoms: C_1  and  S_2
REMARK    2  A    between atoms: S_2  and  N_5
REMARK    3  A    between atoms: C_8  and  O_9
REMARK    4  A    between atoms: O_9  and  C_10
REMARK    5  A    between atoms: C_13  and  C_14
REMARK    6  A    between atoms: C_14  and  C_15
REMARK    7  A    between atoms: C_20  and  N_21
REMARK    8  A    between atoms: C_34  and  O_35
REMARK                            x       y       z     vdW  Elec       q    Type
REMARK                         _______ _______ _______ _____ _____    ______ ____
ROOT
ATOM      1  C   UNL     1      -5.193   0.199 129.603  0.00  0.00    +0.000 C 
ENDROOT
BRANCH   1   2
ATOM      2  C   UNL     1      -6.468   0.272 130.528  0.00  0.00    +0.000 C 
ATOM      3  O   UNL     1      -7.114  -0.641 131.035  0.00  0.00    +0.000 OA
ATOM      4  N   UNL     1      -6.948   1.525 130.780  0.00  0.00    +0.000 N 
ATOM      5  C   UNL     1      -7.511   1.756 132.144  0.00  0.00    +0.000 C 
ATOM      6  C   UNL     1      -9.017   1.902 132.178  0.00  0.00    +0.000 C 
ATOM      7  C   UNL     1      -9.486   2.799 131.040  0.00  0.00    +0.000 C 
ATOM      8  C   UNL     1      -9.032   2.283 129.678  0.00  0.00    +0.000 C 
ATOM      9  C   UNL     1      -7.530   2.159 129.597  0.00  0.00    +0.000 C 
BRANCH   7  10
ATOM     10  N   UNL     1      -9.142   4.236 131.268  0.00  0.00    +0.000 N 
ATOM     11  C   UNL     1      -8.027   4.645 132.026  0.00  0.00    +0.000 C 
ATOM     12  O   UNL     1      -7.173   3.965 132.588  0.00  0.00    +0.000 OA
ATOM     13  C   UNL     1      -7.841   6.085 132.297  0.00  0.00    +0.000 C 
ATOM     14  C   UNL     1      -8.084   6.852 131.043  0.00  0.00    +0.000 C 
ATOM     15  C   UNL     1      -9.463   6.538 130.551  0.00  0.00    +0.000 A 
ATOM     16  C   UNL     1     -10.218   7.540 129.942  0.00  0.00    +0.000 A 
ATOM     17  C   UNL     1     -11.485   7.257 129.445  0.00  0.00    +0.000 A 
ATOM     18  C   UNL     1     -12.003   5.973 129.547  0.00  0.00    +0.000 A 
ATOM     19  C   UNL     1     -11.252   4.967 130.151  0.00  0.00    +0.000 A 
ATOM     20  C   UNL     1      -9.968   5.232 130.653  0.00  0.00    +0.000 A 
ENDBRANCH   7  10
ENDBRANCH   1   2
BRANCH   1  24
ATOM     21  C   UNL     1      -5.857  -1.965 125.817  0.00  0.00    +0.000 A 
ATOM     22  C   UNL     1      -5.592  -0.621 125.746  0.00  0.00    +0.000 A 
ATOM     23  C   UNL     1      -5.385   0.147 126.964  0.00  0.00    +0.000 A 
ATOM     24  C   UNL     1      -5.312  -0.445 128.247  0.00  0.00    +0.000 A 
ATOM     25  C   UNL     1      -5.241  -1.776 128.188  0.00  0.00    +0.000 A 
ATOM     26  C   UNL     1      -5.705  -2.407 127.080  0.00  0.00    +0.000 A 
BRANCH  25  27
ATOM     27  O   UNL     1      -4.698  -2.574 129.139  0.00  0.00    +0.000 OA
ATOM     28  H   UNL     1      -4.304  -3.330 128.618  0.00  0.00    +0.000 HD
ENDBRANCH  25  27
BRANCH  21  29
ATOM     29  O   UNL     1      -6.144  -2.789 124.773  0.00  0.00    +0.000 OA
BRANCH  29  33
ATOM     30  N   UNL     1      -9.331  -0.653 124.379  0.00  0.00    +0.000 NA
ATOM     31  C   UNL     1      -8.208  -0.702 123.278  0.00  0.00    +0.000 C 
ATOM     32  C   UNL     1      -7.804  -2.129 122.960  0.00  0.00    +0.000 C 
ATOM     33  C   UNL     1      -7.495  -2.971 124.207  0.00  0.00    +0.000 C 
ATOM     34  C   UNL     1      -8.691  -2.990 125.182  0.00  0.00    +0.000 C 
ATOM     35  C   UNL     1      -9.184  -1.616 125.607  0.00  0.00    +0.000 C 
BRANCH  30  37
ATOM     36  C   UNL     1      -8.489   1.966 123.834  0.00  0.00    +0.000 C 
ATOM     37  S   UNL     1      -9.738   1.012 124.715  0.00  0.00    +0.000 S 
ATOM     38  O   UNL     1      -9.606   1.229 126.127  0.00  0.00    +0.000 OA
ATOM     39  O   UNL     1     -11.045   1.255 124.126  0.00  0.00    +0.000 OA
ENDBRANCH  30  37
ENDBRANCH  29  33
ENDBRANCH  21  29
ENDBRANCH   1  24
TORSDOF 7
ENDMDL
