MODEL 1
REMARK VINA RESULT:      -7.8      0.000      0.000
REMARK  Name = CHEMBL603205
REMARK  6 active torsions:
REMARK  status: ('A' for Active; 'I' for Inactive)
REMARK    1  A    between atoms: C_1  and  O_2
REMARK    2  A    between atoms: O_2  and  C_3
REMARK    3  A    between atoms: C_6  and  N_7
REMARK    4  A    between atoms: C_8  and  C_9
REMARK    5  A    between atoms: C_16  and  O_17
REMARK    6  A    between atoms: O_17  and  C_18
REMARK                            x       y       z     vdW  Elec       q    Type
REMARK                         _______ _______ _______ _____ _____    ______ ____
ROOT
ATOM      1  N   UNL     1      -6.849   3.753 132.301  0.00  0.00    +0.000 N 
ATOM      2  C   UNL     1      -6.409   2.677 133.076  0.00  0.00    +0.000 A 
ATOM      3  C   UNL     1      -5.015   2.246 133.386  0.00  0.00    +0.000 C 
ATOM      4  N   UNL     1      -7.455   2.124 133.663  0.00  0.00    +0.000 NA
ATOM      5  N   UNL     1      -8.578   2.833 133.335  0.00  0.00    +0.000 NA
ATOM      6  C   UNL     1      -8.245   3.791 132.490  0.00  0.00    +0.000 A 
ATOM      7  N   UNL     1      -9.068   4.678 131.881  0.00  0.00    +0.000 N 
ATOM      8  C   UNL     1      -9.208   4.826 130.452  0.00  0.00    +0.000 C 
ATOM      9  C   UNL     1      -9.513   6.314 130.385  0.00  0.00    +0.000 C 
ATOM     10  C   UNL     1     -10.593   6.499 131.466  0.00  0.00    +0.000 C 
ATOM     11  C   UNL     1     -10.116   5.454 132.557  0.00  0.00    +0.000 C 
ENDROOT
BRANCH   1  15
ATOM     12  C   UNL     1      -4.840   6.515 129.885  0.00  0.00    +0.000 A 
ATOM     13  C   UNL     1      -5.301   6.939 131.120  0.00  0.00    +0.000 A 
ATOM     14  C   UNL     1      -5.927   6.007 131.958  0.00  0.00    +0.000 A 
ATOM     15  C   UNL     1      -6.088   4.682 131.536  0.00  0.00    +0.000 A 
ATOM     16  C   UNL     1      -5.631   4.360 130.269  0.00  0.00    +0.000 A 
ATOM     17  N   UNL     1      -5.018   5.250 129.439  0.00  0.00    +0.000 NA
BRANCH  12  19
ATOM     18  C   UNL     1      -3.062   6.888 128.404  0.00  0.00    +0.000 C 
ATOM     19  O   UNL     1      -4.271   7.377 128.981  0.00  0.00    +0.000 OA
ENDBRANCH  12  19
ENDBRANCH   1  15
BRANCH  10  20
ATOM     20  O   UNL     1     -11.950   6.197 131.057  0.00  0.00    +0.000 OA
BRANCH  20  21
ATOM     21  C   UNL     1     -12.524   7.044 130.138  0.00  0.00    +0.000 A 
ATOM     22  C   UNL     1     -12.999   6.541 128.924  0.00  0.00    +0.000 A 
ATOM     23  C   UNL     1     -13.415   7.421 127.908  0.00  0.00    +0.000 A 
ATOM     24  C   UNL     1     -13.436   8.799 128.126  0.00  0.00    +0.000 A 
ATOM     25  C   UNL     1     -12.961   9.302 129.327  0.00  0.00    +0.000 A 
ATOM     26  C   UNL     1     -12.442   8.429 130.279  0.00  0.00    +0.000 A 
ENDBRANCH  20  21
ENDBRANCH  10  20
TORSDOF 4
ENDMDL
MODEL 2
REMARK VINA RESULT:      -7.8      6.558      9.166
REMARK  Name = CHEMBL603205
REMARK  6 active torsions:
REMARK  status: ('A' for Active; 'I' for Inactive)
REMARK    1  A    between atoms: C_1  and  O_2
REMARK    2  A    between atoms: O_2  and  C_3
REMARK    3  A    between atoms: C_6  and  N_7
REMARK    4  A    between atoms: C_8  and  C_9
REMARK    5  A    between atoms: C_16  and  O_17
REMARK    6  A    between atoms: O_17  and  C_18
REMARK                            x       y       z     vdW  Elec       q    Type
REMARK                         _______ _______ _______ _____ _____    ______ ____
ROOT
ATOM      1  N   UNL     1      -8.332   1.697 123.818  0.00  0.00    +0.000 N 
ATOM      2  C   UNL     1      -9.179   0.590 123.919  0.00  0.00    +0.000 A 
ATOM      3  C   UNL     1      -9.754  -0.257 122.835  0.00  0.00    +0.000 C 
ATOM      4  N   UNL     1      -9.311   0.274 125.194  0.00  0.00    +0.000 NA
ATOM      5  N   UNL     1      -8.534   1.114 125.944  0.00  0.00    +0.000 NA
ATOM      6  C   UNL     1      -7.968   1.998 125.146  0.00  0.00    +0.000 A 
ATOM      7  N   UNL     1      -7.172   3.036 125.496  0.00  0.00    +0.000 N 
ATOM      8  C   UNL     1      -7.448   4.423 125.205  0.00  0.00    +0.000 C 
ATOM      9  C   UNL     1      -6.024   4.934 125.052  0.00  0.00    +0.000 C 
ATOM     10  C   UNL     1      -5.309   4.349 126.284  0.00  0.00    +0.000 C 
ATOM     11  C   UNL     1      -6.037   2.950 126.424  0.00  0.00    +0.000 C 
ENDROOT
BRANCH   1  15
ATOM     12  C   UNL     1      -6.946   3.889 120.535  0.00  0.00    +0.000 A 
ATOM     13  C   UNL     1      -6.021   3.195 121.298  0.00  0.00    +0.000 A 
ATOM     14  C   UNL     1      -6.482   2.415 122.366  0.00  0.00    +0.000 A 
ATOM     15  C   UNL     1      -7.850   2.359 122.653  0.00  0.00    +0.000 A 
ATOM     16  C   UNL     1      -8.697   3.118 121.862  0.00  0.00    +0.000 A 
ATOM     17  N   UNL     1      -8.269   3.882 120.817  0.00  0.00    +0.000 NA
BRANCH  12  19
ATOM     18  C   UNL     1      -5.313   5.361 119.723  0.00  0.00    +0.000 C 
ATOM     19  O   UNL     1      -6.571   4.723 119.512  0.00  0.00    +0.000 OA
ENDBRANCH  12  19
ENDBRANCH   1  15
BRANCH  10  20
ATOM     20  O   UNL     1      -5.454   5.104 127.512  0.00  0.00    +0.000 OA
BRANCH  20  21
ATOM     21  C   UNL     1      -4.301   5.391 128.204  0.00  0.00    +0.000 A 
ATOM     22  C   UNL     1      -4.042   4.762 129.425  0.00  0.00    +0.000 A 
ATOM     23  C   UNL     1      -2.965   5.185 130.225  0.00  0.00    +0.000 A 
ATOM     24  C   UNL     1      -2.094   6.180 129.776  0.00  0.00    +0.000 A 
ATOM     25  C   UNL     1      -2.350   6.809 128.568  0.00  0.00    +0.000 A 
ATOM     26  C   UNL     1      -3.486   6.463 127.841  0.00  0.00    +0.000 A 
ENDBRANCH  20  21
ENDBRANCH  10  20
TORSDOF 4
ENDMDL
MODEL 3
REMARK VINA RESULT:      -7.4      6.441      8.667
REMARK  Name = CHEMBL603205
REMARK  6 active torsions:
REMARK  status: ('A' for Active; 'I' for Inactive)
REMARK    1  A    between atoms: C_1  and  O_2
REMARK    2  A    between atoms: O_2  and  C_3
REMARK    3  A    between atoms: C_6  and  N_7
REMARK    4  A    between atoms: C_8  and  C_9
REMARK    5  A    between atoms: C_16  and  O_17
REMARK    6  A    between atoms: O_17  and  C_18
REMARK                            x       y       z     vdW  Elec       q    Type
REMARK                         _______ _______ _______ _____ _____    ______ ____
ROOT
ATOM      1  N   UNL     1      -6.682   2.971 123.178  0.00  0.00    +0.000 N 
ATOM      2  C   UNL     1      -6.029   3.664 122.156  0.00  0.00    +0.000 A 
ATOM      3  C   UNL     1      -6.098   3.453 120.681  0.00  0.00    +0.000 C 
ATOM      4  N   UNL     1      -5.400   4.700 122.682  0.00  0.00    +0.000 NA
ATOM      5  N   UNL     1      -5.656   4.741 124.025  0.00  0.00    +0.000 NA
ATOM      6  C   UNL     1      -6.391   3.695 124.351  0.00  0.00    +0.000 A 
ATOM      7  N   UNL     1      -6.812   3.335 125.588  0.00  0.00    +0.000 N 
ATOM      8  C   UNL     1      -6.509   2.078 126.229  0.00  0.00    +0.000 C 
ATOM      9  C   UNL     1      -7.777   1.905 127.050  0.00  0.00    +0.000 C 
ATOM     10  C   UNL     1      -7.957   3.285 127.709  0.00  0.00    +0.000 C 
ATOM     11  C   UNL     1      -7.432   4.242 126.562  0.00  0.00    +0.000 C 
ENDROOT
BRANCH   1  15
ATOM     12  C   UNL     1      -9.132  -0.420 123.210  0.00  0.00    +0.000 A 
ATOM     13  C   UNL     1      -9.736   0.824 123.138  0.00  0.00    +0.000 A 
ATOM     14  C   UNL     1      -8.922   1.963 123.073  0.00  0.00    +0.000 A 
ATOM     15  C   UNL     1      -7.529   1.830 123.094  0.00  0.00    +0.000 A 
ATOM     16  C   UNL     1      -7.015   0.549 123.208  0.00  0.00    +0.000 A 
ATOM     17  N   UNL     1      -7.789  -0.571 123.271  0.00  0.00    +0.000 NA
BRANCH  12  19
ATOM     18  C   UNL     1      -9.058  -2.760 123.306  0.00  0.00    +0.000 C 
ATOM     19  O   UNL     1      -9.857  -1.578 123.339  0.00  0.00    +0.000 OA
ENDBRANCH  12  19
ENDBRANCH   1  15
BRANCH  10  20
ATOM     20  O   UNL     1      -7.196   3.507 128.921  0.00  0.00    +0.000 OA
BRANCH  20  21
ATOM     21  C   UNL     1      -7.628   4.516 129.750  0.00  0.00    +0.000 A 
ATOM     22  C   UNL     1      -8.993   4.792 129.864  0.00  0.00    +0.000 A 
ATOM     23  C   UNL     1      -9.429   5.935 130.560  0.00  0.00    +0.000 A 
ATOM     24  C   UNL     1      -8.512   6.762 131.211  0.00  0.00    +0.000 A 
ATOM     25  C   UNL     1      -7.158   6.495 131.096  0.00  0.00    +0.000 A 
ATOM     26  C   UNL     1      -6.733   5.428 130.308  0.00  0.00    +0.000 A 
ENDBRANCH  20  21
ENDBRANCH  10  20
TORSDOF 4
ENDMDL
MODEL 4
REMARK VINA RESULT:      -7.3      2.114      4.081
REMARK  Name = CHEMBL603205
REMARK  6 active torsions:
REMARK  status: ('A' for Active; 'I' for Inactive)
REMARK    1  A    between atoms: C_1  and  O_2
REMARK    2  A    between atoms: O_2  and  C_3
REMARK    3  A    between atoms: C_6  and  N_7
REMARK    4  A    between atoms: C_8  and  C_9
REMARK    5  A    between atoms: C_16  and  O_17
REMARK    6  A    between atoms: O_17  and  C_18
REMARK                            x       y       z     vdW  Elec       q    Type
REMARK                         _______ _______ _______ _____ _____    ______ ____
ROOT
ATOM      1  N   UNL     1      -5.923   5.583 131.346  0.00  0.00    +0.000 N 
ATOM      2  C   UNL     1      -4.718   6.216 131.027  0.00  0.00    +0.000 A 
ATOM      3  C   UNL     1      -3.332   5.664 131.039  0.00  0.00    +0.000 C 
ATOM      4  N   UNL     1      -4.986   7.415 130.543  0.00  0.00    +0.000 NA
ATOM      5  N   UNL     1      -6.343   7.580 130.487  0.00  0.00    +0.000 NA
ATOM      6  C   UNL     1      -6.924   6.511 130.997  0.00  0.00    +0.000 A 
ATOM      7  N   UNL     1      -8.250   6.299 131.179  0.00  0.00    +0.000 N 
ATOM      8  C   UNL     1      -8.874   6.028 132.452  0.00  0.00    +0.000 C 
ATOM      9  C   UNL     1     -10.011   5.132 131.986  0.00  0.00    +0.000 C 
ATOM     10  C   UNL     1     -10.596   5.904 130.789  0.00  0.00    +0.000 C 
ATOM     11  C   UNL     1      -9.287   6.545 130.170  0.00  0.00    +0.000 C 
ENDROOT
BRANCH   1  15
ATOM     12  C   UNL     1      -6.827   1.803 132.893  0.00  0.00    +0.000 A 
ATOM     13  C   UNL     1      -6.925   1.991 131.525  0.00  0.00    +0.000 A 
ATOM     14  C   UNL     1      -6.572   3.238 130.992  0.00  0.00    +0.000 A 
ATOM     15  C   UNL     1      -6.144   4.266 131.840  0.00  0.00    +0.000 A 
ATOM     16  C   UNL     1      -6.117   3.999 133.199  0.00  0.00    +0.000 A 
ATOM     17  N   UNL     1      -6.455   2.793 133.737  0.00  0.00    +0.000 NA
BRANCH  12  19
ATOM     18  C   UNL     1      -7.695  -0.353 132.589  0.00  0.00    +0.000 C 
ATOM     19  O   UNL     1      -7.212   0.633 133.500  0.00  0.00    +0.000 OA
ENDBRANCH  12  19
ENDBRANCH   1  15
BRANCH  10  20
ATOM     20  O   UNL     1     -11.546   6.947 131.118  0.00  0.00    +0.000 OA
BRANCH  20  21
ATOM     21  C   UNL     1     -12.347   7.402 130.097  0.00  0.00    +0.000 A 
ATOM     22  C   UNL     1     -12.873   6.502 129.166  0.00  0.00    +0.000 A 
ATOM     23  C   UNL     1     -13.535   6.977 128.018  0.00  0.00    +0.000 A 
ATOM     24  C   UNL     1     -13.745   8.344 127.834  0.00  0.00    +0.000 A 
ATOM     25  C   UNL     1     -13.221   9.240 128.752  0.00  0.00    +0.000 A 
ATOM     26  C   UNL     1     -12.466   8.764 129.822  0.00  0.00    +0.000 A 
ENDBRANCH  20  21
ENDBRANCH  10  20
TORSDOF 4
ENDMDL
MODEL 5
REMARK VINA RESULT:      -7.1      3.783      6.689
REMARK  Name = CHEMBL603205
REMARK  6 active torsions:
REMARK  status: ('A' for Active; 'I' for Inactive)
REMARK    1  A    between atoms: C_1  and  O_2
REMARK    2  A    between atoms: O_2  and  C_3
REMARK    3  A    between atoms: C_6  and  N_7
REMARK    4  A    between atoms: C_8  and  C_9
REMARK    5  A    between atoms: C_16  and  O_17
REMARK    6  A    between atoms: O_17  and  C_18
REMARK                            x       y       z     vdW  Elec       q    Type
REMARK                         _______ _______ _______ _____ _____    ______ ____
ROOT
ATOM      1  N   UNL     1      -8.409   3.798 131.532  0.00  0.00    +0.000 N 
ATOM      2  C   UNL     1      -8.185   3.471 132.871  0.00  0.00    +0.000 A 
ATOM      3  C   UNL     1      -8.986   3.834 134.076  0.00  0.00    +0.000 C 
ATOM      4  N   UNL     1      -7.178   2.619 132.935  0.00  0.00    +0.000 NA
ATOM      5  N   UNL     1      -6.754   2.333 131.667  0.00  0.00    +0.000 NA
ATOM      6  C   UNL     1      -7.452   3.056 130.812  0.00  0.00    +0.000 A 
ATOM      7  N   UNL     1      -7.305   3.112 129.466  0.00  0.00    +0.000 N 
ATOM      8  C   UNL     1      -7.012   4.311 128.718  0.00  0.00    +0.000 C 
ATOM      9  C   UNL     1      -7.746   3.985 127.427  0.00  0.00    +0.000 C 
ATOM     10  C   UNL     1      -7.294   2.544 127.123  0.00  0.00    +0.000 C 
ATOM     11  C   UNL     1      -7.182   1.944 128.584  0.00  0.00    +0.000 C 
ENDROOT
BRANCH   1  15
ATOM     12  C   UNL     1     -11.535   6.176 130.090  0.00  0.00    +0.000 A 
ATOM     13  C   UNL     1     -10.438   6.807 130.653  0.00  0.00    +0.000 A 
ATOM     14  C   UNL     1      -9.363   6.021 131.090  0.00  0.00    +0.000 A 
ATOM     15  C   UNL     1      -9.417   4.628 130.964  0.00  0.00    +0.000 A 
ATOM     16  C   UNL     1     -10.571   4.083 130.425  0.00  0.00    +0.000 A 
ATOM     17  N   UNL     1     -11.627   4.830 129.994  0.00  0.00    +0.000 NA
BRANCH  12  19
ATOM     18  C   UNL     1     -12.452   8.276 129.603  0.00  0.00    +0.000 C 
ATOM     19  O   UNL     1     -12.652   6.867 129.695  0.00  0.00    +0.000 OA
ENDBRANCH  12  19
ENDBRANCH   1  15
BRANCH  10  20
ATOM     20  O   UNL     1      -6.024   2.415 126.439  0.00  0.00    +0.000 OA
BRANCH  20  21
ATOM     21  C   UNL     1      -5.998   2.753 125.106  0.00  0.00    +0.000 A 
ATOM     22  C   UNL     1      -5.334   3.911 124.690  0.00  0.00    +0.000 A 
ATOM     23  C   UNL     1      -5.460   4.361 123.363  0.00  0.00    +0.000 A 
ATOM     24  C   UNL     1      -6.182   3.619 122.427  0.00  0.00    +0.000 A 
ATOM     25  C   UNL     1      -6.846   2.474 122.836  0.00  0.00    +0.000 A 
ATOM     26  C   UNL     1      -6.810   2.102 124.178  0.00  0.00    +0.000 A 
ENDBRANCH  20  21
ENDBRANCH  10  20
TORSDOF 4
ENDMDL
MODEL 6
REMARK VINA RESULT:      -7.0      4.263      6.855
REMARK  Name = CHEMBL603205
REMARK  6 active torsions:
REMARK  status: ('A' for Active; 'I' for Inactive)
REMARK    1  A    between atoms: C_1  and  O_2
REMARK    2  A    between atoms: O_2  and  C_3
REMARK    3  A    between atoms: C_6  and  N_7
REMARK    4  A    between atoms: C_8  and  C_9
REMARK    5  A    between atoms: C_16  and  O_17
REMARK    6  A    between atoms: O_17  and  C_18
REMARK                            x       y       z     vdW  Elec       q    Type
REMARK                         _______ _______ _______ _____ _____    ______ ____
ROOT
ATOM      1  N   UNL     1      -7.886   4.349 132.624  0.00  0.00    +0.000 N 
ATOM      2  C   UNL     1      -7.546   4.554 133.963  0.00  0.00    +0.000 A 
ATOM      3  C   UNL     1      -7.925   5.674 134.871  0.00  0.00    +0.000 C 
ATOM      4  N   UNL     1      -6.912   3.483 134.406  0.00  0.00    +0.000 NA
ATOM      5  N   UNL     1      -6.863   2.549 133.407  0.00  0.00    +0.000 NA
ATOM      6  C   UNL     1      -7.406   3.060 132.319  0.00  0.00    +0.000 A 
ATOM      7  N   UNL     1      -7.505   2.485 131.096  0.00  0.00    +0.000 N 
ATOM      8  C   UNL     1      -6.952   3.032 129.880  0.00  0.00    +0.000 C 
ATOM      9  C   UNL     1      -7.981   2.520 128.886  0.00  0.00    +0.000 C 
ATOM     10  C   UNL     1      -8.135   1.038 129.274  0.00  0.00    +0.000 C 
ATOM     11  C   UNL     1      -7.970   1.115 130.847  0.00  0.00    +0.000 C 
ENDROOT
BRANCH   1  15
ATOM     12  C   UNL     1     -10.166   6.949 130.268  0.00  0.00    +0.000 A 
ATOM     13  C   UNL     1      -8.816   7.216 130.419  0.00  0.00    +0.000 A 
ATOM     14  C   UNL     1      -8.034   6.321 131.161  0.00  0.00    +0.000 A 
ATOM     15  C   UNL     1      -8.623   5.193 131.743  0.00  0.00    +0.000 A 
ATOM     16  C   UNL     1      -9.987   5.029 131.573  0.00  0.00    +0.000 A 
ATOM     17  N   UNL     1     -10.765   5.887 130.854  0.00  0.00    +0.000 NA
BRANCH  12  19
ATOM     18  C   UNL     1     -10.448   8.370 128.426  0.00  0.00    +0.000 C 
ATOM     19  O   UNL     1     -11.012   7.806 129.609  0.00  0.00    +0.000 OA
ENDBRANCH  12  19
ENDBRANCH   1  15
BRANCH  10  20
ATOM     20  O   UNL     1      -7.144   0.138 128.720  0.00  0.00    +0.000 OA
BRANCH  20  21
ATOM     21  C   UNL     1      -7.566  -1.134 128.408  0.00  0.00    +0.000 A 
ATOM     22  C   UNL     1      -7.927  -1.450 127.095  0.00  0.00    +0.000 A 
ATOM     23  C   UNL     1      -8.533  -2.686 126.805  0.00  0.00    +0.000 A 
ATOM     24  C   UNL     1      -8.708  -3.643 127.806  0.00  0.00    +0.000 A 
ATOM     25  C   UNL     1      -8.357  -3.332 129.110  0.00  0.00    +0.000 A 
ATOM     26  C   UNL     1      -7.866  -2.062 129.404  0.00  0.00    +0.000 A 
ENDBRANCH  20  21
ENDBRANCH  10  20
TORSDOF 4
ENDMDL
MODEL 7
REMARK VINA RESULT:      -7.0      5.016      7.678
REMARK  Name = CHEMBL603205
REMARK  6 active torsions:
REMARK  status: ('A' for Active; 'I' for Inactive)
REMARK    1  A    between atoms: C_1  and  O_2
REMARK    2  A    between atoms: O_2  and  C_3
REMARK    3  A    between atoms: C_6  and  N_7
REMARK    4  A    between atoms: C_8  and  C_9
REMARK    5  A    between atoms: C_16  and  O_17
REMARK    6  A    between atoms: O_17  and  C_18
REMARK                            x       y       z     vdW  Elec       q    Type
REMARK                         _______ _______ _______ _____ _____    ______ ____
ROOT
ATOM      1  N   UNL     1      -8.348   2.851 131.838  0.00  0.00    +0.000 N 
ATOM      2  C   UNL     1      -8.129   2.917 133.216  0.00  0.00    +0.000 A 
ATOM      3  C   UNL     1      -8.713   3.853 134.219  0.00  0.00    +0.000 C 
ATOM      4  N   UNL     1      -7.392   1.882 133.576  0.00  0.00    +0.000 NA
ATOM      5  N   UNL     1      -7.152   1.102 132.479  0.00  0.00    +0.000 NA
ATOM      6  C   UNL     1      -7.683   1.682 131.419  0.00  0.00    +0.000 A 
ATOM      7  N   UNL     1      -7.621   1.265 130.132  0.00  0.00    +0.000 N 
ATOM      8  C   UNL     1      -7.063   2.031 129.043  0.00  0.00    +0.000 C 
ATOM      9  C   UNL     1      -7.947   1.533 127.910  0.00  0.00    +0.000 C 
ATOM     10  C   UNL     1      -7.930   0.005 128.099  0.00  0.00    +0.000 C 
ATOM     11  C   UNL     1      -7.885  -0.107 129.678  0.00  0.00    +0.000 C 
ENDROOT
BRANCH   1  15
ATOM     12  C   UNL     1     -10.786   5.440 129.633  0.00  0.00    +0.000 A 
ATOM     13  C   UNL     1      -9.500   5.853 129.939  0.00  0.00    +0.000 A 
ATOM     14  C   UNL     1      -8.658   4.971 130.630  0.00  0.00    +0.000 A 
ATOM     15  C   UNL     1      -9.127   3.708 131.008  0.00  0.00    +0.000 A 
ATOM     16  C   UNL     1     -10.440   3.397 130.695  0.00  0.00    +0.000 A 
ATOM     17  N   UNL     1     -11.274   4.240 130.022  0.00  0.00    +0.000 NA
BRANCH  12  19
ATOM     18  C   UNL     1     -12.602   6.894 129.914  0.00  0.00    +0.000 C 
ATOM     19  O   UNL     1     -11.691   6.265 129.014  0.00  0.00    +0.000 OA
ENDBRANCH  12  19
ENDBRANCH   1  15
BRANCH  10  20
ATOM     20  O   UNL     1      -6.794  -0.686 127.525  0.00  0.00    +0.000 OA
BRANCH  20  21
ATOM     21  C   UNL     1      -7.069  -1.725 126.665  0.00  0.00    +0.000 A 
ATOM     22  C   UNL     1      -6.172  -2.042 125.641  0.00  0.00    +0.000 A 
ATOM     23  C   UNL     1      -6.531  -2.974 124.650  0.00  0.00    +0.000 A 
ATOM     24  C   UNL     1      -7.750  -3.651 124.719  0.00  0.00    +0.000 A 
ATOM     25  C   UNL     1      -8.644  -3.336 125.729  0.00  0.00    +0.000 A 
ATOM     26  C   UNL     1      -8.326  -2.328 126.637  0.00  0.00    +0.000 A 
ENDBRANCH  20  21
ENDBRANCH  10  20
TORSDOF 4
ENDMDL
MODEL 8
REMARK VINA RESULT:      -6.9      3.893      5.644
REMARK  Name = CHEMBL603205
REMARK  6 active torsions:
REMARK  status: ('A' for Active; 'I' for Inactive)
REMARK    1  A    between atoms: C_1  and  O_2
REMARK    2  A    between atoms: O_2  and  C_3
REMARK    3  A    between atoms: C_6  and  N_7
REMARK    4  A    between atoms: C_8  and  C_9
REMARK    5  A    between atoms: C_16  and  O_17
REMARK    6  A    between atoms: O_17  and  C_18
REMARK                            x       y       z     vdW  Elec       q    Type
REMARK                         _______ _______ _______ _____ _____    ______ ____
ROOT
ATOM      1  N   UNL     1      -7.981   0.778 129.306  0.00  0.00    +0.000 N 
ATOM      2  C   UNL     1      -7.957   0.141 128.063  0.00  0.00    +0.000 A 
ATOM      3  C   UNL     1      -7.694  -1.292 127.744  0.00  0.00    +0.000 C 
ATOM      4  N   UNL     1      -8.364   0.996 127.143  0.00  0.00    +0.000 NA
ATOM      5  N   UNL     1      -8.703   2.175 127.748  0.00  0.00    +0.000 NA
ATOM      6  C   UNL     1      -8.447   2.080 129.038  0.00  0.00    +0.000 A 
ATOM      7  N   UNL     1      -8.587   3.044 129.980  0.00  0.00    +0.000 N 
ATOM      8  C   UNL     1      -7.519   3.544 130.813  0.00  0.00    +0.000 C 
ATOM      9  C   UNL     1      -8.315   3.877 132.065  0.00  0.00    +0.000 C 
ATOM     10  C   UNL     1      -9.527   4.650 131.513  0.00  0.00    +0.000 C 
ATOM     11  C   UNL     1      -9.772   3.897 130.142  0.00  0.00    +0.000 C 
ENDROOT
BRANCH   1  15
ATOM     12  C   UNL     1      -7.199  -1.031 132.997  0.00  0.00    +0.000 A 
ATOM     13  C   UNL     1      -6.126  -0.729 132.175  0.00  0.00    +0.000 A 
ATOM     14  C   UNL     1      -6.374  -0.074 130.961  0.00  0.00    +0.000 A 
ATOM     15  C   UNL     1      -7.686   0.249 130.595  0.00  0.00    +0.000 A 
ATOM     16  C   UNL     1      -8.698  -0.129 131.461  0.00  0.00    +0.000 A 
ATOM     17  N   UNL     1      -8.478  -0.765 132.647  0.00  0.00    +0.000 NA
BRANCH  12  19
ATOM     18  C   UNL     1      -7.797  -2.938 134.220  0.00  0.00    +0.000 C 
ATOM     19  O   UNL     1      -7.048  -1.725 134.171  0.00  0.00    +0.000 OA
ENDBRANCH  12  19
ENDBRANCH   1  15
BRANCH  10  20
ATOM     20  O   UNL     1      -9.313   6.061 131.267  0.00  0.00    +0.000 OA
BRANCH  20  21
ATOM     21  C   UNL     1     -10.412   6.801 130.896  0.00  0.00    +0.000 A 
ATOM     22  C   UNL     1     -11.618   6.658 131.589  0.00  0.00    +0.000 A 
ATOM     23  C   UNL     1     -12.790   7.267 131.102  0.00  0.00    +0.000 A 
ATOM     24  C   UNL     1     -12.749   8.084 129.971  0.00  0.00    +0.000 A 
ATOM     25  C   UNL     1     -11.557   8.224 129.279  0.00  0.00    +0.000 A 
ATOM     26  C   UNL     1     -10.431   7.522 129.703  0.00  0.00    +0.000 A 
ENDBRANCH  20  21
ENDBRANCH  10  20
TORSDOF 4
ENDMDL
MODEL 9
REMARK VINA RESULT:      -6.9      2.696      3.842
REMARK  Name = CHEMBL603205
REMARK  6 active torsions:
REMARK  status: ('A' for Active; 'I' for Inactive)
REMARK    1  A    between atoms: C_1  and  O_2
REMARK    2  A    between atoms: O_2  and  C_3
REMARK    3  A    between atoms: C_6  and  N_7
REMARK    4  A    between atoms: C_8  and  C_9
REMARK    5  A    between atoms: C_16  and  O_17
REMARK    6  A    between atoms: O_17  and  C_18
REMARK                            x       y       z     vdW  Elec       q    Type
REMARK                         _______ _______ _______ _____ _____    ______ ____
ROOT
ATOM      1  N   UNL     1      -7.776   2.761 131.928  0.00  0.00    +0.000 N 
ATOM      2  C   UNL     1      -7.909   1.387 131.715  0.00  0.00    +0.000 A 
ATOM      3  C   UNL     1      -7.503   0.253 132.595  0.00  0.00    +0.000 C 
ATOM      4  N   UNL     1      -8.618   1.197 130.618  0.00  0.00    +0.000 NA
ATOM      5  N   UNL     1      -9.001   2.411 130.118  0.00  0.00    +0.000 NA
ATOM      6  C   UNL     1      -8.477   3.363 130.865  0.00  0.00    +0.000 A 
ATOM      7  N   UNL     1      -8.566   4.703 130.679  0.00  0.00    +0.000 N 
ATOM      8  C   UNL     1      -7.439   5.587 130.502  0.00  0.00    +0.000 C 
ATOM      9  C   UNL     1      -8.005   6.843 131.146  0.00  0.00    +0.000 C 
ATOM     10  C   UNL     1      -9.406   6.957 130.517  0.00  0.00    +0.000 C 
ATOM     11  C   UNL     1      -9.808   5.430 130.388  0.00  0.00    +0.000 C 
ENDROOT
BRANCH   1  15
ATOM     12  C   UNL     1      -5.988   4.553 135.260  0.00  0.00    +0.000 A 
ATOM     13  C   UNL     1      -5.165   4.036 134.274  0.00  0.00    +0.000 A 
ATOM     14  C   UNL     1      -5.755   3.483 133.129  0.00  0.00    +0.000 A 
ATOM     15  C   UNL     1      -7.148   3.448 133.007  0.00  0.00    +0.000 A 
ATOM     16  C   UNL     1      -7.891   3.951 134.062  0.00  0.00    +0.000 A 
ATOM     17  N   UNL     1      -7.338   4.495 135.182  0.00  0.00    +0.000 NA
BRANCH  12  19
ATOM     18  C   UNL     1      -6.458   5.770 137.206  0.00  0.00    +0.000 C 
ATOM     19  O   UNL     1      -5.493   5.055 136.437  0.00  0.00    +0.000 OA
ENDBRANCH  12  19
ENDBRANCH   1  15
BRANCH  10  20
ATOM     20  O   UNL     1      -9.462   7.592 129.217  0.00  0.00    +0.000 OA
BRANCH  20  21
ATOM     21  C   UNL     1     -10.706   7.732 128.647  0.00  0.00    +0.000 A 
ATOM     22  C   UNL     1     -11.779   8.194 129.414  0.00  0.00    +0.000 A 
ATOM     23  C   UNL     1     -13.086   8.163 128.893  0.00  0.00    +0.000 A 
ATOM     24  C   UNL     1     -13.318   7.748 127.580  0.00  0.00    +0.000 A 
ATOM     25  C   UNL     1     -12.257   7.285 126.818  0.00  0.00    +0.000 A 
ATOM     26  C   UNL     1     -10.987   7.211 127.385  0.00  0.00    +0.000 A 
ENDBRANCH  20  21
ENDBRANCH  10  20
TORSDOF 4
ENDMDL
