MODEL 1
REMARK VINA RESULT:      -9.1      0.000      0.000
REMARK  Name = CHEMBL3416757
REMARK  6 active torsions:
REMARK  status: ('A' for Active; 'I' for Inactive)
REMARK    1  A    between atoms: C_1  and  C_2
REMARK    2  A    between atoms: N_5  and  C_6
REMARK    3  A    between atoms: C_6  and  C_7
REMARK    4  A    between atoms: C_10  and  C_11
REMARK    5  A    between atoms: N_18  and  C_19
REMARK    6  A    between atoms: C_29  and  C_30
REMARK                            x       y       z     vdW  Elec       q    Type
REMARK                         _______ _______ _______ _____ _____    ______ ____
ROOT
ATOM      1  C   UNL     1      -7.548  -1.767 130.761  0.00  0.00    +0.000 C 
ATOM      2  O   UNL     1      -7.521  -0.550 131.003  0.00  0.00    +0.000 OA
ATOM      3  N   UNL     1      -7.278  -2.762 131.738  0.00  0.00    +0.000 N 
ATOM      4  C   UNL     1      -7.396  -2.239 133.147  0.00  0.00    +0.000 C 
ATOM      5  C   UNL     1      -7.567  -3.293 134.177  0.00  0.00    +0.000 A 
ATOM      6  C   UNL     1      -8.368  -3.305 135.344  0.00  0.00    +0.000 A 
ATOM      7  N   UNL     1      -8.270  -4.454 136.022  0.00  0.00    +0.000 NA
ATOM      8  N   UNL     1      -7.368  -5.162 135.310  0.00  0.00    +0.000 N 
ATOM      9  C   UNL     1      -7.033  -6.511 135.693  0.00  0.00    +0.000 C 
ATOM     10  C   UNL     1      -6.821  -4.445 134.279  0.00  0.00    +0.000 A 
ATOM     11  N   UNL     1      -5.735  -4.838 133.549  0.00  0.00    +0.000 N 
ATOM     12  C   UNL     1      -5.325  -3.994 132.478  0.00  0.00    +0.000 A 
ATOM     13  C   UNL     1      -4.537  -2.854 132.679  0.00  0.00    +0.000 A 
ATOM     14  C   UNL     1      -4.384  -1.908 131.630  0.00  0.00    +0.000 A 
ATOM     15  C   UNL     1      -4.697  -2.295 130.338  0.00  0.00    +0.000 A 
ATOM     16  C   UNL     1      -5.374  -3.488 130.251  0.00  0.00    +0.000 A 
ATOM     17  C   UNL     1      -6.134  -3.788 131.393  0.00  0.00    +0.000 A 
ATOM     18  H   UNL     1      -5.784  -5.809 133.233  0.00  0.00    +0.000 HD
ENDROOT
BRANCH   1  22
ATOM     19  C   UNL     1      -8.654  -2.731 126.725  0.00  0.00    +0.000 A 
ATOM     20  C   UNL     1      -8.862  -3.675 127.770  0.00  0.00    +0.000 A 
ATOM     21  C   UNL     1      -8.457  -3.415 129.090  0.00  0.00    +0.000 A 
ATOM     22  C   UNL     1      -7.781  -2.232 129.372  0.00  0.00    +0.000 A 
ATOM     23  C   UNL     1      -7.535  -1.326 128.350  0.00  0.00    +0.000 A 
ATOM     24  C   UNL     1      -8.063  -1.506 127.078  0.00  0.00    +0.000 A 
ATOM     25  C   UNL     1      -7.890  -0.310 126.207  0.00  0.00    +0.000 C 
BRANCH  19  26
ATOM     26  C   UNL     1      -9.045  -3.140 125.302  0.00  0.00    +0.000 C 
BRANCH  26  31
ATOM     27  C   UNL     1      -4.559  -3.116 123.501  0.00  0.00    +0.000 C 
ATOM     28  C   UNL     1      -6.046  -2.987 123.458  0.00  0.00    +0.000 A 
ATOM     29  C   UNL     1      -6.797  -2.082 122.674  0.00  0.00    +0.000 A 
ATOM     30  C   UNL     1      -8.077  -2.142 123.178  0.00  0.00    +0.000 A 
ATOM     31  N   UNL     1      -8.027  -3.005 124.245  0.00  0.00    +0.000 N 
ATOM     32  N   UNL     1      -6.844  -3.678 124.294  0.00  0.00    +0.000 NA
ENDBRANCH  26  31
ENDBRANCH  19  26
ENDBRANCH   1  22
TORSDOF 3
ENDMDL
MODEL 2
REMARK VINA RESULT:      -8.9      1.101      1.466
REMARK  Name = CHEMBL3416757
REMARK  6 active torsions:
REMARK  status: ('A' for Active; 'I' for Inactive)
REMARK    1  A    between atoms: C_1  and  C_2
REMARK    2  A    between atoms: N_5  and  C_6
REMARK    3  A    between atoms: C_6  and  C_7
REMARK    4  A    between atoms: C_10  and  C_11
REMARK    5  A    between atoms: N_18  and  C_19
REMARK    6  A    between atoms: C_29  and  C_30
REMARK                            x       y       z     vdW  Elec       q    Type
REMARK                         _______ _______ _______ _____ _____    ______ ____
ROOT
ATOM      1  C   UNL     1      -7.492  -2.100 130.572  0.00  0.00    +0.000 C 
ATOM      2  O   UNL     1      -8.030  -1.120 131.112  0.00  0.00    +0.000 OA
ATOM      3  N   UNL     1      -6.584  -2.961 131.245  0.00  0.00    +0.000 N 
ATOM      4  C   UNL     1      -6.680  -2.846 132.745  0.00  0.00    +0.000 C 
ATOM      5  C   UNL     1      -6.107  -3.999 133.484  0.00  0.00    +0.000 A 
ATOM      6  C   UNL     1      -6.560  -4.644 134.659  0.00  0.00    +0.000 A 
ATOM      7  N   UNL     1      -5.777  -5.669 135.015  0.00  0.00    +0.000 NA
ATOM      8  N   UNL     1      -4.794  -5.650 134.090  0.00  0.00    +0.000 N 
ATOM      9  C   UNL     1      -3.767  -6.661 134.096  0.00  0.00    +0.000 C 
ATOM     10  C   UNL     1      -4.882  -4.578 133.241  0.00  0.00    +0.000 A 
ATOM     11  N   UNL     1      -3.904  -4.196 132.367  0.00  0.00    +0.000 N 
ATOM     12  C   UNL     1      -4.178  -3.085 131.521  0.00  0.00    +0.000 A 
ATOM     13  C   UNL     1      -4.041  -1.760 131.953  0.00  0.00    +0.000 A 
ATOM     14  C   UNL     1      -4.580  -0.704 131.170  0.00  0.00    +0.000 A 
ATOM     15  C   UNL     1      -4.895  -0.954 129.846  0.00  0.00    +0.000 A 
ATOM     16  C   UNL     1      -4.889  -2.285 129.503  0.00  0.00    +0.000 A 
ATOM     17  C   UNL     1      -5.170  -3.143 130.578  0.00  0.00    +0.000 A 
ATOM     18  H   UNL     1      -3.521  -4.970 131.819  0.00  0.00    +0.000 HD
ENDROOT
BRANCH   1  22
ATOM     19  C   UNL     1      -8.630  -2.531 126.454  0.00  0.00    +0.000 A 
ATOM     20  C   UNL     1      -8.647  -3.657 127.324  0.00  0.00    +0.000 A 
ATOM     21  C   UNL     1      -8.224  -3.564 128.660  0.00  0.00    +0.000 A 
ATOM     22  C   UNL     1      -7.718  -2.355 129.128  0.00  0.00    +0.000 A 
ATOM     23  C   UNL     1      -7.657  -1.263 128.274  0.00  0.00    +0.000 A 
ATOM     24  C   UNL     1      -8.211  -1.306 127.002  0.00  0.00    +0.000 A 
ATOM     25  C   UNL     1      -8.258   0.031 126.347  0.00  0.00    +0.000 C 
BRANCH  19  26
ATOM     26  C   UNL     1      -9.022  -2.750 124.989  0.00  0.00    +0.000 C 
BRANCH  26  31
ATOM     27  C   UNL     1      -4.513  -3.285 123.332  0.00  0.00    +0.000 C 
ATOM     28  C   UNL     1      -5.960  -2.927 123.254  0.00  0.00    +0.000 A 
ATOM     29  C   UNL     1      -6.534  -1.864 122.521  0.00  0.00    +0.000 A 
ATOM     30  C   UNL     1      -7.827  -1.762 122.980  0.00  0.00    +0.000 A 
ATOM     31  N   UNL     1      -7.952  -2.697 123.977  0.00  0.00    +0.000 N 
ATOM     32  N   UNL     1      -6.888  -3.545 124.010  0.00  0.00    +0.000 NA
ENDBRANCH  26  31
ENDBRANCH  19  26
ENDBRANCH   1  22
TORSDOF 3
ENDMDL
MODEL 3
REMARK VINA RESULT:      -8.8      6.187      8.309
REMARK  Name = CHEMBL3416757
REMARK  6 active torsions:
REMARK  status: ('A' for Active; 'I' for Inactive)
REMARK    1  A    between atoms: C_1  and  C_2
REMARK    2  A    between atoms: N_5  and  C_6
REMARK    3  A    between atoms: C_6  and  C_7
REMARK    4  A    between atoms: C_10  and  C_11
REMARK    5  A    between atoms: N_18  and  C_19
REMARK    6  A    between atoms: C_29  and  C_30
REMARK                            x       y       z     vdW  Elec       q    Type
REMARK                         _______ _______ _______ _____ _____    ______ ____
ROOT
ATOM      1  C   UNL     1      -7.133   3.627 130.955  0.00  0.00    +0.000 C 
ATOM      2  O   UNL     1      -6.017   4.152 130.817  0.00  0.00    +0.000 OA
ATOM      3  N   UNL     1      -8.323   4.371 131.179  0.00  0.00    +0.000 N 
ATOM      4  C   UNL     1      -8.180   5.822 130.798  0.00  0.00    +0.000 C 
ATOM      5  C   UNL     1      -9.469   6.528 130.587  0.00  0.00    +0.000 A 
ATOM      6  C   UNL     1      -9.826   7.504 129.627  0.00  0.00    +0.000 A 
ATOM      7  N   UNL     1     -11.099   7.896 129.743  0.00  0.00    +0.000 NA
ATOM      8  N   UNL     1     -11.545   7.201 130.811  0.00  0.00    +0.000 N 
ATOM      9  C   UNL     1     -12.922   7.303 131.226  0.00  0.00    +0.000 C 
ATOM     10  C   UNL     1     -10.557   6.479 131.428  0.00  0.00    +0.000 A 
ATOM     11  N   UNL     1     -10.682   5.872 132.646  0.00  0.00    +0.000 N 
ATOM     12  C   UNL     1      -9.570   5.120 133.119  0.00  0.00    +0.000 A 
ATOM     13  C   UNL     1      -8.469   5.717 133.744  0.00  0.00    +0.000 A 
ATOM     14  C   UNL     1      -7.281   4.965 133.951  0.00  0.00    +0.000 A 
ATOM     15  C   UNL     1      -7.350   3.585 133.877  0.00  0.00    +0.000 A 
ATOM     16  C   UNL     1      -8.524   3.102 133.351  0.00  0.00    +0.000 A 
ATOM     17  C   UNL     1      -9.151   3.992 132.464  0.00  0.00    +0.000 A 
ATOM     18  H   UNL     1     -11.543   5.332 132.747  0.00  0.00    +0.000 HD
ENDROOT
BRANCH   1  22
ATOM     19  C   UNL     1      -7.083  -0.652 130.603  0.00  0.00    +0.000 A 
ATOM     20  C   UNL     1      -8.246   0.083 130.239  0.00  0.00    +0.000 A 
ATOM     21  C   UNL     1      -8.318   1.477 130.398  0.00  0.00    +0.000 A 
ATOM     22  C   UNL     1      -7.248   2.148 130.982  0.00  0.00    +0.000 A 
ATOM     23  C   UNL     1      -6.128   1.433 131.381  0.00  0.00    +0.000 A 
ATOM     24  C   UNL     1      -5.989   0.082 131.090  0.00  0.00    +0.000 A 
ATOM     25  C   UNL     1      -4.622  -0.434 131.382  0.00  0.00    +0.000 C 
BRANCH  19  26
ATOM     26  C   UNL     1      -7.133  -2.178 130.480  0.00  0.00    +0.000 C 
BRANCH  26  31
ATOM     27  C   UNL     1      -7.865  -2.129 125.702  0.00  0.00    +0.000 C 
ATOM     28  C   UNL     1      -7.856  -2.719 127.073  0.00  0.00    +0.000 A 
ATOM     29  C   UNL     1      -8.794  -3.628 127.614  0.00  0.00    +0.000 A 
ATOM     30  C   UNL     1      -8.534  -3.656 128.966  0.00  0.00    +0.000 A 
ATOM     31  N   UNL     1      -7.527  -2.749 129.180  0.00  0.00    +0.000 N 
ATOM     32  N   UNL     1      -6.971  -2.328 128.010  0.00  0.00    +0.000 NA
ENDBRANCH  26  31
ENDBRANCH  19  26
ENDBRANCH   1  22
TORSDOF 3
ENDMDL
MODEL 4
REMARK VINA RESULT:      -8.7      9.243     11.172
REMARK  Name = CHEMBL3416757
REMARK  6 active torsions:
REMARK  status: ('A' for Active; 'I' for Inactive)
REMARK    1  A    between atoms: C_1  and  C_2
REMARK    2  A    between atoms: N_5  and  C_6
REMARK    3  A    between atoms: C_6  and  C_7
REMARK    4  A    between atoms: C_10  and  C_11
REMARK    5  A    between atoms: N_18  and  C_19
REMARK    6  A    between atoms: C_29  and  C_30
REMARK                            x       y       z     vdW  Elec       q    Type
REMARK                         _______ _______ _______ _____ _____    ______ ____
ROOT
ATOM      1  C   UNL     1      -5.010   6.687 130.644  0.00  0.00    +0.000 C 
ATOM      2  O   UNL     1      -4.549   6.813 129.499  0.00  0.00    +0.000 OA
ATOM      3  N   UNL     1      -4.281   7.013 131.819  0.00  0.00    +0.000 N 
ATOM      4  C   UNL     1      -3.107   7.917 131.541  0.00  0.00    +0.000 C 
ATOM      5  C   UNL     1      -2.594   8.636 132.734  0.00  0.00    +0.000 A 
ATOM      6  C   UNL     1      -2.108   9.959 132.860  0.00  0.00    +0.000 A 
ATOM      7  N   UNL     1      -1.747  10.255 134.114  0.00  0.00    +0.000 NA
ATOM      8  N   UNL     1      -1.960   9.102 134.782  0.00  0.00    +0.000 N 
ATOM      9  C   UNL     1      -1.745   9.033 136.206  0.00  0.00    +0.000 C 
ATOM     10  C   UNL     1      -2.333   8.071 133.961  0.00  0.00    +0.000 A 
ATOM     11  N   UNL     1      -2.393   6.758 134.338  0.00  0.00    +0.000 N 
ATOM     12  C   UNL     1      -2.849   5.819 133.370  0.00  0.00    +0.000 A 
ATOM     13  C   UNL     1      -2.011   5.296 132.377  0.00  0.00    +0.000 A 
ATOM     14  C   UNL     1      -2.572   4.582 131.285  0.00  0.00    +0.000 A 
ATOM     15  C   UNL     1      -3.864   4.099 131.403  0.00  0.00    +0.000 A 
ATOM     16  C   UNL     1      -4.559   4.594 132.480  0.00  0.00    +0.000 A 
ATOM     17  C   UNL     1      -4.130   5.867 132.888  0.00  0.00    +0.000 A 
ATOM     18  H   UNL     1      -2.875   6.611 135.227  0.00  0.00    +0.000 HD
ENDROOT
BRANCH   1  22
ATOM     19  C   UNL     1      -9.025   5.164 130.670  0.00  0.00    +0.000 A 
ATOM     20  C   UNL     1      -8.640   6.185 131.584  0.00  0.00    +0.000 A 
ATOM     21  C   UNL     1      -7.320   6.663 131.643  0.00  0.00    +0.000 A 
ATOM     22  C   UNL     1      -6.352   6.082 130.830  0.00  0.00    +0.000 A 
ATOM     23  C   UNL     1      -6.710   5.056 129.967  0.00  0.00    +0.000 A 
ATOM     24  C   UNL     1      -8.036   4.683 129.796  0.00  0.00    +0.000 A 
ATOM     25  C   UNL     1      -8.229   3.743 128.656  0.00  0.00    +0.000 C 
BRANCH  19  26
ATOM     26  C   UNL     1     -10.464   4.643 130.743  0.00  0.00    +0.000 C 
BRANCH  26  31
ATOM     27  C   UNL     1     -13.139   7.698 128.120  0.00  0.00    +0.000 C 
ATOM     28  C   UNL     1     -12.726   6.958 129.350  0.00  0.00    +0.000 A 
ATOM     29  C   UNL     1     -12.761   7.434 130.680  0.00  0.00    +0.000 A 
ATOM     30  C   UNL     1     -12.031   6.524 131.411  0.00  0.00    +0.000 A 
ATOM     31  N   UNL     1     -11.555   5.606 130.509  0.00  0.00    +0.000 N 
ATOM     32  N   UNL     1     -12.141   5.747 129.288  0.00  0.00    +0.000 NA
ENDBRANCH  26  31
ENDBRANCH  19  26
ENDBRANCH   1  22
TORSDOF 3
ENDMDL
MODEL 5
REMARK VINA RESULT:      -8.6      5.559      8.244
REMARK  Name = CHEMBL3416757
REMARK  6 active torsions:
REMARK  status: ('A' for Active; 'I' for Inactive)
REMARK    1  A    between atoms: C_1  and  C_2
REMARK    2  A    between atoms: N_5  and  C_6
REMARK    3  A    between atoms: C_6  and  C_7
REMARK    4  A    between atoms: C_10  and  C_11
REMARK    5  A    between atoms: N_18  and  C_19
REMARK    6  A    between atoms: C_29  and  C_30
REMARK                            x       y       z     vdW  Elec       q    Type
REMARK                         _______ _______ _______ _____ _____    ______ ____
ROOT
ATOM      1  C   UNL     1      -8.038   0.425 131.836  0.00  0.00    +0.000 C 
ATOM      2  O   UNL     1      -7.872  -0.187 132.902  0.00  0.00    +0.000 OA
ATOM      3  N   UNL     1      -7.790  -0.149 130.560  0.00  0.00    +0.000 N 
ATOM      4  C   UNL     1      -7.742  -1.654 130.601  0.00  0.00    +0.000 C 
ATOM      5  C   UNL     1      -7.934  -2.307 129.281  0.00  0.00    +0.000 A 
ATOM      6  C   UNL     1      -8.635  -3.489 128.943  0.00  0.00    +0.000 A 
ATOM      7  N   UNL     1      -8.597  -3.751 127.632  0.00  0.00    +0.000 NA
ATOM      8  N   UNL     1      -7.829  -2.757 127.136  0.00  0.00    +0.000 N 
ATOM      9  C   UNL     1      -7.599  -2.652 125.717  0.00  0.00    +0.000 C 
ATOM     10  C   UNL     1      -7.298  -1.956 128.112  0.00  0.00    +0.000 A 
ATOM     11  N   UNL     1      -6.318  -1.026 127.908  0.00  0.00    +0.000 N 
ATOM     12  C   UNL     1      -5.914  -0.243 129.026  0.00  0.00    +0.000 A 
ATOM     13  C   UNL     1      -5.004  -0.710 129.982  0.00  0.00    +0.000 A 
ATOM     14  C   UNL     1      -4.844  -0.007 131.206  0.00  0.00    +0.000 A 
ATOM     15  C   UNL     1      -5.296   1.299 131.284  0.00  0.00    +0.000 A 
ATOM     16  C   UNL     1      -6.091   1.688 130.234  0.00  0.00    +0.000 A 
ATOM     17  C   UNL     1      -6.784   0.627 129.629  0.00  0.00    +0.000 A 
ATOM     18  H   UNL     1      -6.488  -0.425 127.099  0.00  0.00    +0.000 HD
ENDROOT
BRANCH   1  22
ATOM     19  C   UNL     1      -9.497   4.428 132.373  0.00  0.00    +0.000 A 
ATOM     20  C   UNL     1      -9.867   3.679 131.220  0.00  0.00    +0.000 A 
ATOM     21  C   UNL     1      -9.360   2.390 130.984  0.00  0.00    +0.000 A 
ATOM     22  C   UNL     1      -8.426   1.857 131.867  0.00  0.00    +0.000 A 
ATOM     23  C   UNL     1      -8.027   2.598 132.970  0.00  0.00    +0.000 A 
ATOM     24  C   UNL     1      -8.634   3.805 133.290  0.00  0.00    +0.000 A 
ATOM     25  C   UNL     1      -8.235   4.313 134.632  0.00  0.00    +0.000 C 
BRANCH  19  26
ATOM     26  C   UNL     1     -10.028   5.860 132.498  0.00  0.00    +0.000 C 
BRANCH  26  31
ATOM     27  C   UNL     1     -10.626   8.509 128.500  0.00  0.00    +0.000 C 
ATOM     28  C   UNL     1     -11.042   7.592 129.602  0.00  0.00    +0.000 A 
ATOM     29  C   UNL     1     -12.295   7.559 130.253  0.00  0.00    +0.000 A 
ATOM     30  C   UNL     1     -12.109   6.764 131.361  0.00  0.00    +0.000 A 
ATOM     31  N   UNL     1     -10.782   6.414 131.360  0.00  0.00    +0.000 N 
ATOM     32  N   UNL     1     -10.174   6.743 130.186  0.00  0.00    +0.000 NA
ENDBRANCH  26  31
ENDBRANCH  19  26
ENDBRANCH   1  22
TORSDOF 3
ENDMDL
MODEL 6
REMARK VINA RESULT:      -8.5      8.986     11.852
REMARK  Name = CHEMBL3416757
REMARK  6 active torsions:
REMARK  status: ('A' for Active; 'I' for Inactive)
REMARK    1  A    between atoms: C_1  and  C_2
REMARK    2  A    between atoms: N_5  and  C_6
REMARK    3  A    between atoms: C_6  and  C_7
REMARK    4  A    between atoms: C_10  and  C_11
REMARK    5  A    between atoms: N_18  and  C_19
REMARK    6  A    between atoms: C_29  and  C_30
REMARK                            x       y       z     vdW  Elec       q    Type
REMARK                         _______ _______ _______ _____ _____    ______ ____
ROOT
ATOM      1  C   UNL     1      -7.920   5.841 132.846  0.00  0.00    +0.000 C 
ATOM      2  O   UNL     1      -8.117   5.637 134.054  0.00  0.00    +0.000 OA
ATOM      3  N   UNL     1      -8.958   5.836 131.875  0.00  0.00    +0.000 N 
ATOM      4  C   UNL     1     -10.325   6.005 132.487  0.00  0.00    +0.000 C 
ATOM      5  C   UNL     1     -11.372   6.449 131.532  0.00  0.00    +0.000 A 
ATOM      6  C   UNL     1     -12.446   7.351 131.714  0.00  0.00    +0.000 A 
ATOM      7  N   UNL     1     -13.174   7.512 130.603  0.00  0.00    +0.000 NA
ATOM      8  N   UNL     1     -12.590   6.673 129.721  0.00  0.00    +0.000 N 
ATOM      9  C   UNL     1     -13.057   6.604 128.360  0.00  0.00    +0.000 C 
ATOM     10  C   UNL     1     -11.596   5.915 130.284  0.00  0.00    +0.000 A 
ATOM     11  N   UNL     1     -11.001   4.842 129.683  0.00  0.00    +0.000 N 
ATOM     12  C   UNL     1      -9.949   4.195 130.390  0.00  0.00    +0.000 A 
ATOM     13  C   UNL     1     -10.189   3.254 131.398  0.00  0.00    +0.000 A 
ATOM     14  C   UNL     1      -9.126   2.845 132.249  0.00  0.00    +0.000 A 
ATOM     15  C   UNL     1      -7.825   3.088 131.846  0.00  0.00    +0.000 A 
ATOM     16  C   UNL     1      -7.712   3.939 130.774  0.00  0.00    +0.000 A 
ATOM     17  C   UNL     1      -8.776   4.848 130.663  0.00  0.00    +0.000 A 
ATOM     18  H   UNL     1     -10.720   5.020 128.716  0.00  0.00    +0.000 HD
ENDROOT
BRANCH   1  22
ATOM     19  C   UNL     1      -3.823   6.666 131.863  0.00  0.00    +0.000 A 
ATOM     20  C   UNL     1      -4.872   7.176 131.047  0.00  0.00    +0.000 A 
ATOM     21  C   UNL     1      -6.220   6.876 131.306  0.00  0.00    +0.000 A 
ATOM     22  C   UNL     1      -6.533   6.008 132.348  0.00  0.00    +0.000 A 
ATOM     23  C   UNL     1      -5.513   5.471 133.120  0.00  0.00    +0.000 A 
ATOM     24  C   UNL     1      -4.195   5.881 132.967  0.00  0.00    +0.000 A 
ATOM     25  C   UNL     1      -3.304   5.373 134.047  0.00  0.00    +0.000 C 
BRANCH  19  26
ATOM     26  C   UNL     1      -2.380   6.973 131.449  0.00  0.00    +0.000 C 
BRANCH  26  31
ATOM     27  C   UNL     1       0.732   7.517 135.107  0.00  0.00    +0.000 C 
ATOM     28  C   UNL     1      -0.177   7.969 134.012  0.00  0.00    +0.000 A 
ATOM     29  C   UNL     1      -0.998   9.119 134.009  0.00  0.00    +0.000 A 
ATOM     30  C   UNL     1      -1.842   8.959 132.933  0.00  0.00    +0.000 A 
ATOM     31  N   UNL     1      -1.543   7.734 132.392  0.00  0.00    +0.000 N 
ATOM     32  N   UNL     1      -0.396   7.218 132.915  0.00  0.00    +0.000 NA
ENDBRANCH  26  31
ENDBRANCH  19  26
ENDBRANCH   1  22
TORSDOF 3
ENDMDL
MODEL 7
REMARK VINA RESULT:      -8.3      6.110      9.168
REMARK  Name = CHEMBL3416757
REMARK  6 active torsions:
REMARK  status: ('A' for Active; 'I' for Inactive)
REMARK    1  A    between atoms: C_1  and  C_2
REMARK    2  A    between atoms: N_5  and  C_6
REMARK    3  A    between atoms: C_6  and  C_7
REMARK    4  A    between atoms: C_10  and  C_11
REMARK    5  A    between atoms: N_18  and  C_19
REMARK    6  A    between atoms: C_29  and  C_30
REMARK                            x       y       z     vdW  Elec       q    Type
REMARK                         _______ _______ _______ _____ _____    ______ ____
ROOT
ATOM      1  C   UNL     1      -7.118   3.570 131.031  0.00  0.00    +0.000 C 
ATOM      2  O   UNL     1      -5.999   4.088 130.891  0.00  0.00    +0.000 OA
ATOM      3  N   UNL     1      -8.305   4.323 131.238  0.00  0.00    +0.000 N 
ATOM      4  C   UNL     1      -8.154   5.767 130.837  0.00  0.00    +0.000 C 
ATOM      5  C   UNL     1      -9.438   6.476 130.609  0.00  0.00    +0.000 A 
ATOM      6  C   UNL     1      -9.786   7.440 129.633  0.00  0.00    +0.000 A 
ATOM      7  N   UNL     1     -11.058   7.839 129.736  0.00  0.00    +0.000 NA
ATOM      8  N   UNL     1     -11.513   7.162 130.812  0.00  0.00    +0.000 N 
ATOM      9  C   UNL     1     -12.891   7.276 131.217  0.00  0.00    +0.000 C 
ATOM     10  C   UNL     1     -10.531   6.444 131.444  0.00  0.00    +0.000 A 
ATOM     11  N   UNL     1     -10.665   5.856 132.670  0.00  0.00    +0.000 N 
ATOM     12  C   UNL     1      -9.560   5.105 133.160  0.00  0.00    +0.000 A 
ATOM     13  C   UNL     1      -8.459   5.706 133.782  0.00  0.00    +0.000 A 
ATOM     14  C   UNL     1      -7.276   4.952 134.006  0.00  0.00    +0.000 A 
ATOM     15  C   UNL     1      -7.351   3.571 133.952  0.00  0.00    +0.000 A 
ATOM     16  C   UNL     1      -8.525   3.086 133.426  0.00  0.00    +0.000 A 
ATOM     17  C   UNL     1      -9.142   3.966 132.524  0.00  0.00    +0.000 A 
ATOM     18  H   UNL     1     -11.529   5.321 132.774  0.00  0.00    +0.000 HD
ENDROOT
BRANCH   1  22
ATOM     19  C   UNL     1      -7.070  -0.715 130.756  0.00  0.00    +0.000 A 
ATOM     20  C   UNL     1      -8.212   0.018 130.328  0.00  0.00    +0.000 A 
ATOM     21  C   UNL     1      -8.285   1.415 130.459  0.00  0.00    +0.000 A 
ATOM     22  C   UNL     1      -7.240   2.093 131.079  0.00  0.00    +0.000 A 
ATOM     23  C   UNL     1      -6.142   1.381 131.540  0.00  0.00    +0.000 A 
ATOM     24  C   UNL     1      -5.995   0.025 131.279  0.00  0.00    +0.000 A 
ATOM     25  C   UNL     1      -4.645  -0.490 131.642  0.00  0.00    +0.000 C 
BRANCH  19  26
ATOM     26  C   UNL     1      -7.120  -2.243 130.658  0.00  0.00    +0.000 C 
BRANCH  26  31
ATOM     27  C   UNL     1      -7.272  -2.944 135.438  0.00  0.00    +0.000 C 
ATOM     28  C   UNL     1      -7.030  -3.317 134.013  0.00  0.00    +0.000 A 
ATOM     29  C   UNL     1      -6.009  -4.158 133.516  0.00  0.00    +0.000 A 
ATOM     30  C   UNL     1      -6.017  -3.972 132.152  0.00  0.00    +0.000 A 
ATOM     31  N   UNL     1      -6.969  -3.016 131.903  0.00  0.00    +0.000 N 
ATOM     32  N   UNL     1      -7.730  -2.763 133.004  0.00  0.00    +0.000 NA
ENDBRANCH  26  31
ENDBRANCH  19  26
ENDBRANCH   1  22
TORSDOF 3
ENDMDL
MODEL 8
REMARK VINA RESULT:      -8.3      2.599      9.175
REMARK  Name = CHEMBL3416757
REMARK  6 active torsions:
REMARK  status: ('A' for Active; 'I' for Inactive)
REMARK    1  A    between atoms: C_1  and  C_2
REMARK    2  A    between atoms: N_5  and  C_6
REMARK    3  A    between atoms: C_6  and  C_7
REMARK    4  A    between atoms: C_10  and  C_11
REMARK    5  A    between atoms: N_18  and  C_19
REMARK    6  A    between atoms: C_29  and  C_30
REMARK                            x       y       z     vdW  Elec       q    Type
REMARK                         _______ _______ _______ _____ _____    ______ ____
ROOT
ATOM      1  C   UNL     1      -8.185  -2.064 126.698  0.00  0.00    +0.000 C 
ATOM      2  O   UNL     1      -8.783  -3.127 126.469  0.00  0.00    +0.000 OA
ATOM      3  N   UNL     1      -8.025  -1.036 125.731  0.00  0.00    +0.000 N 
ATOM      4  C   UNL     1      -8.998  -1.158 124.587  0.00  0.00    +0.000 C 
ATOM      5  C   UNL     1      -9.182   0.090 123.805  0.00  0.00    +0.000 A 
ATOM      6  C   UNL     1     -10.351   0.639 123.227  0.00  0.00    +0.000 A 
ATOM      7  N   UNL     1     -10.119   1.801 122.606  0.00  0.00    +0.000 NA
ATOM      8  N   UNL     1      -8.787   1.972 122.747  0.00  0.00    +0.000 N 
ATOM      9  C   UNL     1      -8.148   3.167 122.255  0.00  0.00    +0.000 C 
ATOM     10  C   UNL     1      -8.172   0.899 123.336  0.00  0.00    +0.000 A 
ATOM     11  N   UNL     1      -6.819   0.714 123.395  0.00  0.00    +0.000 N 
ATOM     12  C   UNL     1      -6.345  -0.435 124.088  0.00  0.00    +0.000 A 
ATOM     13  C   UNL     1      -6.299  -1.704 123.498  0.00  0.00    +0.000 A 
ATOM     14  C   UNL     1      -6.077  -2.851 124.306  0.00  0.00    +0.000 A 
ATOM     15  C   UNL     1      -5.549  -2.676 125.574  0.00  0.00    +0.000 A 
ATOM     16  C   UNL     1      -5.540  -1.373 126.009  0.00  0.00    +0.000 A 
ATOM     17  C   UNL     1      -6.546  -0.580 125.435  0.00  0.00    +0.000 A 
ATOM     18  H   UNL     1      -6.306   1.544 123.697  0.00  0.00    +0.000 HD
ENDROOT
BRANCH   1  22
ATOM     19  C   UNL     1      -6.658  -1.841 130.705  0.00  0.00    +0.000 A 
ATOM     20  C   UNL     1      -7.252  -0.698 130.100  0.00  0.00    +0.000 A 
ATOM     21  C   UNL     1      -7.707  -0.719 128.771  0.00  0.00    +0.000 A 
ATOM     22  C   UNL     1      -7.517  -1.867 128.008  0.00  0.00    +0.000 A 
ATOM     23  C   UNL     1      -6.899  -2.972 128.576  0.00  0.00    +0.000 A 
ATOM     24  C   UNL     1      -6.584  -3.010 129.928  0.00  0.00    +0.000 A 
ATOM     25  C   UNL     1      -6.159  -4.363 130.384  0.00  0.00    +0.000 C 
BRANCH  19  26
ATOM     26  C   UNL     1      -6.108  -1.695 132.127  0.00  0.00    +0.000 C 
BRANCH  26  31
ATOM     27  C   UNL     1      -6.655  -5.585 134.945  0.00  0.00    +0.000 C 
ATOM     28  C   UNL     1      -6.976  -4.222 134.425  0.00  0.00    +0.000 A 
ATOM     29  C   UNL     1      -8.259  -3.649 134.279  0.00  0.00    +0.000 A 
ATOM     30  C   UNL     1      -8.068  -2.522 133.512  0.00  0.00    +0.000 A 
ATOM     31  N   UNL     1      -6.734  -2.501 133.191  0.00  0.00    +0.000 N 
ATOM     32  N   UNL     1      -6.027  -3.416 133.911  0.00  0.00    +0.000 NA
ENDBRANCH  26  31
ENDBRANCH  19  26
ENDBRANCH   1  22
TORSDOF 3
ENDMDL
MODEL 9
REMARK VINA RESULT:      -8.1      2.508      4.100
REMARK  Name = CHEMBL3416757
REMARK  6 active torsions:
REMARK  status: ('A' for Active; 'I' for Inactive)
REMARK    1  A    between atoms: C_1  and  C_2
REMARK    2  A    between atoms: N_5  and  C_6
REMARK    3  A    between atoms: C_6  and  C_7
REMARK    4  A    between atoms: C_10  and  C_11
REMARK    5  A    between atoms: N_18  and  C_19
REMARK    6  A    between atoms: C_29  and  C_30
REMARK                            x       y       z     vdW  Elec       q    Type
REMARK                         _______ _______ _______ _____ _____    ______ ____
ROOT
ATOM      1  C   UNL     1      -5.353  -4.286 131.576  0.00  0.00    +0.000 C 
ATOM      2  O   UNL     1      -5.621  -5.495 131.488  0.00  0.00    +0.000 OA
ATOM      3  N   UNL     1      -4.677  -3.717 132.688  0.00  0.00    +0.000 N 
ATOM      4  C   UNL     1      -3.944  -4.745 133.510  0.00  0.00    +0.000 C 
ATOM      5  C   UNL     1      -2.886  -4.184 134.388  0.00  0.00    +0.000 A 
ATOM      6  C   UNL     1      -1.607  -4.695 134.714  0.00  0.00    +0.000 A 
ATOM      7  N   UNL     1      -0.925  -3.887 135.533  0.00  0.00    +0.000 NA
ATOM      8  N   UNL     1      -1.790  -2.877 135.768  0.00  0.00    +0.000 N 
ATOM      9  C   UNL     1      -1.393  -1.750 136.574  0.00  0.00    +0.000 C 
ATOM     10  C   UNL     1      -3.024  -3.091 135.213  0.00  0.00    +0.000 A 
ATOM     11  N   UNL     1      -4.138  -2.346 135.481  0.00  0.00    +0.000 N 
ATOM     12  C   UNL     1      -5.331  -2.676 134.779  0.00  0.00    +0.000 A 
ATOM     13  C   UNL     1      -6.171  -3.724 135.174  0.00  0.00    +0.000 A 
ATOM     14  C   UNL     1      -7.191  -4.180 134.296  0.00  0.00    +0.000 A 
ATOM     15  C   UNL     1      -7.576  -3.363 133.247  0.00  0.00    +0.000 A 
ATOM     16  C   UNL     1      -6.737  -2.298 133.019  0.00  0.00    +0.000 A 
ATOM     17  C   UNL     1      -5.412  -2.531 133.419  0.00  0.00    +0.000 A 
ATOM     18  H   UNL     1      -3.973  -1.339 135.445  0.00  0.00    +0.000 HD
ENDROOT
BRANCH   1  22
ATOM     19  C   UNL     1      -6.674  -2.025 128.173  0.00  0.00    +0.000 A 
ATOM     20  C   UNL     1      -5.428  -1.726 128.792  0.00  0.00    +0.000 A 
ATOM     21  C   UNL     1      -4.994  -2.405 129.942  0.00  0.00    +0.000 A 
ATOM     22  C   UNL     1      -5.830  -3.353 130.526  0.00  0.00    +0.000 A 
ATOM     23  C   UNL     1      -7.065  -3.620 129.954  0.00  0.00    +0.000 A 
ATOM     24  C   UNL     1      -7.436  -3.063 128.737  0.00  0.00    +0.000 A 
ATOM     25  C   UNL     1      -8.681  -3.664 128.183  0.00  0.00    +0.000 C 
BRANCH  19  26
ATOM     26  C   UNL     1      -7.105  -1.169 126.978  0.00  0.00    +0.000 C 
BRANCH  26  31
ATOM     27  C   UNL     1      -9.577  -3.323 123.426  0.00  0.00    +0.000 C 
ATOM     28  C   UNL     1      -8.362  -2.797 124.116  0.00  0.00    +0.000 A 
ATOM     29  C   UNL     1      -7.066  -3.359 124.101  0.00  0.00    +0.000 A 
ATOM     30  C   UNL     1      -6.372  -2.699 125.090  0.00  0.00    +0.000 A 
ATOM     31  N   UNL     1      -7.268  -1.840 125.676  0.00  0.00    +0.000 N 
ATOM     32  N   UNL     1      -8.421  -1.747 124.957  0.00  0.00    +0.000 NA
ENDBRANCH  26  31
ENDBRANCH  19  26
ENDBRANCH   1  22
TORSDOF 3
ENDMDL
