MODEL 1
REMARK VINA RESULT:     -11.8      0.000      0.000
REMARK  Name = CHEMBL1790937
REMARK  8 active torsions:
REMARK  status: ('A' for Active; 'I' for Inactive)
REMARK    1  A    between atoms: CD1_1  and  CG1_2
REMARK    2  A    between atoms: CG1_2  and  CB_3
REMARK    3  A    between atoms: CB_3  and  CG2_4
REMARK    4  A    between atoms: CB_3  and  CA_5
REMARK    5  A    between atoms: CA_9  and  CB_10
REMARK    6  A    between atoms: CB_10  and  CG_11
REMARK    7  A    between atoms: CA_30  and  CB_31
REMARK    8  A    between atoms: CB_31  and  CG_32
REMARK                            x       y       z     vdW  Elec       q    Type
REMARK                         _______ _______ _______ _____ _____    ______ ____
ROOT
ATOM      1  CA  ILE A   1      -8.209  -1.416 127.020  0.00  0.00    +0.000 C 
ATOM      2  N   ILE A   1      -7.727  -0.169 126.429  0.00  0.00    +0.000 N 
ATOM      3  C   TRP A   6      -8.423   1.002 126.201  0.00  0.00    +0.000 C 
ATOM      4  O   TRP A   6      -9.617   1.148 126.427  0.00  0.00    +0.000 OA
ATOM      5  CA  TRP A   6      -7.537   2.229 125.793  0.00  0.00    +0.000 C 
ATOM      6  N   TRP A   6      -8.315   3.543 126.134  0.00  0.00    +0.000 N 
ATOM      7  C   PRO A   5      -7.767   4.578 126.954  0.00  0.00    +0.000 C 
ATOM      8  O   PRO A   5      -6.853   5.194 126.335  0.00  0.00    +0.000 OA
ATOM      9  CA  PRO A   5      -7.704   4.203 128.928  0.00  0.00    +0.000 C 
ATOM     10  CB  PRO A   5      -6.265   3.016 129.120  0.00  0.00    +0.000 C 
ATOM     11  CG  PRO A   5      -7.081   3.085 128.123  0.00  0.00    +0.000 C 
ATOM     12  CD  PRO A   5      -6.367   4.843 128.661  0.00  0.00    +0.000 C 
ATOM     13  N   PRO A   5      -7.055   5.024 129.842  0.00  0.00    +0.000 N 
ATOM     14  C   HIS A   4      -6.451   4.643 131.131  0.00  0.00    +0.000 C 
ATOM     15  O   HIS A   4      -6.981   5.086 132.161  0.00  0.00    +0.000 OA
ATOM     16  CA  HIS A   4      -5.174   3.522 131.436  0.00  0.00    +0.000 C 
ATOM     17  N   HIS A   4      -5.317   2.772 132.833  0.00  0.00    +0.000 N 
ATOM     18  C   LYS A   3      -4.971   1.420 133.129  0.00  0.00    +0.000 C 
ATOM     19  O   LYS A   3      -3.748   1.248 133.291  0.00  0.00    +0.000 OA
ATOM     20  CA  LYS A   3      -6.042  -0.051 132.760  0.00  0.00    +0.000 C 
ATOM     21  CB  LYS A   3      -7.332   0.003 131.911  0.00  0.00    +0.000 C 
ATOM     22  CG  LYS A   3      -7.722   1.335 132.252  0.00  0.00    +0.000 C 
ATOM     23  CD  LYS A   3      -6.971   1.471 130.973  0.00  0.00    +0.000 C 
ATOM     24  CE  LYS A   3      -5.237   0.543 130.836  0.00  0.00    +0.000 C 
ATOM     25  N   LYS A   3      -5.332  -0.618 131.662  0.00  0.00    +0.000 N 
ATOM     26  C   LYS A   2      -5.881  -1.741 131.038  0.00  0.00    +0.000 C 
ATOM     27  O   LYS A   2      -6.498  -2.538 131.733  0.00  0.00    +0.000 OA
ATOM     28  CA  LYS A   2      -5.820  -1.570 129.247  0.00  0.00    +0.000 C 
ATOM     29  CB  LYS A   2      -4.626  -2.173 128.565  0.00  0.00    +0.000 C 
ATOM     30  CG  LYS A   2      -3.768  -2.440 129.723  0.00  0.00    +0.000 C 
ATOM     31  CD  LYS A   2      -4.489  -3.807 129.749  0.00  0.00    +0.000 C 
ATOM     32  CE  LYS A   2      -6.368  -3.696 129.391  0.00  0.00    +0.000 C 
ATOM     33  N   LYS A   2      -6.802  -2.413 128.739  0.00  0.00    +0.000 N 
ATOM     34  C   ILE A   1      -6.949  -2.207 127.345  0.00  0.00    +0.000 C 
ATOM     35  O   ILE A   1      -6.161  -2.516 126.473  0.00  0.00    +0.000 OA
ATOM     36  H   ILE A   1      -6.840  -0.290 125.954  0.00  0.00    +0.000 HD
ATOM     37  H   TRP A   6      -9.254   3.330 126.431  0.00  0.00    +0.000 HD
ATOM     38  H   HIS A   4      -6.141   3.090 133.320  0.00  0.00    +0.000 HD
ENDROOT
BRANCH   1  39
ATOM     39  CB  ILE A   1      -9.009  -2.377 126.141  0.00  0.00    +0.000 C 
ATOM     40  CG2 ILE A   1      -9.154  -3.717 126.831  0.00  0.00    +0.000 C 
BRANCH  39  42
ATOM     41  CD1 ILE A   1      -9.438  -3.276 123.803  0.00  0.00    +0.000 C 
ATOM     42  CG1 ILE A   1      -8.522  -2.458 124.684  0.00  0.00    +0.000 C 
ENDBRANCH  39  42
ENDBRANCH   1  39
BRANCH   5  43
ATOM     43  CB  TRP A   6      -6.614   2.328 124.615  0.00  0.00    +0.000 C 
BRANCH  43  44
ATOM     44  CG  TRP A   6      -7.294   2.620 123.315  0.00  0.00    +0.000 A 
ATOM     45  CD1 TRP A   6      -8.618   2.423 122.969  0.00  0.00    +0.000 A 
ATOM     46  NE1 TRP A   6      -8.796   2.902 121.693  0.00  0.00    +0.000 N 
ATOM     47  CE2 TRP A   6      -7.623   3.447 121.220  0.00  0.00    +0.000 A 
ATOM     48  CZ2 TRP A   6      -7.345   4.167 120.049  0.00  0.00    +0.000 A 
ATOM     49  CH2 TRP A   6      -6.047   4.664 119.878  0.00  0.00    +0.000 A 
ATOM     50  CZ3 TRP A   6      -5.050   4.428 120.821  0.00  0.00    +0.000 A 
ATOM     51  CE3 TRP A   6      -5.354   3.743 121.989  0.00  0.00    +0.000 A 
ATOM     52  CD2 TRP A   6      -6.649   3.214 122.185  0.00  0.00    +0.000 A 
ATOM     53  HE1 TRP A   6      -9.658   2.860 121.165  0.00  0.00    +0.000 HD
ENDBRANCH  43  44
ENDBRANCH   5  43
BRANCH  16  54
ATOM     54  CB  HIS A   4      -3.745   3.620 130.877  0.00  0.00    +0.000 C 
BRANCH  54  55
ATOM     55  CG  HIS A   4      -2.739   4.596 131.437  0.00  0.00    +0.000 A 
ATOM     56  CD2 HIS A   4      -1.827   4.488 132.477  0.00  0.00    +0.000 A 
ATOM     57  NE2 HIS A   4      -1.049   5.622 132.411  0.00  0.00    +0.000 N 
ATOM     58  CE1 HIS A   4      -1.495   6.352 131.356  0.00  0.00    +0.000 A 
ATOM     59  ND1 HIS A   4      -2.651   5.874 130.935  0.00  0.00    +0.000 NA
ATOM     60  HE2 HIS A   4      -0.307   5.914 133.030  0.00  0.00    +0.000 HD
ENDBRANCH  54  55
ENDBRANCH  16  54
TORSDOF 6
ENDMDL
MODEL 2
REMARK VINA RESULT:     -11.4      3.731      7.595
REMARK  Name = CHEMBL1790937
REMARK  8 active torsions:
REMARK  status: ('A' for Active; 'I' for Inactive)
REMARK    1  A    between atoms: CD1_1  and  CG1_2
REMARK    2  A    between atoms: CG1_2  and  CB_3
REMARK    3  A    between atoms: CB_3  and  CG2_4
REMARK    4  A    between atoms: CB_3  and  CA_5
REMARK    5  A    between atoms: CA_9  and  CB_10
REMARK    6  A    between atoms: CB_10  and  CG_11
REMARK    7  A    between atoms: CA_30  and  CB_31
REMARK    8  A    between atoms: CB_31  and  CG_32
REMARK                            x       y       z     vdW  Elec       q    Type
REMARK                         _______ _______ _______ _____ _____    ______ ____
ROOT
ATOM      1  CA  ILE A   1      -4.216   3.608 127.676  0.00  0.00    +0.000 C 
ATOM      2  N   ILE A   1      -5.502   3.162 128.211  0.00  0.00    +0.000 N 
ATOM      3  C   TRP A   6      -5.883   1.891 128.592  0.00  0.00    +0.000 C 
ATOM      4  O   TRP A   6      -5.175   0.898 128.481  0.00  0.00    +0.000 OA
ATOM      5  CA  TRP A   6      -7.243   1.812 129.366  0.00  0.00    +0.000 C 
ATOM      6  N   TRP A   6      -7.262   0.498 130.214  0.00  0.00    +0.000 N 
ATOM      7  C   PRO A   5      -7.505   0.488 131.623  0.00  0.00    +0.000 C 
ATOM      8  O   PRO A   5      -8.719   0.745 131.863  0.00  0.00    +0.000 OA
ATOM      9  CA  PRO A   5      -5.991   1.118 132.786  0.00  0.00    +0.000 C 
ATOM     10  CB  PRO A   5      -6.016   2.983 132.596  0.00  0.00    +0.000 C 
ATOM     11  CG  PRO A   5      -6.309   2.110 131.691  0.00  0.00    +0.000 C 
ATOM     12  CD  PRO A   5      -7.196   1.762 133.418  0.00  0.00    +0.000 C 
ATOM     13  N   PRO A   5      -6.115   1.328 134.154  0.00  0.00    +0.000 N 
ATOM     14  C   HIS A   4      -5.352   2.266 134.998  0.00  0.00    +0.000 C 
ATOM     15  O   HIS A   4      -4.589   1.778 135.845  0.00  0.00    +0.000 OA
ATOM     16  CA  HIS A   4      -5.249   3.985 134.879  0.00  0.00    +0.000 C 
ATOM     17  N   HIS A   4      -3.835   4.562 135.333  0.00  0.00    +0.000 N 
ATOM     18  C   LYS A   3      -3.134   5.672 134.776  0.00  0.00    +0.000 C 
ATOM     19  O   LYS A   3      -3.576   6.774 135.152  0.00  0.00    +0.000 OA
ATOM     20  CA  LYS A   3      -2.088   5.601 133.244  0.00  0.00    +0.000 C 
ATOM     21  CB  LYS A   3      -2.024   4.387 132.290  0.00  0.00    +0.000 C 
ATOM     22  CG  LYS A   3      -2.254   3.371 133.268  0.00  0.00    +0.000 C 
ATOM     23  CD  LYS A   3      -3.595   3.654 132.686  0.00  0.00    +0.000 C 
ATOM     24  CE  LYS A   3      -4.131   5.544 132.521  0.00  0.00    +0.000 C 
ATOM     25  N   LYS A   3      -2.930   6.291 132.324  0.00  0.00    +0.000 N 
ATOM     26  C   LYS A   2      -2.507   6.388 130.996  0.00  0.00    +0.000 C 
ATOM     27  O   LYS A   2      -1.306   6.484 130.783  0.00  0.00    +0.000 OA
ATOM     28  CA  LYS A   2      -3.858   6.007 129.868  0.00  0.00    +0.000 C 
ATOM     29  CB  LYS A   2      -4.649   7.180 129.364  0.00  0.00    +0.000 C 
ATOM     30  CG  LYS A   2      -4.168   8.229 130.267  0.00  0.00    +0.000 C 
ATOM     31  CD  LYS A   2      -3.085   8.450 129.185  0.00  0.00    +0.000 C 
ATOM     32  CE  LYS A   2      -2.404   6.825 128.433  0.00  0.00    +0.000 C 
ATOM     33  N   LYS A   2      -3.270   5.619 128.669  0.00  0.00    +0.000 N 
ATOM     34  C   ILE A   1      -4.255   5.126 127.778  0.00  0.00    +0.000 C 
ATOM     35  O   ILE A   1      -5.112   5.771 127.207  0.00  0.00    +0.000 OA
ATOM     36  H   ILE A   1      -6.232   3.851 128.069  0.00  0.00    +0.000 HD
ATOM     37  H   TRP A   6      -6.459  -0.071 129.999  0.00  0.00    +0.000 HD
ATOM     38  H   HIS A   4      -3.229   3.812 135.629  0.00  0.00    +0.000 HD
ENDROOT
BRANCH   1  39
ATOM     39  CB  ILE A   1      -3.919   3.364 126.196  0.00  0.00    +0.000 C 
ATOM     40  CG2 ILE A   1      -5.133   2.773 125.510  0.00  0.00    +0.000 C 
BRANCH  39  42
ATOM     41  CD1 ILE A   1      -1.527   2.937 126.941  0.00  0.00    +0.000 C 
ATOM     42  CG1 ILE A   1      -2.604   2.613 125.929  0.00  0.00    +0.000 C 
ENDBRANCH  39  42
ENDBRANCH   1  39
BRANCH   5  43
ATOM     43  CB  TRP A   6      -8.587   2.273 128.884  0.00  0.00    +0.000 C 
BRANCH  43  44
ATOM     44  CG  TRP A   6      -9.325   3.151 129.845  0.00  0.00    +0.000 A 
ATOM     45  CD1 TRP A   6     -10.541   2.926 130.462  0.00  0.00    +0.000 A 
ATOM     46  NE1 TRP A   6     -10.784   3.979 131.311  0.00  0.00    +0.000 N 
ATOM     47  CE2 TRP A   6      -9.728   4.863 131.290  0.00  0.00    +0.000 A 
ATOM     48  CZ2 TRP A   6      -9.456   5.996 132.070  0.00  0.00    +0.000 A 
ATOM     49  CH2 TRP A   6      -8.241   6.661 131.858  0.00  0.00    +0.000 A 
ATOM     50  CZ3 TRP A   6      -7.342   6.235 130.884  0.00  0.00    +0.000 A 
ATOM     51  CE3 TRP A   6      -7.615   5.092 130.146  0.00  0.00    +0.000 A 
ATOM     52  CD2 TRP A   6      -8.837   4.408 130.323  0.00  0.00    +0.000 A 
ATOM     53  HE1 TRP A   6     -11.618   4.101 131.871  0.00  0.00    +0.000 HD
ENDBRANCH  43  44
ENDBRANCH   5  43
BRANCH  16  54
ATOM     54  CB  HIS A   4      -6.431   4.963 134.985  0.00  0.00    +0.000 C 
BRANCH  54  55
ATOM     55  CG  HIS A   4      -6.778   5.650 136.283  0.00  0.00    +0.000 A 
ATOM     56  CD2 HIS A   4      -7.842   6.466 136.641  0.00  0.00    +0.000 A 
ATOM     57  NE2 HIS A   4      -7.733   6.645 138.002  0.00  0.00    +0.000 N 
ATOM     58  CE1 HIS A   4      -6.647   5.942 138.412  0.00  0.00    +0.000 A 
ATOM     59  ND1 HIS A   4      -5.936   5.561 137.367  0.00  0.00    +0.000 NA
ATOM     60  HE2 HIS A   4      -8.305   7.213 138.610  0.00  0.00    +0.000 HD
ENDBRANCH  54  55
ENDBRANCH  16  54
TORSDOF 6
ENDMDL
MODEL 3
REMARK VINA RESULT:     -11.3      2.496      8.783
REMARK  Name = CHEMBL1790937
REMARK  8 active torsions:
REMARK  status: ('A' for Active; 'I' for Inactive)
REMARK    1  A    between atoms: CD1_1  and  CG1_2
REMARK    2  A    between atoms: CG1_2  and  CB_3
REMARK    3  A    between atoms: CB_3  and  CG2_4
REMARK    4  A    between atoms: CB_3  and  CA_5
REMARK    5  A    between atoms: CA_9  and  CB_10
REMARK    6  A    between atoms: CB_10  and  CG_11
REMARK    7  A    between atoms: CA_30  and  CB_31
REMARK    8  A    between atoms: CB_31  and  CG_32
REMARK                            x       y       z     vdW  Elec       q    Type
REMARK                         _______ _______ _______ _____ _____    ______ ____
ROOT
ATOM      1  CA  ILE A   1      -8.058   3.965 129.206  0.00  0.00    +0.000 C 
ATOM      2  N   ILE A   1      -7.279   2.920 129.869  0.00  0.00    +0.000 N 
ATOM      3  C   TRP A   6      -7.710   1.959 130.762  0.00  0.00    +0.000 C 
ATOM      4  O   TRP A   6      -8.856   1.876 131.184  0.00  0.00    +0.000 OA
ATOM      5  CA  TRP A   6      -6.666   0.834 131.077  0.00  0.00    +0.000 C 
ATOM      6  N   TRP A   6      -7.432  -0.432 131.587  0.00  0.00    +0.000 N 
ATOM      7  C   PRO A   5      -7.281  -1.722 130.990  0.00  0.00    +0.000 C 
ATOM      8  O   PRO A   5      -6.148  -2.207 131.269  0.00  0.00    +0.000 OA
ATOM      9  CA  PRO A   5      -8.192  -1.989 129.217  0.00  0.00    +0.000 C 
ATOM     10  CB  PRO A   5      -7.092  -1.080 128.000  0.00  0.00    +0.000 C 
ATOM     11  CG  PRO A   5      -7.328  -0.748 129.225  0.00  0.00    +0.000 C 
ATOM     12  CD  PRO A   5      -6.854  -2.651 129.016  0.00  0.00    +0.000 C 
ATOM     13  N   PRO A   5      -8.010  -3.117 128.428  0.00  0.00    +0.000 N 
ATOM     14  C   HIS A   4      -8.119  -3.222 126.961  0.00  0.00    +0.000 C 
ATOM     15  O   HIS A   4      -9.049  -3.906 126.508  0.00  0.00    +0.000 OA
ATOM     16  CA  HIS A   4      -7.212  -2.393 125.749  0.00  0.00    +0.000 C 
ATOM     17  N   HIS A   4      -8.050  -2.104 124.426  0.00  0.00    +0.000 N 
ATOM     18  C   LYS A   3      -7.968  -0.956 123.583  0.00  0.00    +0.000 C 
ATOM     19  O   LYS A   3      -6.984  -0.973 122.820  0.00  0.00    +0.000 OA
ATOM     20  CA  LYS A   3      -8.818   0.661 123.914  0.00  0.00    +0.000 C 
ATOM     21  CB  LYS A   3      -9.540   1.010 125.235  0.00  0.00    +0.000 C 
ATOM     22  CG  LYS A   3      -9.966  -0.313 125.568  0.00  0.00    +0.000 C 
ATOM     23  CD  LYS A   3      -8.689  -0.122 126.310  0.00  0.00    +0.000 C 
ATOM     24  CE  LYS A   3      -7.159   0.614 125.309  0.00  0.00    +0.000 C 
ATOM     25  N   LYS A   3      -7.706   1.464 124.299  0.00  0.00    +0.000 N 
ATOM     26  C   LYS A   2      -7.956   2.777 124.706  0.00  0.00    +0.000 C 
ATOM     27  O   LYS A   2      -8.876   3.378 124.169  0.00  0.00    +0.000 OA
ATOM     28  CA  LYS A   2      -7.037   3.165 126.205  0.00  0.00    +0.000 C 
ATOM     29  CB  LYS A   2      -5.701   3.822 126.009  0.00  0.00    +0.000 C 
ATOM     30  CG  LYS A   2      -5.518   3.623 124.569  0.00  0.00    +0.000 C 
ATOM     31  CD  LYS A   2      -6.244   4.983 124.445  0.00  0.00    +0.000 C 
ATOM     32  CE  LYS A   2      -7.712   5.187 125.657  0.00  0.00    +0.000 C 
ATOM     33  N   LYS A   2      -7.705   4.224 126.812  0.00  0.00    +0.000 N 
ATOM     34  C   ILE A   1      -7.156   4.478 128.093  0.00  0.00    +0.000 C 
ATOM     35  O   ILE A   1      -6.067   4.959 128.339  0.00  0.00    +0.000 OA
ATOM     36  H   ILE A   1      -6.282   3.089 129.803  0.00  0.00    +0.000 HD
ATOM     37  H   TRP A   6      -8.409  -0.223 131.715  0.00  0.00    +0.000 HD
ATOM     38  H   HIS A   4      -8.985  -2.470 124.516  0.00  0.00    +0.000 HD
ENDROOT
BRANCH   1  39
ATOM     39  CB  ILE A   1      -8.397   5.231 129.994  0.00  0.00    +0.000 C 
ATOM     40  CG2 ILE A   1      -7.541   5.315 131.240  0.00  0.00    +0.000 C 
BRANCH  39  42
ATOM     41  CD1 ILE A   1     -10.184   6.436 131.340  0.00  0.00    +0.000 C 
ATOM     42  CG1 ILE A   1      -9.901   5.444 130.234  0.00  0.00    +0.000 C 
ENDBRANCH  39  42
ENDBRANCH   1  39
BRANCH   5  43
ATOM     43  CB  TRP A   6      -5.288   1.009 131.643  0.00  0.00    +0.000 C 
BRANCH  43  44
ATOM     44  CG  TRP A   6      -4.713   2.379 131.465  0.00  0.00    +0.000 A 
ATOM     45  CD1 TRP A   6      -4.580   3.388 132.400  0.00  0.00    +0.000 A 
ATOM     46  NE1 TRP A   6      -3.933   4.440 131.797  0.00  0.00    +0.000 N 
ATOM     47  CE2 TRP A   6      -3.603   4.116 130.499  0.00  0.00    +0.000 A 
ATOM     48  CZ2 TRP A   6      -2.833   4.796 129.544  0.00  0.00    +0.000 A 
ATOM     49  CH2 TRP A   6      -2.611   4.166 128.313  0.00  0.00    +0.000 A 
ATOM     50  CZ3 TRP A   6      -3.161   2.919 128.027  0.00  0.00    +0.000 A 
ATOM     51  CE3 TRP A   6      -3.892   2.249 128.997  0.00  0.00    +0.000 A 
ATOM     52  CD2 TRP A   6      -4.148   2.862 130.243  0.00  0.00    +0.000 A 
ATOM     53  HE1 TRP A   6      -3.728   5.331 132.231  0.00  0.00    +0.000 HD
ENDBRANCH  43  44
ENDBRANCH   5  43
BRANCH  16  54
ATOM     54  CB  HIS A   4      -5.686  -2.462 125.569  0.00  0.00    +0.000 C 
BRANCH  54  55
ATOM     55  CG  HIS A   4      -5.052  -3.319 124.502  0.00  0.00    +0.000 A 
ATOM     56  CD2 HIS A   4      -4.044  -3.058 123.584  0.00  0.00    +0.000 A 
ATOM     57  NE2 HIS A   4      -3.755  -4.268 122.993  0.00  0.00    +0.000 N 
ATOM     58  CE1 HIS A   4      -4.566  -5.196 123.563  0.00  0.00    +0.000 A 
ATOM     59  ND1 HIS A   4      -5.506  -4.598 124.272  0.00  0.00    +0.000 NA
ATOM     60  HE2 HIS A   4      -3.103  -4.464 122.247  0.00  0.00    +0.000 HD
ENDBRANCH  54  55
ENDBRANCH  16  54
TORSDOF 6
ENDMDL
MODEL 4
REMARK VINA RESULT:     -11.2      2.708      7.299
REMARK  Name = CHEMBL1790937
REMARK  8 active torsions:
REMARK  status: ('A' for Active; 'I' for Inactive)
REMARK    1  A    between atoms: CD1_1  and  CG1_2
REMARK    2  A    between atoms: CG1_2  and  CB_3
REMARK    3  A    between atoms: CB_3  and  CG2_4
REMARK    4  A    between atoms: CB_3  and  CA_5
REMARK    5  A    between atoms: CA_9  and  CB_10
REMARK    6  A    between atoms: CB_10  and  CG_11
REMARK    7  A    between atoms: CA_30  and  CB_31
REMARK    8  A    between atoms: CB_31  and  CG_32
REMARK                            x       y       z     vdW  Elec       q    Type
REMARK                         _______ _______ _______ _____ _____    ______ ____
ROOT
ATOM      1  CA  ILE A   1      -4.759   4.033 128.827  0.00  0.00    +0.000 C 
ATOM      2  N   ILE A   1      -5.496   2.873 128.328  0.00  0.00    +0.000 N 
ATOM      3  C   TRP A   6      -5.020   1.791 127.614  0.00  0.00    +0.000 C 
ATOM      4  O   TRP A   6      -3.862   1.672 127.236  0.00  0.00    +0.000 OA
ATOM      5  CA  TRP A   6      -6.029   0.601 127.465  0.00  0.00    +0.000 C 
ATOM      6  N   TRP A   6      -5.221  -0.709 127.187  0.00  0.00    +0.000 N 
ATOM      7  C   PRO A   5      -5.358  -1.888 127.983  0.00  0.00    +0.000 C 
ATOM      8  O   PRO A   5      -6.472  -2.443 127.764  0.00  0.00    +0.000 OA
ATOM      9  CA  PRO A   5      -4.487  -1.837 129.795  0.00  0.00    +0.000 C 
ATOM     10  CB  PRO A   5      -5.638  -0.771 130.823  0.00  0.00    +0.000 C 
ATOM     11  CG  PRO A   5      -5.379  -0.638 129.565  0.00  0.00    +0.000 C 
ATOM     12  CD  PRO A   5      -5.814  -2.493 130.074  0.00  0.00    +0.000 C 
ATOM     13  N   PRO A   5      -4.663  -2.825 130.755  0.00  0.00    +0.000 N 
ATOM     14  C   HIS A   4      -4.588  -2.686 132.221  0.00  0.00    +0.000 C 
ATOM     15  O   HIS A   4      -3.655  -3.261 132.800  0.00  0.00    +0.000 OA
ATOM     16  CA  HIS A   4      -5.546  -1.695 133.261  0.00  0.00    +0.000 C 
ATOM     17  N   HIS A   4      -4.749  -1.171 134.537  0.00  0.00    +0.000 N 
ATOM     18  C   LYS A   3      -4.879   0.096 135.177  0.00  0.00    +0.000 C 
ATOM     19  O   LYS A   3      -5.881   0.178 135.912  0.00  0.00    +0.000 OA
ATOM     20  CA  LYS A   3      -4.058   1.660 134.605  0.00  0.00    +0.000 C 
ATOM     21  CB  LYS A   3      -3.310   1.808 133.260  0.00  0.00    +0.000 C 
ATOM     22  CG  LYS A   3      -2.846   0.461 133.158  0.00  0.00    +0.000 C 
ATOM     23  CD  LYS A   3      -4.108   0.493 132.367  0.00  0.00    +0.000 C 
ATOM     24  CE  LYS A   3      -5.680   1.341 133.201  0.00  0.00    +0.000 C 
ATOM     25  N   LYS A   3      -5.179   2.359 134.069  0.00  0.00    +0.000 N 
ATOM     26  C   LYS A   2      -4.948   3.594 133.457  0.00  0.00    +0.000 C 
ATOM     27  O   LYS A   2      -4.056   4.299 133.909  0.00  0.00    +0.000 OA
ATOM     28  CA  LYS A   2      -5.838   3.707 131.896  0.00  0.00    +0.000 C 
ATOM     29  CB  LYS A   2      -7.193   4.351 131.952  0.00  0.00    +0.000 C 
ATOM     30  CG  LYS A   2      -7.408   4.385 133.401  0.00  0.00    +0.000 C 
ATOM     31  CD  LYS A   2      -6.717   5.766 133.317  0.00  0.00    +0.000 C 
ATOM     32  CE  LYS A   2      -5.223   5.808 132.119  0.00  0.00    +0.000 C 
ATOM     33  N   LYS A   2      -5.179   4.670 131.138  0.00  0.00    +0.000 N 
ATOM     34  C   ILE A   1      -5.700   4.697 129.821  0.00  0.00    +0.000 C 
ATOM     35  O   ILE A   1      -6.793   5.101 129.476  0.00  0.00    +0.000 OA
ATOM     36  H   ILE A   1      -6.498   3.024 128.343  0.00  0.00    +0.000 HD
ATOM     37  H   TRP A   6      -4.246  -0.498 127.047  0.00  0.00    +0.000 HD
ATOM     38  H   HIS A   4      -3.803  -1.521 134.528  0.00  0.00    +0.000 HD
ENDROOT
BRANCH   1  39
ATOM     39  CB  ILE A   1      -4.429   5.162 127.850  0.00  0.00    +0.000 C 
ATOM     40  CG2 ILE A   1      -5.130   4.929 126.528  0.00  0.00    +0.000 C 
BRANCH  39  42
ATOM     41  CD1 ILE A   1      -2.401   6.265 128.912  0.00  0.00    +0.000 C 
ATOM     42  CG1 ILE A   1      -2.929   5.481 127.732  0.00  0.00    +0.000 C 
ENDBRANCH  39  42
ENDBRANCH   1  39
BRANCH   5  43
ATOM     43  CB  TRP A   6      -7.396   0.645 126.849  0.00  0.00    +0.000 C 
BRANCH  43  44
ATOM     44  CG  TRP A   6      -7.445   0.224 125.414  0.00  0.00    +0.000 A 
ATOM     45  CD1 TRP A   6      -6.794   0.781 124.328  0.00  0.00    +0.000 A 
ATOM     46  NE1 TRP A   6      -7.087   0.016 123.224  0.00  0.00    +0.000 N 
ATOM     47  CE2 TRP A   6      -7.882  -1.052 123.580  0.00  0.00    +0.000 A 
ATOM     48  CZ2 TRP A   6      -8.321  -2.161 122.844  0.00  0.00    +0.000 A 
ATOM     49  CH2 TRP A   6      -9.071  -3.137 123.515  0.00  0.00    +0.000 A 
ATOM     50  CZ3 TRP A   6      -9.400  -2.999 124.860  0.00  0.00    +0.000 A 
ATOM     51  CE3 TRP A   6      -8.927  -1.910 125.579  0.00  0.00    +0.000 A 
ATOM     52  CD2 TRP A   6      -8.182  -0.901 124.930  0.00  0.00    +0.000 A 
ATOM     53  HE1 TRP A   6      -6.777   0.205 122.280  0.00  0.00    +0.000 HD
ENDBRANCH  43  44
ENDBRANCH   5  43
BRANCH  16  54
ATOM     54  CB  HIS A   4      -7.073  -1.775 133.417  0.00  0.00    +0.000 C 
BRANCH  54  55
ATOM     55  CG  HIS A   4      -7.721  -2.708 134.410  0.00  0.00    +0.000 A 
ATOM     56  CD2 HIS A   4      -8.571  -3.792 134.241  0.00  0.00    +0.000 A 
ATOM     57  NE2 HIS A   4      -8.688  -4.372 135.485  0.00  0.00    +0.000 N 
ATOM     58  CE1 HIS A   4      -7.919  -3.648 136.338  0.00  0.00    +0.000 A 
ATOM     59  ND1 HIS A   4      -7.548  -2.519 135.762  0.00  0.00    +0.000 NA
ATOM     60  HE2 HIS A   4      -9.257  -5.159 135.761  0.00  0.00    +0.000 HD
ENDBRANCH  54  55
ENDBRANCH  16  54
TORSDOF 6
ENDMDL
MODEL 5
REMARK VINA RESULT:     -10.7      2.366      6.599
REMARK  Name = CHEMBL1790937
REMARK  8 active torsions:
REMARK  status: ('A' for Active; 'I' for Inactive)
REMARK    1  A    between atoms: CD1_1  and  CG1_2
REMARK    2  A    between atoms: CG1_2  and  CB_3
REMARK    3  A    between atoms: CB_3  and  CG2_4
REMARK    4  A    between atoms: CB_3  and  CA_5
REMARK    5  A    between atoms: CA_9  and  CB_10
REMARK    6  A    between atoms: CB_10  and  CG_11
REMARK    7  A    between atoms: CA_30  and  CB_31
REMARK    8  A    between atoms: CB_31  and  CG_32
REMARK                            x       y       z     vdW  Elec       q    Type
REMARK                         _______ _______ _______ _____ _____    ______ ____
ROOT
ATOM      1  CA  ILE A   1      -6.490  -0.431 126.508  0.00  0.00    +0.000 C 
ATOM      2  N   ILE A   1      -6.947  -0.393 127.896  0.00  0.00    +0.000 N 
ATOM      3  C   TRP A   6      -6.392  -1.006 129.003  0.00  0.00    +0.000 C 
ATOM      4  O   TRP A   6      -5.418  -1.747 128.964  0.00  0.00    +0.000 OA
ATOM      5  CA  TRP A   6      -6.984  -0.546 130.379  0.00  0.00    +0.000 C 
ATOM      6  N   TRP A   6      -5.931  -0.838 131.499  0.00  0.00    +0.000 N 
ATOM      7  C   PRO A   5      -5.458   0.167 132.400  0.00  0.00    +0.000 C 
ATOM      8  O   PRO A   5      -6.360   0.478 133.228  0.00  0.00    +0.000 OA
ATOM      9  CA  PRO A   5      -4.153   1.494 131.637  0.00  0.00    +0.000 C 
ATOM     10  CB  PRO A   5      -5.221   2.640 130.606  0.00  0.00    +0.000 C 
ATOM     11  CG  PRO A   5      -5.397   1.374 130.785  0.00  0.00    +0.000 C 
ATOM     12  CD  PRO A   5      -5.070   2.355 132.465  0.00  0.00    +0.000 C 
ATOM     13  N   PRO A   5      -3.726   2.625 132.322  0.00  0.00    +0.000 N 
ATOM     14  C   HIS A   4      -3.271   3.907 131.754  0.00  0.00    +0.000 C 
ATOM     15  O   HIS A   4      -2.079   4.209 131.915  0.00  0.00    +0.000 OA
ATOM     16  CA  HIS A   4      -4.137   5.009 130.747  0.00  0.00    +0.000 C 
ATOM     17  N   HIS A   4      -3.203   5.783 129.714  0.00  0.00    +0.000 N 
ATOM     18  C   LYS A   3      -3.522   6.168 128.379  0.00  0.00    +0.000 C 
ATOM     19  O   LYS A   3      -4.239   7.184 128.316  0.00  0.00    +0.000 OA
ATOM     20  CA  LYS A   3      -3.428   5.045 126.904  0.00  0.00    +0.000 C 
ATOM     21  CB  LYS A   3      -3.193   3.519 126.985  0.00  0.00    +0.000 C 
ATOM     22  CG  LYS A   3      -2.388   3.520 128.165  0.00  0.00    +0.000 C 
ATOM     23  CD  LYS A   3      -3.772   3.249 128.644  0.00  0.00    +0.000 C 
ATOM     24  CE  LYS A   3      -5.210   4.414 127.966  0.00  0.00    +0.000 C 
ATOM     25  N   LYS A   3      -4.815   4.826 126.657  0.00  0.00    +0.000 N 
ATOM     26  C   LYS A   2      -5.166   3.946 125.631  0.00  0.00    +0.000 C 
ATOM     27  O   LYS A   2      -4.443   3.898 124.644  0.00  0.00    +0.000 OA
ATOM     28  CA  LYS A   2      -6.465   2.822 126.172  0.00  0.00    +0.000 C 
ATOM     29  CB  LYS A   2      -7.873   3.239 125.859  0.00  0.00    +0.000 C 
ATOM     30  CG  LYS A   2      -7.653   4.631 125.459  0.00  0.00    +0.000 C 
ATOM     31  CD  LYS A   2      -7.477   4.036 124.043  0.00  0.00    +0.000 C 
ATOM     32  CE  LYS A   2      -6.490   2.395 124.013  0.00  0.00    +0.000 C 
ATOM     33  N   LYS A   2      -6.387   1.706 125.345  0.00  0.00    +0.000 N 
ATOM     34  C   ILE A   1      -7.254   0.688 125.815  0.00  0.00    +0.000 C 
ATOM     35  O   ILE A   1      -8.469   0.691 125.781  0.00  0.00    +0.000 OA
ATOM     36  H   ILE A   1      -7.895  -0.046 127.976  0.00  0.00    +0.000 HD
ATOM     37  H   TRP A   6      -5.154  -1.359 131.125  0.00  0.00    +0.000 HD
ATOM     38  H   HIS A   4      -2.242   5.501 129.832  0.00  0.00    +0.000 HD
ENDROOT
BRANCH   1  39
ATOM     39  CB  ILE A   1      -6.826  -1.660 125.663  0.00  0.00    +0.000 C 
ATOM     40  CG2 ILE A   1      -7.824  -2.536 126.391  0.00  0.00    +0.000 C 
BRANCH  39  42
ATOM     41  CD1 ILE A   1      -5.600  -2.511 123.606  0.00  0.00    +0.000 C 
ATOM     42  CG1 ILE A   1      -5.598  -2.406 125.115  0.00  0.00    +0.000 C 
ENDBRANCH  39  42
ENDBRANCH   1  39
BRANCH   5  43
ATOM     43  CB  TRP A   6      -8.415  -0.622 130.821  0.00  0.00    +0.000 C 
BRANCH  43  44
ATOM     44  CG  TRP A   6      -8.976   0.666 131.336  0.00  0.00    +0.000 A 
ATOM     45  CD1 TRP A   6      -9.490   0.944 132.589  0.00  0.00    +0.000 A 
ATOM     46  NE1 TRP A   6      -9.822   2.277 132.622  0.00  0.00    +0.000 N 
ATOM     47  CE2 TRP A   6      -9.494   2.881 131.428  0.00  0.00    +0.000 A 
ATOM     48  CZ2 TRP A   6      -9.515   4.227 131.037  0.00  0.00    +0.000 A 
ATOM     49  CH2 TRP A   6      -9.044   4.544 129.756  0.00  0.00    +0.000 A 
ATOM     50  CZ3 TRP A   6      -8.596   3.557 128.883  0.00  0.00    +0.000 A 
ATOM     51  CE3 TRP A   6      -8.552   2.234 129.302  0.00  0.00    +0.000 A 
ATOM     52  CD2 TRP A   6      -9.035   1.878 130.580  0.00  0.00    +0.000 A 
ATOM     53  HE1 TRP A   6     -10.253   2.756 133.402  0.00  0.00    +0.000 HD
ENDBRANCH  43  44
ENDBRANCH   5  43
BRANCH  16  54
ATOM     54  CB  HIS A   4      -5.449   5.720 131.117  0.00  0.00    +0.000 C 
BRANCH  54  55
ATOM     55  CG  HIS A   4      -5.911   5.838 132.549  0.00  0.00    +0.000 A 
ATOM     56  CD2 HIS A   4      -7.162   5.693 133.132  0.00  0.00    +0.000 A 
ATOM     57  NE2 HIS A   4      -6.946   5.729 134.492  0.00  0.00    +0.000 N 
ATOM     58  CE1 HIS A   4      -5.610   5.878 134.682  0.00  0.00    +0.000 A 
ATOM     59  ND1 HIS A   4      -5.026   6.195 133.541  0.00  0.00    +0.000 NA
ATOM     60  HE2 HIS A   4      -7.626   5.695 135.238  0.00  0.00    +0.000 HD
ENDBRANCH  54  55
ENDBRANCH  16  54
TORSDOF 6
ENDMDL
MODEL 6
REMARK VINA RESULT:     -10.7      2.689      8.073
REMARK  Name = CHEMBL1790937
REMARK  8 active torsions:
REMARK  status: ('A' for Active; 'I' for Inactive)
REMARK    1  A    between atoms: CD1_1  and  CG1_2
REMARK    2  A    between atoms: CG1_2  and  CB_3
REMARK    3  A    between atoms: CB_3  and  CG2_4
REMARK    4  A    between atoms: CB_3  and  CA_5
REMARK    5  A    between atoms: CA_9  and  CB_10
REMARK    6  A    between atoms: CB_10  and  CG_11
REMARK    7  A    between atoms: CA_30  and  CB_31
REMARK    8  A    between atoms: CB_31  and  CG_32
REMARK                            x       y       z     vdW  Elec       q    Type
REMARK                         _______ _______ _______ _____ _____    ______ ____
ROOT
ATOM      1  CA  ILE A   1      -6.592  -2.161 124.810  0.00  0.00    +0.000 C 
ATOM      2  N   ILE A   1      -6.712  -2.231 126.266  0.00  0.00    +0.000 N 
ATOM      3  C   TRP A   6      -5.707  -2.286 127.212  0.00  0.00    +0.000 C 
ATOM      4  O   TRP A   6      -4.513  -2.338 126.945  0.00  0.00    +0.000 OA
ATOM      5  CA  TRP A   6      -6.181  -2.089 128.692  0.00  0.00    +0.000 C 
ATOM      6  N   TRP A   6      -4.966  -1.598 129.546  0.00  0.00    +0.000 N 
ATOM      7  C   PRO A   5      -5.004  -0.406 130.336  0.00  0.00    +0.000 C 
ATOM      8  O   PRO A   5      -5.741  -0.572 131.349  0.00  0.00    +0.000 OA
ATOM      9  CA  PRO A   5      -4.888   1.328 129.325  0.00  0.00    +0.000 C 
ATOM     10  CB  PRO A   5      -6.595   1.534 128.577  0.00  0.00    +0.000 C 
ATOM     11  CG  PRO A   5      -5.964   0.424 128.769  0.00  0.00    +0.000 C 
ATOM     12  CD  PRO A   5      -5.957   1.602 130.351  0.00  0.00    +0.000 C 
ATOM     13  N   PRO A   5      -5.077   2.571 129.917  0.00  0.00    +0.000 N 
ATOM     14  C   HIS A   4      -5.570   3.808 129.285  0.00  0.00    +0.000 C 
ATOM     15  O   HIS A   4      -4.772   4.752 129.183  0.00  0.00    +0.000 OA
ATOM     16  CA  HIS A   4      -7.087   4.095 128.513  0.00  0.00    +0.000 C 
ATOM     17  N   HIS A   4      -6.993   5.137 127.313  0.00  0.00    +0.000 N 
ATOM     18  C   LYS A   3      -7.723   5.115 126.088  0.00  0.00    +0.000 C 
ATOM     19  O   LYS A   3      -8.893   5.526 126.202  0.00  0.00    +0.000 OA
ATOM     20  CA  LYS A   3      -7.277   4.084 124.610  0.00  0.00    +0.000 C 
ATOM     21  CB  LYS A   3      -6.188   2.987 124.611  0.00  0.00    +0.000 C 
ATOM     22  CG  LYS A   3      -5.328   3.582 125.583  0.00  0.00    +0.000 C 
ATOM     23  CD  LYS A   3      -6.174   2.628 126.353  0.00  0.00    +0.000 C 
ATOM     24  CE  LYS A   3      -8.119   2.678 126.030  0.00  0.00    +0.000 C 
ATOM     25  N   LYS A   3      -8.294   3.088 124.673  0.00  0.00    +0.000 N 
ATOM     26  C   LYS A   2      -8.255   2.053 123.735  0.00  0.00    +0.000 C 
ATOM     27  O   LYS A   2      -7.842   2.312 122.612  0.00  0.00    +0.000 OA
ATOM     28  CA  LYS A   2      -8.526   0.461 124.532  0.00  0.00    +0.000 C 
ATOM     29  CB  LYS A   2      -9.943  -0.038 124.546  0.00  0.00    +0.000 C 
ATOM     30  CG  LYS A   2     -10.653   1.174 124.131  0.00  0.00    +0.000 C 
ATOM     31  CD  LYS A   2     -10.437   0.626 122.701  0.00  0.00    +0.000 C 
ATOM     32  CE  LYS A   2      -8.708  -0.150 122.425  0.00  0.00    +0.000 C 
ATOM     33  N   LYS A   2      -7.973  -0.498 123.690  0.00  0.00    +0.000 N 
ATOM     34  C   ILE A   1      -7.979  -1.766 124.322  0.00  0.00    +0.000 C 
ATOM     35  O   ILE A   1      -8.948  -2.460 124.559  0.00  0.00    +0.000 OA
ATOM     36  H   ILE A   1      -7.649  -2.479 126.559  0.00  0.00    +0.000 HD
ATOM     37  H   TRP A   6      -4.119  -1.622 129.000  0.00  0.00    +0.000 HD
ATOM     38  H   HIS A   4      -6.046   5.469 127.209  0.00  0.00    +0.000 HD
ENDROOT
BRANCH   1  39
ATOM     39  CB  ILE A   1      -6.304  -3.450 124.040  0.00  0.00    +0.000 C 
ATOM     40  CG2 ILE A   1      -6.886  -4.638 124.777  0.00  0.00    +0.000 C 
BRANCH  39  42
ATOM     41  CD1 ILE A   1      -4.389  -5.062 123.600  0.00  0.00    +0.000 C 
ATOM     42  CG1 ILE A   1      -4.837  -3.618 123.612  0.00  0.00    +0.000 C 
ENDBRANCH  39  42
ENDBRANCH   1  39
BRANCH   5  43
ATOM     43  CB  TRP A   6      -7.186  -2.916 129.439  0.00  0.00    +0.000 C 
BRANCH  43  44
ATOM     44  CG  TRP A   6      -6.604  -3.783 130.510  0.00  0.00    +0.000 A 
ATOM     45  CD1 TRP A   6      -5.638  -4.765 130.397  0.00  0.00    +0.000 A 
ATOM     46  NE1 TRP A   6      -5.373  -5.244 131.658  0.00  0.00    +0.000 N 
ATOM     47  CE2 TRP A   6      -6.119  -4.561 132.594  0.00  0.00    +0.000 A 
ATOM     48  CZ2 TRP A   6      -6.098  -4.595 133.996  0.00  0.00    +0.000 A 
ATOM     49  CH2 TRP A   6      -6.940  -3.713 134.685  0.00  0.00    +0.000 A 
ATOM     50  CZ3 TRP A   6      -7.797  -2.850 134.007  0.00  0.00    +0.000 A 
ATOM     51  CE3 TRP A   6      -7.779  -2.809 132.620  0.00  0.00    +0.000 A 
ATOM     52  CD2 TRP A   6      -6.953  -3.695 131.895  0.00  0.00    +0.000 A 
ATOM     53  HE1 TRP A   6      -4.732  -5.994 131.879  0.00  0.00    +0.000 HD
ENDBRANCH  43  44
ENDBRANCH   5  43
BRANCH  16  54
ATOM     54  CB  HIS A   4      -8.468   3.968 129.177  0.00  0.00    +0.000 C 
BRANCH  54  55
ATOM     55  CG  HIS A   4      -9.124   5.136 129.872  0.00  0.00    +0.000 A 
ATOM     56  CD2 HIS A   4     -10.113   5.197 130.844  0.00  0.00    +0.000 A 
ATOM     57  NE2 HIS A   4     -10.177   6.518 131.229  0.00  0.00    +0.000 N 
ATOM     58  CE1 HIS A   4      -9.244   7.191 130.507  0.00  0.00    +0.000 A 
ATOM     59  ND1 HIS A   4      -8.797   6.428 129.527  0.00  0.00    +0.000 NA
ATOM     60  HE2 HIS A   4     -10.808   6.952 131.887  0.00  0.00    +0.000 HD
ENDBRANCH  54  55
ENDBRANCH  16  54
TORSDOF 6
ENDMDL
MODEL 7
REMARK VINA RESULT:     -10.7      2.499      8.264
REMARK  Name = CHEMBL1790937
REMARK  8 active torsions:
REMARK  status: ('A' for Active; 'I' for Inactive)
REMARK    1  A    between atoms: CD1_1  and  CG1_2
REMARK    2  A    between atoms: CG1_2  and  CB_3
REMARK    3  A    between atoms: CB_3  and  CG2_4
REMARK    4  A    between atoms: CB_3  and  CA_5
REMARK    5  A    between atoms: CA_9  and  CB_10
REMARK    6  A    between atoms: CB_10  and  CG_11
REMARK    7  A    between atoms: CA_30  and  CB_31
REMARK    8  A    between atoms: CB_31  and  CG_32
REMARK                            x       y       z     vdW  Elec       q    Type
REMARK                         _______ _______ _______ _____ _____    ______ ____
ROOT
ATOM      1  CA  ILE A   1      -8.572   4.372 129.280  0.00  0.00    +0.000 C 
ATOM      2  N   ILE A   1      -7.923   3.600 130.338  0.00  0.00    +0.000 N 
ATOM      3  C   TRP A   6      -8.504   2.795 131.298  0.00  0.00    +0.000 C 
ATOM      4  O   TRP A   6      -9.712   2.649 131.435  0.00  0.00    +0.000 OA
ATOM      5  CA  TRP A   6      -7.501   1.908 132.113  0.00  0.00    +0.000 C 
ATOM      6  N   TRP A   6      -8.278   0.685 132.701  0.00  0.00    +0.000 N 
ATOM      7  C   PRO A   5      -7.876  -0.669 132.479  0.00  0.00    +0.000 C 
ATOM      8  O   PRO A   5      -6.826  -0.931 133.131  0.00  0.00    +0.000 OA
ATOM      9  CA  PRO A   5      -8.257  -1.415 130.650  0.00  0.00    +0.000 C 
ATOM     10  CB  PRO A   5      -6.943  -0.638 129.560  0.00  0.00    +0.000 C 
ATOM     11  CG  PRO A   5      -7.522  -0.095 130.578  0.00  0.00    +0.000 C 
ATOM     12  CD  PRO A   5      -6.868  -1.920 130.942  0.00  0.00    +0.000 C 
ATOM     13  N   PRO A   5      -7.786  -2.647 130.215  0.00  0.00    +0.000 N 
ATOM     14  C   HIS A   4      -7.491  -3.066 128.833  0.00  0.00    +0.000 C 
ATOM     15  O   HIS A   4      -8.211  -3.947 128.339  0.00  0.00    +0.000 OA
ATOM     16  CA  HIS A   4      -6.357  -2.392 127.720  0.00  0.00    +0.000 C 
ATOM     17  N   HIS A   4      -6.829  -2.496 126.202  0.00  0.00    +0.000 N 
ATOM     18  C   LYS A   3      -6.611  -1.547 125.161  0.00  0.00    +0.000 C 
ATOM     19  O   LYS A   3      -5.461  -1.589 124.686  0.00  0.00    +0.000 OA
ATOM     20  CA  LYS A   3      -7.638  -0.025 124.886  0.00  0.00    +0.000 C 
ATOM     21  CB  LYS A   3      -8.712   0.491 125.872  0.00  0.00    +0.000 C 
ATOM     22  CG  LYS A   3      -9.110  -0.780 126.391  0.00  0.00    +0.000 C 
ATOM     23  CD  LYS A   3      -8.096  -0.271 127.357  0.00  0.00    +0.000 C 
ATOM     24  CE  LYS A   3      -6.414   0.439 126.615  0.00  0.00    +0.000 C 
ATOM     25  N   LYS A   3      -6.733   0.982 125.333  0.00  0.00    +0.000 N 
ATOM     26  C   LYS A   2      -7.181   2.305 125.348  0.00  0.00    +0.000 C 
ATOM     27  O   LYS A   2      -7.966   2.654 124.476  0.00  0.00    +0.000 OA
ATOM     28  CA  LYS A   2      -6.728   3.114 126.891  0.00  0.00    +0.000 C 
ATOM     29  CB  LYS A   2      -5.442   3.888 126.879  0.00  0.00    +0.000 C 
ATOM     30  CG  LYS A   2      -4.866   3.422 125.615  0.00  0.00    +0.000 C 
ATOM     31  CD  LYS A   2      -5.632   4.618 125.003  0.00  0.00    +0.000 C 
ATOM     32  CE  LYS A   2      -7.383   4.870 125.738  0.00  0.00    +0.000 C 
ATOM     33  N   LYS A   2      -7.612   4.176 127.052  0.00  0.00    +0.000 N 
ATOM     34  C   ILE A   1      -7.447   4.760 128.332  0.00  0.00    +0.000 C 
ATOM     35  O   ILE A   1      -6.503   5.422 128.717  0.00  0.00    +0.000 OA
ATOM     36  H   ILE A   1      -6.961   3.883 130.480  0.00  0.00    +0.000 HD
ATOM     37  H   TRP A   6      -9.267   0.783 132.535  0.00  0.00    +0.000 HD
ATOM     38  H   HIS A   4      -7.724  -2.957 126.144  0.00  0.00    +0.000 HD
ENDROOT
BRANCH   1  39
ATOM     39  CB  ILE A   1      -9.204   5.717 129.642  0.00  0.00    +0.000 C 
ATOM     40  CG2 ILE A   1      -8.455   6.351 130.795  0.00  0.00    +0.000 C 
BRANCH  39  42
ATOM     41  CD1 ILE A   1     -11.196   6.349 131.088  0.00  0.00    +0.000 C 
ATOM     42  CG1 ILE A   1     -10.731   5.673 129.818  0.00  0.00    +0.000 C 
ENDBRANCH  39  42
ENDBRANCH   1  39
BRANCH   5  43
ATOM     43  CB  TRP A   6      -6.342   2.379 132.940  0.00  0.00    +0.000 C 
BRANCH  43  44
ATOM     44  CG  TRP A   6      -5.932   3.796 132.687  0.00  0.00    +0.000 A 
ATOM     45  CD1 TRP A   6      -6.284   4.935 133.387  0.00  0.00    +0.000 A 
ATOM     46  NE1 TRP A   6      -5.611   5.996 132.831  0.00  0.00    +0.000 N 
ATOM     47  CE2 TRP A   6      -4.794   5.561 131.810  0.00  0.00    +0.000 A 
ATOM     48  CZ2 TRP A   6      -3.831   6.236 131.047  0.00  0.00    +0.000 A 
ATOM     49  CH2 TRP A   6      -3.095   5.493 130.114  0.00  0.00    +0.000 A 
ATOM     50  CZ3 TRP A   6      -3.331   4.134 129.923  0.00  0.00    +0.000 A 
ATOM     51  CE3 TRP A   6      -4.265   3.478 130.712  0.00  0.00    +0.000 A 
ATOM     52  CD2 TRP A   6      -5.035   4.201 131.650  0.00  0.00    +0.000 A 
ATOM     53  HE1 TRP A   6      -5.700   6.963 133.116  0.00  0.00    +0.000 HD
ENDBRANCH  43  44
ENDBRANCH   5  43
BRANCH  16  54
ATOM     54  CB  HIS A   4      -4.838  -2.292 127.938  0.00  0.00    +0.000 C 
BRANCH  54  55
ATOM     55  CG  HIS A   4      -4.193  -2.723 129.233  0.00  0.00    +0.000 A 
ATOM     56  CD2 HIS A   4      -3.411  -2.035 130.149  0.00  0.00    +0.000 A 
ATOM     57  NE2 HIS A   4      -3.265  -2.881 131.226  0.00  0.00    +0.000 N 
ATOM     58  CE1 HIS A   4      -3.953  -4.016 130.939  0.00  0.00    +0.000 A 
ATOM     59  ND1 HIS A   4      -4.291  -4.026 129.662  0.00  0.00    +0.000 NA
ATOM     60  HE2 HIS A   4      -2.725  -2.742 132.068  0.00  0.00    +0.000 HD
ENDBRANCH  54  55
ENDBRANCH  16  54
TORSDOF 6
ENDMDL
MODEL 8
REMARK VINA RESULT:     -10.6      2.626      7.166
REMARK  Name = CHEMBL1790937
REMARK  8 active torsions:
REMARK  status: ('A' for Active; 'I' for Inactive)
REMARK    1  A    between atoms: CD1_1  and  CG1_2
REMARK    2  A    between atoms: CG1_2  and  CB_3
REMARK    3  A    between atoms: CB_3  and  CG2_4
REMARK    4  A    between atoms: CB_3  and  CA_5
REMARK    5  A    between atoms: CA_9  and  CB_10
REMARK    6  A    between atoms: CB_10  and  CG_11
REMARK    7  A    between atoms: CA_30  and  CB_31
REMARK    8  A    between atoms: CB_31  and  CG_32
REMARK                            x       y       z     vdW  Elec       q    Type
REMARK                         _______ _______ _______ _____ _____    ______ ____
ROOT
ATOM      1  CA  ILE A   1      -4.332   4.125 129.816  0.00  0.00    +0.000 C 
ATOM      2  N   ILE A   1      -5.112   3.132 129.080  0.00  0.00    +0.000 N 
ATOM      3  C   TRP A   6      -4.678   2.223 128.136  0.00  0.00    +0.000 C 
ATOM      4  O   TRP A   6      -3.527   2.153 127.725  0.00  0.00    +0.000 OA
ATOM      5  CA  TRP A   6      -5.730   1.131 127.738  0.00  0.00    +0.000 C 
ATOM      6  N   TRP A   6      -4.970  -0.109 127.161  0.00  0.00    +0.000 N 
ATOM      7  C   PRO A   5      -5.143  -1.432 127.675  0.00  0.00    +0.000 C 
ATOM      8  O   PRO A   5      -6.277  -1.886 127.352  0.00  0.00    +0.000 OA
ATOM      9  CA  PRO A   5      -4.260  -1.818 129.440  0.00  0.00    +0.000 C 
ATOM     10  CB  PRO A   5      -5.367  -0.972 130.696  0.00  0.00    +0.000 C 
ATOM     11  CG  PRO A   5      -5.111  -0.569 129.497  0.00  0.00    +0.000 C 
ATOM     12  CD  PRO A   5      -5.608  -2.476 129.583  0.00  0.00    +0.000 C 
ATOM     13  N   PRO A   5      -4.465  -2.990 130.157  0.00  0.00    +0.000 N 
ATOM     14  C   HIS A   4      -4.378  -3.186 131.615  0.00  0.00    +0.000 C 
ATOM     15  O   HIS A   4      -3.462  -3.907 132.038  0.00  0.00    +0.000 OA
ATOM     16  CA  HIS A   4      -5.294  -2.423 132.863  0.00  0.00    +0.000 C 
ATOM     17  N   HIS A   4      -4.472  -2.225 134.213  0.00  0.00    +0.000 N 
ATOM     18  C   LYS A   3      -4.553  -1.130 135.124  0.00  0.00    +0.000 C 
ATOM     19  O   LYS A   3      -5.548  -1.183 135.872  0.00  0.00    +0.000 OA
ATOM     20  CA  LYS A   3      -3.681   0.494 134.905  0.00  0.00    +0.000 C 
ATOM     21  CB  LYS A   3      -2.937   0.915 133.618  0.00  0.00    +0.000 C 
ATOM     22  CG  LYS A   3      -2.521  -0.389 133.210  0.00  0.00    +0.000 C 
ATOM     23  CD  LYS A   3      -3.785  -0.139 132.463  0.00  0.00    +0.000 C 
ATOM     24  CE  LYS A   3      -5.321   0.552 133.488  0.00  0.00    +0.000 C 
ATOM     25  N   LYS A   3      -4.780   1.332 134.555  0.00  0.00    +0.000 N 
ATOM     26  C   LYS A   2      -4.510   2.664 134.233  0.00  0.00    +0.000 C 
ATOM     27  O   LYS A   2      -3.591   3.220 134.819  0.00  0.00    +0.000 OA
ATOM     28  CA  LYS A   2      -5.403   3.155 132.748  0.00  0.00    +0.000 C 
ATOM     29  CB  LYS A   2      -6.735   3.813 132.966  0.00  0.00    +0.000 C 
ATOM     30  CG  LYS A   2      -6.941   3.528 134.389  0.00  0.00    +0.000 C 
ATOM     31  CD  LYS A   2      -6.202   4.869 134.607  0.00  0.00    +0.000 C 
ATOM     32  CE  LYS A   2      -4.714   5.131 133.429  0.00  0.00    +0.000 C 
ATOM     33  N   LYS A   2      -4.715   4.240 132.217  0.00  0.00    +0.000 N 
ATOM     34  C   ILE A   1      -5.243   4.580 130.947  0.00  0.00    +0.000 C 
ATOM     35  O   ILE A   1      -6.324   5.087 130.716  0.00  0.00    +0.000 OA
ATOM     36  H   ILE A   1      -6.108   3.308 129.142  0.00  0.00    +0.000 HD
ATOM     37  H   TRP A   6      -3.989   0.095 127.059  0.00  0.00    +0.000 HD
ATOM     38  H   HIS A   4      -3.539  -2.596 134.114  0.00  0.00    +0.000 HD
ENDROOT
BRANCH   1  39
ATOM     39  CB  ILE A   1      -3.968   5.434 129.113  0.00  0.00    +0.000 C 
ATOM     40  CG2 ILE A   1      -4.556   5.456 127.718  0.00  0.00    +0.000 C 
BRANCH  39  42
ATOM     41  CD1 ILE A   1      -2.077   6.379 130.523  0.00  0.00    +0.000 C 
ATOM     42  CG1 ILE A   1      -2.476   5.798 129.185  0.00  0.00    +0.000 C 
ENDBRANCH  39  42
ENDBRANCH   1  39
BRANCH   5  43
ATOM     43  CB  TRP A   6      -7.097   1.357 127.165  0.00  0.00    +0.000 C 
BRANCH  43  44
ATOM     44  CG  TRP A   6      -7.173   1.250 125.674  0.00  0.00    +0.000 A 
ATOM     45  CD1 TRP A   6      -7.824   0.300 124.909  0.00  0.00    +0.000 A 
ATOM     46  NE1 TRP A   6      -7.673   0.648 123.587  0.00  0.00    +0.000 N 
ATOM     47  CE2 TRP A   6      -6.974   1.831 123.483  0.00  0.00    +0.000 A 
ATOM     48  CZ2 TRP A   6      -6.693   2.642 122.374  0.00  0.00    +0.000 A 
ATOM     49  CH2 TRP A   6      -6.010   3.845 122.599  0.00  0.00    +0.000 A 
ATOM     50  CZ3 TRP A   6      -5.593   4.214 123.875  0.00  0.00    +0.000 A 
ATOM     51  CE3 TRP A   6      -5.911   3.413 124.963  0.00  0.00    +0.000 A 
ATOM     52  CD2 TRP A   6      -6.583   2.187 124.769  0.00  0.00    +0.000 A 
ATOM     53  HE1 TRP A   6      -8.015   0.117 122.798  0.00  0.00    +0.000 HD
ENDBRANCH  43  44
ENDBRANCH   5  43
BRANCH  16  54
ATOM     54  CB  HIS A   4      -6.822  -2.485 133.019  0.00  0.00    +0.000 C 
BRANCH  54  55
ATOM     55  CG  HIS A   4      -7.479  -3.360 134.058  0.00  0.00    +0.000 A 
ATOM     56  CD2 HIS A   4      -8.765  -3.371 134.579  0.00  0.00    +0.000 A 
ATOM     57  NE2 HIS A   4      -8.844  -4.506 135.355  0.00  0.00    +0.000 N 
ATOM     58  CE1 HIS A   4      -7.643  -5.133 135.271  0.00  0.00    +0.000 A 
ATOM     59  ND1 HIS A   4      -6.755  -4.331 134.712  0.00  0.00    +0.000 NA
ATOM     60  HE2 HIS A   4      -9.614  -4.826 135.925  0.00  0.00    +0.000 HD
ENDBRANCH  54  55
ENDBRANCH  16  54
TORSDOF 6
ENDMDL
MODEL 9
REMARK VINA RESULT:     -10.4      2.956      8.982
REMARK  Name = CHEMBL1790937
REMARK  8 active torsions:
REMARK  status: ('A' for Active; 'I' for Inactive)
REMARK    1  A    between atoms: CD1_1  and  CG1_2
REMARK    2  A    between atoms: CG1_2  and  CB_3
REMARK    3  A    between atoms: CB_3  and  CG2_4
REMARK    4  A    between atoms: CB_3  and  CA_5
REMARK    5  A    between atoms: CA_9  and  CB_10
REMARK    6  A    between atoms: CB_10  and  CG_11
REMARK    7  A    between atoms: CA_30  and  CB_31
REMARK    8  A    between atoms: CB_31  and  CG_32
REMARK                            x       y       z     vdW  Elec       q    Type
REMARK                         _______ _______ _______ _____ _____    ______ ____
ROOT
ATOM      1  CA  ILE A   1      -6.029   4.850 130.337  0.00  0.00    +0.000 C 
ATOM      2  N   ILE A   1      -5.648   3.884 131.366  0.00  0.00    +0.000 N 
ATOM      3  C   TRP A   6      -6.435   3.316 132.349  0.00  0.00    +0.000 C 
ATOM      4  O   TRP A   6      -7.611   3.597 132.536  0.00  0.00    +0.000 OA
ATOM      5  CA  TRP A   6      -5.772   2.124 133.120  0.00  0.00    +0.000 C 
ATOM      6  N   TRP A   6      -6.903   1.238 133.739  0.00  0.00    +0.000 N 
ATOM      7  C   PRO A   5      -7.006  -0.168 133.498  0.00  0.00    +0.000 C 
ATOM      8  O   PRO A   5      -6.088  -0.788 134.105  0.00  0.00    +0.000 OA
ATOM      9  CA  PRO A   5      -7.693  -0.706 131.687  0.00  0.00    +0.000 C 
ATOM     10  CB  PRO A   5      -6.235  -0.417 130.543  0.00  0.00    +0.000 C 
ATOM     11  CG  PRO A   5      -6.549   0.277 131.585  0.00  0.00    +0.000 C 
ATOM     12  CD  PRO A   5      -6.557  -1.667 131.919  0.00  0.00    +0.000 C 
ATOM     13  N   PRO A   5      -7.698  -2.018 131.231  0.00  0.00    +0.000 N 
ATOM     14  C   HIS A   4      -7.622  -2.492 129.837  0.00  0.00    +0.000 C 
ATOM     15  O   HIS A   4      -8.622  -3.059 129.373  0.00  0.00    +0.000 OA
ATOM     16  CA  HIS A   4      -6.368  -2.236 128.678  0.00  0.00    +0.000 C 
ATOM     17  N   HIS A   4      -6.906  -2.147 127.181  0.00  0.00    +0.000 N 
ATOM     18  C   LYS A   3      -6.412  -1.316 126.133  0.00  0.00    +0.000 C 
ATOM     19  O   LYS A   3      -5.368  -1.748 125.610  0.00  0.00    +0.000 OA
ATOM     20  CA  LYS A   3      -6.855   0.472 125.903  0.00  0.00    +0.000 C 
ATOM     21  CB  LYS A   3      -7.643   1.313 126.934  0.00  0.00    +0.000 C 
ATOM     22  CG  LYS A   3      -8.438   0.253 127.468  0.00  0.00    +0.000 C 
ATOM     23  CD  LYS A   3      -7.274   0.362 128.390  0.00  0.00    +0.000 C 
ATOM     24  CE  LYS A   3      -5.479   0.455 127.579  0.00  0.00    +0.000 C 
ATOM     25  N   LYS A   3      -5.640   1.094 126.312  0.00  0.00    +0.000 N 
ATOM     26  C   LYS A   2      -5.598   2.490 126.348  0.00  0.00    +0.000 C 
ATOM     27  O   LYS A   2      -6.246   3.104 125.511  0.00  0.00    +0.000 OA
ATOM     28  CA  LYS A   2      -4.832   3.067 127.872  0.00  0.00    +0.000 C 
ATOM     29  CB  LYS A   2      -3.358   3.346 127.807  0.00  0.00    +0.000 C 
ATOM     30  CG  LYS A   2      -3.030   2.729 126.519  0.00  0.00    +0.000 C 
ATOM     31  CD  LYS A   2      -3.356   4.125 125.941  0.00  0.00    +0.000 C 
ATOM     32  CE  LYS A   2      -4.879   4.959 126.749  0.00  0.00    +0.000 C 
ATOM     33  N   LYS A   2      -5.285   4.367 128.070  0.00  0.00    +0.000 N 
ATOM     34  C   ILE A   1      -4.877   4.838 129.343  0.00  0.00    +0.000 C 
ATOM     35  O   ILE A   1      -3.747   5.124 129.689  0.00  0.00    +0.000 OA
ATOM     36  H   ILE A   1      -4.642   3.813 131.468  0.00  0.00    +0.000 HD
ATOM     37  H   TRP A   6      -7.801   1.676 133.615  0.00  0.00    +0.000 HD
ATOM     38  H   HIS A   4      -7.907  -2.266 127.161  0.00  0.00    +0.000 HD
ENDROOT
BRANCH   1  39
ATOM     39  CB  ILE A   1      -6.138   6.325 130.727  0.00  0.00    +0.000 C 
ATOM     40  CG2 ILE A   1      -5.247   6.617 131.916  0.00  0.00    +0.000 C 
BRANCH  39  42
ATOM     41  CD1 ILE A   1      -8.603   5.878 130.301  0.00  0.00    +0.000 C 
ATOM     42  CG1 ILE A   1      -7.581   6.838 130.867  0.00  0.00    +0.000 C 
ENDBRANCH  39  42
ENDBRANCH   1  39
BRANCH   5  43
ATOM     43  CB  TRP A   6      -4.490   2.149 133.898  0.00  0.00    +0.000 C 
BRANCH  43  44
ATOM     44  CG  TRP A   6      -4.098   3.501 134.407  0.00  0.00    +0.000 A 
ATOM     45  CD1 TRP A   6      -4.546   4.162 135.535  0.00  0.00    +0.000 A 
ATOM     46  NE1 TRP A   6      -3.854   5.346 135.633  0.00  0.00    +0.000 N 
ATOM     47  CE2 TRP A   6      -2.934   5.446 134.612  0.00  0.00    +0.000 A 
ATOM     48  CZ2 TRP A   6      -1.923   6.387 134.369  0.00  0.00    +0.000 A 
ATOM     49  CH2 TRP A   6      -1.083   6.176 133.267  0.00  0.00    +0.000 A 
ATOM     50  CZ3 TRP A   6      -1.262   5.088 132.418  0.00  0.00    +0.000 A 
ATOM     51  CE3 TRP A   6      -2.247   4.150 132.695  0.00  0.00    +0.000 A 
ATOM     52  CD2 TRP A   6      -3.120   4.341 133.788  0.00  0.00    +0.000 A 
ATOM     53  HE1 TRP A   6      -3.996   6.053 136.342  0.00  0.00    +0.000 HD
ENDBRANCH  43  44
ENDBRANCH   5  43
BRANCH  16  54
ATOM     54  CB  HIS A   4      -4.903  -2.674 128.832  0.00  0.00    +0.000 C 
BRANCH  54  55
ATOM     55  CG  HIS A   4      -4.415  -3.394 130.067  0.00  0.00    +0.000 A 
ATOM     56  CD2 HIS A   4      -3.358  -3.138 130.928  0.00  0.00    +0.000 A 
ATOM     57  NE2 HIS A   4      -3.512  -4.016 131.978  0.00  0.00    +0.000 N 
ATOM     58  CE1 HIS A   4      -4.631  -4.744 131.731  0.00  0.00    +0.000 A 
ATOM     59  ND1 HIS A   4      -5.024  -4.554 130.485  0.00  0.00    +0.000 NA
ATOM     60  HE2 HIS A   4      -2.910  -4.153 132.777  0.00  0.00    +0.000 HD
ENDBRANCH  54  55
ENDBRANCH  16  54
TORSDOF 6
ENDMDL
