MODEL 1
REMARK VINA RESULT:     -12.0      0.000      0.000
REMARK  Name = CHEMBL286895
REMARK  6 active torsions:
REMARK  status: ('A' for Active; 'I' for Inactive)
REMARK    1  A    between atoms: C_2  and  C_3
REMARK    2  A    between atoms: C_3  and  N_4
REMARK    3  A    between atoms: N_17  and  C_18
REMARK    4  A    between atoms: C_18  and  C_19
REMARK    5  A    between atoms: C_23  and  C_24
REMARK    6  A    between atoms: C_29  and  N_30
REMARK                            x       y       z     vdW  Elec       q    Type
REMARK                         _______ _______ _______ _____ _____    ______ ____
ROOT
ATOM      1  C   UNL     1      -6.439   3.573 125.350  0.00  0.00    +0.000 A 
ATOM      2  C   UNL     1      -5.771   2.360 125.503  0.00  0.00    +0.000 A 
ATOM      3  C   UNL     1      -4.815   2.620 126.511  0.00  0.00    +0.000 A 
ATOM      4  C   UNL     1      -4.882   3.088 127.853  0.00  0.00    +0.000 A 
ATOM      5  C   UNL     1      -3.785   3.620 128.559  0.00  0.00    +0.000 A 
ATOM      6  C   UNL     1      -2.583   3.676 127.880  0.00  0.00    +0.000 A 
ATOM      7  C   UNL     1      -2.649   3.602 126.458  0.00  0.00    +0.000 A 
ATOM      8  C   UNL     1      -3.953   3.460 125.821  0.00  0.00    +0.000 A 
ATOM      9  O   UNL     1      -5.202   4.481 125.503  0.00  0.00    +0.000 OA
ENDROOT
BRANCH   5  10
ATOM     10  C   UNL     1      -3.944   4.272 129.903  0.00  0.00    +0.000 C 
ATOM     11  O   UNL     1      -2.942   4.550 130.560  0.00  0.00    +0.000 OA
ATOM     12  N   UNL     1      -5.236   4.700 130.257  0.00  0.00    +0.000 N 
ATOM     13  C   UNL     1      -5.485   6.110 130.543  0.00  0.00    +0.000 C 
ATOM     14  C   UNL     1      -6.268   6.289 131.824  0.00  0.00    +0.000 C 
ATOM     15  C   UNL     1      -7.901   5.701 131.556  0.00  0.00    +0.000 C 
ATOM     16  C   UNL     1      -7.296   4.071 131.457  0.00  0.00    +0.000 C 
ATOM     17  C   UNL     1      -6.426   3.847 130.241  0.00  0.00    +0.000 C 
BRANCH  15  18
ATOM     18  N   UNL     1      -9.052   6.868 130.662  0.00  0.00    +0.000 N 
ATOM     19  C   UNL     1      -9.947   6.374 131.702  0.00  0.00    +0.000 C 
ATOM     20  O   UNL     1      -9.778   6.310 132.949  0.00  0.00    +0.000 OA
ATOM     21  O   UNL     1     -11.021   5.737 131.280  0.00  0.00    +0.000 OA
ATOM     22  C   UNL     1     -11.890   6.798 131.399  0.00  0.00    +0.000 C 
ATOM     23  C   UNL     1     -11.774   7.040 129.973  0.00  0.00    +0.000 A 
ATOM     24  C   UNL     1     -13.007   6.786 129.190  0.00  0.00    +0.000 A 
ATOM     25  C   UNL     1     -13.251   7.193 127.904  0.00  0.00    +0.000 A 
ATOM     26  C   UNL     1     -12.350   8.161 127.553  0.00  0.00    +0.000 A 
ATOM     27  C   UNL     1     -10.984   8.352 128.411  0.00  0.00    +0.000 A 
ATOM     28  C   UNL     1     -10.471   7.406 129.570  0.00  0.00    +0.000 A 
ENDBRANCH  15  18
ENDBRANCH   5  10
BRANCH   1  29
ATOM     29  C   UNL     1      -7.748   3.702 124.441  0.00  0.00    +0.000 C 
BRANCH  29  32
ATOM     30  O   UNL     1      -9.359   0.847 122.787  0.00  0.00    +0.000 OA
ATOM     31  C   UNL     1      -9.112   1.619 123.722  0.00  0.00    +0.000 C 
ATOM     32  N   UNL     1      -8.254   2.713 123.471  0.00  0.00    +0.000 N 
ATOM     33  H   UNL     1      -7.913   2.734 122.518  0.00  0.00    +0.000 HD
BRANCH  31  34
ATOM     34  C   UNL     1      -9.788   1.400 125.131  0.00  0.00    +0.000 C 
BRANCH  34  35
ATOM     35  N   UNL     1      -9.056   0.496 126.091  0.00  0.00    +0.000 N 
ATOM     36  C   UNL     1      -8.636  -0.751 125.673  0.00  0.00    +0.000 A 
ATOM     37  C   UNL     1      -7.642  -1.383 126.306  0.00  0.00    +0.000 A 
ATOM     38  C   UNL     1      -7.367  -0.955 127.705  0.00  0.00    +0.000 A 
ATOM     39  N   UNL     1      -6.679  -1.846 128.532  0.00  0.00    +0.000 N 
ATOM     40  C   UNL     1      -7.231  -2.365 129.794  0.00  0.00    +0.000 C 
ATOM     41  C   UNL     1      -6.343  -1.971 130.984  0.00  0.00    +0.000 C 
ATOM     42  O   UNL     1      -4.985  -2.406 130.785  0.00  0.00    +0.000 OA
ATOM     43  C   UNL     1      -4.456  -1.800 129.592  0.00  0.00    +0.000 C 
ATOM     44  C   UNL     1      -5.267  -2.219 128.350  0.00  0.00    +0.000 C 
ATOM     45  N   UNL     1      -7.848   0.171 128.150  0.00  0.00    +0.000 NA
ATOM     46  C   UNL     1      -8.553   1.015 127.298  0.00  0.00    +0.000 A 
ATOM     47  O   UNL     1      -8.779   2.185 127.606  0.00  0.00    +0.000 OA
ENDBRANCH  34  35
ENDBRANCH  31  34
ENDBRANCH  29  32
ENDBRANCH   1  29
TORSDOF 6
ENDMDL
MODEL 2
REMARK VINA RESULT:     -11.9      2.769      9.107
REMARK  Name = CHEMBL286895
REMARK  6 active torsions:
REMARK  status: ('A' for Active; 'I' for Inactive)
REMARK    1  A    between atoms: C_2  and  C_3
REMARK    2  A    between atoms: C_3  and  N_4
REMARK    3  A    between atoms: N_17  and  C_18
REMARK    4  A    between atoms: C_18  and  C_19
REMARK    5  A    between atoms: C_23  and  C_24
REMARK    6  A    between atoms: C_29  and  N_30
REMARK                            x       y       z     vdW  Elec       q    Type
REMARK                         _______ _______ _______ _____ _____    ______ ____
ROOT
ATOM      1  C   UNL     1      -4.435   4.775 130.795  0.00  0.00    +0.000 A 
ATOM      2  C   UNL     1      -3.399   5.536 130.257  0.00  0.00    +0.000 A 
ATOM      3  C   UNL     1      -3.494   5.307 128.865  0.00  0.00    +0.000 A 
ATOM      4  C   UNL     1      -4.519   5.479 127.894  0.00  0.00    +0.000 A 
ATOM      5  C   UNL     1      -4.525   4.850 126.633  0.00  0.00    +0.000 A 
ATOM      6  C   UNL     1      -3.454   4.023 126.351  0.00  0.00    +0.000 A 
ATOM      7  C   UNL     1      -2.698   3.556 127.465  0.00  0.00    +0.000 A 
ATOM      8  C   UNL     1      -3.083   3.984 128.806  0.00  0.00    +0.000 A 
ATOM      9  O   UNL     1      -4.278   3.564 129.854  0.00  0.00    +0.000 OA
ENDROOT
BRANCH   5  10
ATOM     10  C   UNL     1      -5.715   4.912 125.718  0.00  0.00    +0.000 C 
ATOM     11  O   UNL     1      -6.032   5.988 125.215  0.00  0.00    +0.000 OA
ATOM     12  N   UNL     1      -6.293   3.688 125.338  0.00  0.00    +0.000 N 
ATOM     13  C   UNL     1      -6.355   3.317 123.927  0.00  0.00    +0.000 C 
ATOM     14  C   UNL     1      -7.733   2.828 123.540  0.00  0.00    +0.000 C 
ATOM     15  C   UNL     1      -8.001   1.275 124.314  0.00  0.00    +0.000 C 
ATOM     16  C   UNL     1      -8.069   2.062 125.867  0.00  0.00    +0.000 C 
ATOM     17  C   UNL     1      -6.740   2.655 126.275  0.00  0.00    +0.000 C 
BRANCH  15  18
ATOM     18  N   UNL     1      -7.218  -0.200 123.478  0.00  0.00    +0.000 N 
ATOM     19  C   UNL     1      -8.407  -0.828 124.041  0.00  0.00    +0.000 C 
ATOM     20  O   UNL     1      -9.618  -0.485 123.959  0.00  0.00    +0.000 OA
ATOM     21  O   UNL     1      -8.189  -1.794 124.910  0.00  0.00    +0.000 OA
ATOM     22  C   UNL     1      -8.371  -2.840 124.032  0.00  0.00    +0.000 C 
ATOM     23  C   UNL     1      -6.931  -2.966 123.901  0.00  0.00    +0.000 A 
ATOM     24  C   UNL     1      -6.357  -4.213 124.459  0.00  0.00    +0.000 A 
ATOM     25  C   UNL     1      -5.099  -4.704 124.224  0.00  0.00    +0.000 A 
ATOM     26  C   UNL     1      -4.559  -4.075 123.135  0.00  0.00    +0.000 A 
ATOM     27  C   UNL     1      -5.192  -2.677 122.606  0.00  0.00    +0.000 A 
ATOM     28  C   UNL     1      -6.318  -1.831 123.326  0.00  0.00    +0.000 A 
ENDBRANCH  15  18
ENDBRANCH   5  10
BRANCH   1  29
ATOM     29  C   UNL     1      -4.836   4.878 132.340  0.00  0.00    +0.000 C 
BRANCH  29  32
ATOM     30  O   UNL     1      -7.398   2.519 133.504  0.00  0.00    +0.000 OA
ATOM     31  C   UNL     1      -6.802   3.224 132.680  0.00  0.00    +0.000 C 
ATOM     32  N   UNL     1      -5.649   3.918 133.110  0.00  0.00    +0.000 N 
ATOM     33  H   UNL     1      -5.441   3.765 134.089  0.00  0.00    +0.000 HD
BRANCH  31  34
ATOM     34  C   UNL     1      -7.301   3.288 131.184  0.00  0.00    +0.000 C 
BRANCH  34  35
ATOM     35  N   UNL     1      -8.378   4.299 130.880  0.00  0.00    +0.000 N 
ATOM     36  C   UNL     1      -8.247   5.596 131.333  0.00  0.00    +0.000 A 
ATOM     37  C   UNL     1      -8.913   6.594 130.744  0.00  0.00    +0.000 A 
ATOM     38  C   UNL     1     -10.123   6.216 129.964  0.00  0.00    +0.000 A 
ATOM     39  N   UNL     1     -11.072   7.211 129.718  0.00  0.00    +0.000 N 
ATOM     40  C   UNL     1     -12.475   7.112 130.156  0.00  0.00    +0.000 C 
ATOM     41  C   UNL     1     -13.429   7.154 128.952  0.00  0.00    +0.000 C 
ATOM     42  O   UNL     1     -13.208   8.333 128.156  0.00  0.00    +0.000 OA
ATOM     43  C   UNL     1     -11.853   8.338 127.672  0.00  0.00    +0.000 C 
ATOM     44  C   UNL     1     -10.847   8.369 128.840  0.00  0.00    +0.000 C 
ATOM     45  N   UNL     1     -10.316   4.974 129.620  0.00  0.00    +0.000 NA
ATOM     46  C   UNL     1      -9.356   4.011 129.911  0.00  0.00    +0.000 A 
ATOM     47  O   UNL     1      -9.381   2.906 129.371  0.00  0.00    +0.000 OA
ENDBRANCH  34  35
ENDBRANCH  31  34
ENDBRANCH  29  32
ENDBRANCH   1  29
TORSDOF 6
ENDMDL
MODEL 3
REMARK VINA RESULT:     -11.7      1.911      2.770
REMARK  Name = CHEMBL286895
REMARK  6 active torsions:
REMARK  status: ('A' for Active; 'I' for Inactive)
REMARK    1  A    between atoms: C_2  and  C_3
REMARK    2  A    between atoms: C_3  and  N_4
REMARK    3  A    between atoms: N_17  and  C_18
REMARK    4  A    between atoms: C_18  and  C_19
REMARK    5  A    between atoms: C_23  and  C_24
REMARK    6  A    between atoms: C_29  and  N_30
REMARK                            x       y       z     vdW  Elec       q    Type
REMARK                         _______ _______ _______ _____ _____    ______ ____
ROOT
ATOM      1  C   UNL     1      -4.662   4.237 126.422  0.00  0.00    +0.000 A 
ATOM      2  C   UNL     1      -3.411   3.680 126.680  0.00  0.00    +0.000 A 
ATOM      3  C   UNL     1      -3.053   4.211 127.941  0.00  0.00    +0.000 A 
ATOM      4  C   UNL     1      -3.649   4.203 129.232  0.00  0.00    +0.000 A 
ATOM      5  C   UNL     1      -3.308   5.098 130.265  0.00  0.00    +0.000 A 
ATOM      6  C   UNL     1      -2.329   6.030 129.976  0.00  0.00    +0.000 A 
ATOM      7  C   UNL     1      -2.072   6.277 128.596  0.00  0.00    +0.000 A 
ATOM      8  C   UNL     1      -2.831   5.536 127.594  0.00  0.00    +0.000 A 
ATOM      9  O   UNL     1      -4.358   5.637 126.994  0.00  0.00    +0.000 OA
ENDROOT
BRANCH   5  10
ATOM     10  C   UNL     1      -4.092   5.174 131.545  0.00  0.00    +0.000 C 
ATOM     11  O   UNL     1      -3.492   5.275 132.613  0.00  0.00    +0.000 OA
ATOM     12  N   UNL     1      -5.487   5.312 131.432  0.00  0.00    +0.000 N 
ATOM     13  C   UNL     1      -6.153   6.479 132.005  0.00  0.00    +0.000 C 
ATOM     14  C   UNL     1      -7.363   6.084 132.821  0.00  0.00    +0.000 C 
ATOM     15  C   UNL     1      -8.597   5.492 131.722  0.00  0.00    +0.000 C 
ATOM     16  C   UNL     1      -7.625   4.085 131.391  0.00  0.00    +0.000 C 
ATOM     17  C   UNL     1      -6.349   4.422 130.653  0.00  0.00    +0.000 C 
BRANCH  15  18
ATOM     18  N   UNL     1      -9.594   6.797 130.833  0.00  0.00    +0.000 N 
ATOM     19  C   UNL     1     -10.591   6.317 131.782  0.00  0.00    +0.000 C 
ATOM     20  O   UNL     1     -10.512   6.168 133.031  0.00  0.00    +0.000 OA
ATOM     21  O   UNL     1     -11.680   5.793 131.255  0.00  0.00    +0.000 OA
ATOM     22  C   UNL     1     -12.472   6.913 131.386  0.00  0.00    +0.000 C 
ATOM     23  C   UNL     1     -12.242   7.226 129.987  0.00  0.00    +0.000 A 
ATOM     24  C   UNL     1     -13.435   7.118 129.115  0.00  0.00    +0.000 A 
ATOM     25  C   UNL     1     -13.561   7.616 127.845  0.00  0.00    +0.000 A 
ATOM     26  C   UNL     1     -12.567   8.527 127.612  0.00  0.00    +0.000 A 
ATOM     27  C   UNL     1     -11.251   8.559 128.563  0.00  0.00    +0.000 A 
ATOM     28  C   UNL     1     -10.891   7.509 129.691  0.00  0.00    +0.000 A 
ENDBRANCH  15  18
ENDBRANCH   5  10
BRANCH   1  29
ATOM     29  C   UNL     1      -5.550   3.766 125.179  0.00  0.00    +0.000 C 
BRANCH  29  32
ATOM     30  O   UNL     1      -5.743   4.043 121.523  0.00  0.00    +0.000 OA
ATOM     31  C   UNL     1      -6.165   3.807 122.662  0.00  0.00    +0.000 C 
ATOM     32  N   UNL     1      -5.303   4.053 123.754  0.00  0.00    +0.000 N 
ATOM     33  H   UNL     1      -4.394   4.396 123.467  0.00  0.00    +0.000 HD
BRANCH  31  34
ATOM     34  C   UNL     1      -7.644   3.298 122.870  0.00  0.00    +0.000 C 
BRANCH  34  35
ATOM     35  N   UNL     1      -7.801   1.898 123.410  0.00  0.00    +0.000 N 
ATOM     36  C   UNL     1      -6.875   0.930 123.079  0.00  0.00    +0.000 A 
ATOM     37  C   UNL     1      -6.720  -0.154 123.847  0.00  0.00    +0.000 A 
ATOM     38  C   UNL     1      -7.862  -0.512 124.731  0.00  0.00    +0.000 A 
ATOM     39  N   UNL     1      -7.934  -1.828 125.196  0.00  0.00    +0.000 N 
ATOM     40  C   UNL     1      -9.080  -2.715 124.931  0.00  0.00    +0.000 C 
ATOM     41  C   UNL     1      -9.743  -3.160 126.243  0.00  0.00    +0.000 C 
ATOM     42  O   UNL     1      -8.788  -3.782 127.122  0.00  0.00    +0.000 OA
ATOM     43  C   UNL     1      -7.737  -2.848 127.429  0.00  0.00    +0.000 C 
ATOM     44  C   UNL     1      -6.986  -2.418 126.153  0.00  0.00    +0.000 C 
ATOM     45  N   UNL     1      -8.803   0.358 124.968  0.00  0.00    +0.000 NA
ATOM     46  C   UNL     1      -8.704   1.649 124.460  0.00  0.00    +0.000 A 
ATOM     47  O   UNL     1      -9.421   2.555 124.882  0.00  0.00    +0.000 OA
ENDBRANCH  34  35
ENDBRANCH  31  34
ENDBRANCH  29  32
ENDBRANCH   1  29
TORSDOF 6
ENDMDL
MODEL 4
REMARK VINA RESULT:     -11.7      1.893      4.760
REMARK  Name = CHEMBL286895
REMARK  6 active torsions:
REMARK  status: ('A' for Active; 'I' for Inactive)
REMARK    1  A    between atoms: C_2  and  C_3
REMARK    2  A    between atoms: C_3  and  N_4
REMARK    3  A    between atoms: N_17  and  C_18
REMARK    4  A    between atoms: C_18  and  C_19
REMARK    5  A    between atoms: C_23  and  C_24
REMARK    6  A    between atoms: C_29  and  N_30
REMARK                            x       y       z     vdW  Elec       q    Type
REMARK                         _______ _______ _______ _____ _____    ______ ____
ROOT
ATOM      1  C   UNL     1      -7.356  -0.553 125.015  0.00  0.00    +0.000 A 
ATOM      2  C   UNL     1      -8.624  -0.890 125.483  0.00  0.00    +0.000 A 
ATOM      3  C   UNL     1      -8.466  -0.950 126.887  0.00  0.00    +0.000 A 
ATOM      4  C   UNL     1      -8.022  -0.034 127.880  0.00  0.00    +0.000 A 
ATOM      5  C   UNL     1      -7.599  -0.412 129.170  0.00  0.00    +0.000 A 
ATOM      6  C   UNL     1      -7.631  -1.764 129.458  0.00  0.00    +0.000 A 
ATOM      7  C   UNL     1      -7.670  -2.653 128.344  0.00  0.00    +0.000 A 
ATOM      8  C   UNL     1      -7.689  -2.093 126.997  0.00  0.00    +0.000 A 
ATOM      9  O   UNL     1      -6.559  -1.422 126.009  0.00  0.00    +0.000 OA
ENDROOT
BRANCH   5  10
ATOM     10  C   UNL     1      -6.963   0.564 130.118  0.00  0.00    +0.000 C 
ATOM     11  O   UNL     1      -5.799   0.389 130.472  0.00  0.00    +0.000 OA
ATOM     12  N   UNL     1      -7.683   1.737 130.406  0.00  0.00    +0.000 N 
ATOM     13  C   UNL     1      -7.108   3.043 130.092  0.00  0.00    +0.000 C 
ATOM     14  C   UNL     1      -7.227   3.997 131.259  0.00  0.00    +0.000 C 
ATOM     15  C   UNL     1      -8.922   4.411 131.459  0.00  0.00    +0.000 C 
ATOM     16  C   UNL     1      -9.254   2.786 131.991  0.00  0.00    +0.000 C 
ATOM     17  C   UNL     1      -9.064   1.765 130.893  0.00  0.00    +0.000 C 
BRANCH  15  18
ATOM     18  N   UNL     1      -9.588   5.711 130.296  0.00  0.00    +0.000 N 
ATOM     19  C   UNL     1     -10.404   5.980 131.473  0.00  0.00    +0.000 C 
ATOM     20  O   UNL     1     -10.058   6.165 132.671  0.00  0.00    +0.000 OA
ATOM     21  O   UNL     1     -11.705   5.840 131.315  0.00  0.00    +0.000 OA
ATOM     22  C   UNL     1     -11.986   7.177 131.135  0.00  0.00    +0.000 C 
ATOM     23  C   UNL     1     -12.036   6.962 129.700  0.00  0.00    +0.000 A 
ATOM     24  C   UNL     1     -13.374   7.129 129.087  0.00  0.00    +0.000 A 
ATOM     25  C   UNL     1     -13.645   7.260 127.749  0.00  0.00    +0.000 A 
ATOM     26  C   UNL     1     -12.491   7.563 127.078  0.00  0.00    +0.000 A 
ATOM     27  C   UNL     1     -11.050   7.300 127.777  0.00  0.00    +0.000 A 
ATOM     28  C   UNL     1     -10.801   6.555 129.151  0.00  0.00    +0.000 A 
ENDBRANCH  15  18
ENDBRANCH   5  10
BRANCH   1  29
ATOM     29  C   UNL     1      -7.098  -0.183 123.481  0.00  0.00    +0.000 C 
BRANCH  29  32
ATOM     30  O   UNL     1      -7.068   3.433 122.843  0.00  0.00    +0.000 OA
ATOM     31  C   UNL     1      -7.221   2.406 123.515  0.00  0.00    +0.000 C 
ATOM     32  N   UNL     1      -6.911   1.165 122.914  0.00  0.00    +0.000 N 
ATOM     33  H   UNL     1      -6.599   1.261 121.955  0.00  0.00    +0.000 HD
BRANCH  31  34
ATOM     34  C   UNL     1      -7.698   2.504 125.017  0.00  0.00    +0.000 C 
BRANCH  34  35
ATOM     35  N   UNL     1      -6.691   3.036 126.005  0.00  0.00    +0.000 N 
ATOM     36  C   UNL     1      -5.500   2.364 126.198  0.00  0.00    +0.000 A 
ATOM     37  C   UNL     1      -4.435   2.996 126.701  0.00  0.00    +0.000 A 
ATOM     38  C   UNL     1      -4.704   4.235 127.479  0.00  0.00    +0.000 A 
ATOM     39  N   UNL     1      -3.718   4.667 128.371  0.00  0.00    +0.000 N 
ATOM     40  C   UNL     1      -3.954   4.832 129.815  0.00  0.00    +0.000 C 
ATOM     41  C   UNL     1      -3.720   6.288 130.246  0.00  0.00    +0.000 C 
ATOM     42  O   UNL     1      -2.403   6.734 129.874  0.00  0.00    +0.000 OA
ATOM     43  C   UNL     1      -2.251   6.644 128.446  0.00  0.00    +0.000 C 
ATOM     44  C   UNL     1      -2.406   5.189 127.961  0.00  0.00    +0.000 C 
ATOM     45  N   UNL     1      -5.863   4.824 127.391  0.00  0.00    +0.000 NA
ATOM     46  C   UNL     1      -6.826   4.342 126.510  0.00  0.00    +0.000 A 
ATOM     47  O   UNL     1      -7.807   5.020 126.208  0.00  0.00    +0.000 OA
ENDBRANCH  34  35
ENDBRANCH  31  34
ENDBRANCH  29  32
ENDBRANCH   1  29
TORSDOF 6
ENDMDL
MODEL 5
REMARK VINA RESULT:     -11.6      1.779      2.372
REMARK  Name = CHEMBL286895
REMARK  6 active torsions:
REMARK  status: ('A' for Active; 'I' for Inactive)
REMARK    1  A    between atoms: C_2  and  C_3
REMARK    2  A    between atoms: C_3  and  N_4
REMARK    3  A    between atoms: N_17  and  C_18
REMARK    4  A    between atoms: C_18  and  C_19
REMARK    5  A    between atoms: C_23  and  C_24
REMARK    6  A    between atoms: C_29  and  N_30
REMARK                            x       y       z     vdW  Elec       q    Type
REMARK                         _______ _______ _______ _____ _____    ______ ____
ROOT
ATOM      1  C   UNL     1      -4.215   4.485 126.549  0.00  0.00    +0.000 A 
ATOM      2  C   UNL     1      -2.954   3.978 126.855  0.00  0.00    +0.000 A 
ATOM      3  C   UNL     1      -2.695   4.469 128.156  0.00  0.00    +0.000 A 
ATOM      4  C   UNL     1      -3.362   4.374 129.409  0.00  0.00    +0.000 A 
ATOM      5  C   UNL     1      -3.125   5.237 130.497  0.00  0.00    +0.000 A 
ATOM      6  C   UNL     1      -2.180   6.227 130.304  0.00  0.00    +0.000 A 
ATOM      7  C   UNL     1      -1.858   6.548 128.953  0.00  0.00    +0.000 A 
ATOM      8  C   UNL     1      -2.521   5.817 127.878  0.00  0.00    +0.000 A 
ATOM      9  O   UNL     1      -4.016   5.870 127.196  0.00  0.00    +0.000 OA
ENDROOT
BRANCH   5  10
ATOM     10  C   UNL     1      -3.982   5.218 131.730  0.00  0.00    +0.000 C 
ATOM     11  O   UNL     1      -3.447   5.275 132.836  0.00  0.00    +0.000 OA
ATOM     12  N   UNL     1      -5.372   5.323 131.544  0.00  0.00    +0.000 N 
ATOM     13  C   UNL     1      -6.106   6.436 132.141  0.00  0.00    +0.000 C 
ATOM     14  C   UNL     1      -7.348   5.961 132.862  0.00  0.00    +0.000 C 
ATOM     15  C   UNL     1      -8.498   5.398 131.661  0.00  0.00    +0.000 C 
ATOM     16  C   UNL     1      -7.465   4.040 131.310  0.00  0.00    +0.000 C 
ATOM     17  C   UNL     1      -6.160   4.455 130.668  0.00  0.00    +0.000 C 
BRANCH  15  18
ATOM     18  N   UNL     1      -9.483   6.723 130.789  0.00  0.00    +0.000 N 
ATOM     19  C   UNL     1     -10.472   6.266 131.757  0.00  0.00    +0.000 C 
ATOM     20  O   UNL     1     -10.373   6.117 133.005  0.00  0.00    +0.000 OA
ATOM     21  O   UNL     1     -11.582   5.765 131.251  0.00  0.00    +0.000 OA
ATOM     22  C   UNL     1     -12.347   6.901 131.395  0.00  0.00    +0.000 C 
ATOM     23  C   UNL     1     -12.137   7.207 129.992  0.00  0.00    +0.000 A 
ATOM     24  C   UNL     1     -13.348   7.124 129.143  0.00  0.00    +0.000 A 
ATOM     25  C   UNL     1     -13.487   7.623 127.874  0.00  0.00    +0.000 A 
ATOM     26  C   UNL     1     -12.479   8.512 127.621  0.00  0.00    +0.000 A 
ATOM     27  C   UNL     1     -11.145   8.517 128.547  0.00  0.00    +0.000 A 
ATOM     28  C   UNL     1     -10.786   7.461 129.670  0.00  0.00    +0.000 A 
ENDBRANCH  15  18
ENDBRANCH   5  10
BRANCH   1  29
ATOM     29  C   UNL     1      -5.008   4.027 125.237  0.00  0.00    +0.000 C 
BRANCH  29  32
ATOM     30  O   UNL     1      -8.663   4.354 125.341  0.00  0.00    +0.000 OA
ATOM     31  C   UNL     1      -7.530   4.190 125.810  0.00  0.00    +0.000 C 
ATOM     32  N   UNL     1      -6.428   4.274 124.929  0.00  0.00    +0.000 N 
ATOM     33  H   UNL     1      -6.704   4.452 123.971  0.00  0.00    +0.000 HD
BRANCH  31  34
ATOM     34  C   UNL     1      -7.339   3.950 127.358  0.00  0.00    +0.000 C 
BRANCH  34  35
ATOM     35  N   UNL     1      -7.147   2.519 127.794  0.00  0.00    +0.000 N 
ATOM     36  C   UNL     1      -5.877   1.979 127.829  0.00  0.00    +0.000 A 
ATOM     37  C   UNL     1      -5.609   0.916 128.595  0.00  0.00    +0.000 A 
ATOM     38  C   UNL     1      -6.769   0.071 128.987  0.00  0.00    +0.000 A 
ATOM     39  N   UNL     1      -6.508  -1.243 129.386  0.00  0.00    +0.000 N 
ATOM     40  C   UNL     1      -7.080  -2.420 128.710  0.00  0.00    +0.000 C 
ATOM     41  C   UNL     1      -7.942  -3.244 129.678  0.00  0.00    +0.000 C 
ATOM     42  O   UNL     1      -7.192  -3.621 130.847  0.00  0.00    +0.000 OA
ATOM     43  C   UNL     1      -6.734  -2.439 131.527  0.00  0.00    +0.000 C 
ATOM     44  C   UNL     1      -5.803  -1.605 130.625  0.00  0.00    +0.000 C 
ATOM     45  N   UNL     1      -7.983   0.527 128.860  0.00  0.00    +0.000 NA
ATOM     46  C   UNL     1      -8.197   1.833 128.431  0.00  0.00    +0.000 A 
ATOM     47  O   UNL     1      -9.296   2.372 128.559  0.00  0.00    +0.000 OA
ENDBRANCH  34  35
ENDBRANCH  31  34
ENDBRANCH  29  32
ENDBRANCH   1  29
TORSDOF 6
ENDMDL
MODEL 6
REMARK VINA RESULT:     -11.4      1.598      2.450
REMARK  Name = CHEMBL286895
REMARK  6 active torsions:
REMARK  status: ('A' for Active; 'I' for Inactive)
REMARK    1  A    between atoms: C_2  and  C_3
REMARK    2  A    between atoms: C_3  and  N_4
REMARK    3  A    between atoms: N_17  and  C_18
REMARK    4  A    between atoms: C_18  and  C_19
REMARK    5  A    between atoms: C_23  and  C_24
REMARK    6  A    between atoms: C_29  and  N_30
REMARK                            x       y       z     vdW  Elec       q    Type
REMARK                         _______ _______ _______ _____ _____    ______ ____
ROOT
ATOM      1  C   UNL     1      -6.494   1.501 126.305  0.00  0.00    +0.000 A 
ATOM      2  C   UNL     1      -5.195   1.011 126.180  0.00  0.00    +0.000 A 
ATOM      3  C   UNL     1      -4.401   1.973 126.846  0.00  0.00    +0.000 A 
ATOM      4  C   UNL     1      -4.385   2.515 128.161  0.00  0.00    +0.000 A 
ATOM      5  C   UNL     1      -3.746   3.722 128.509  0.00  0.00    +0.000 A 
ATOM      6  C   UNL     1      -3.104   4.397 127.488  0.00  0.00    +0.000 A 
ATOM      7  C   UNL     1      -3.491   4.061 126.158  0.00  0.00    +0.000 A 
ATOM      8  C   UNL     1      -4.510   3.035 125.959  0.00  0.00    +0.000 A 
ATOM      9  O   UNL     1      -6.147   2.989 126.103  0.00  0.00    +0.000 OA
ENDROOT
BRANCH   5  10
ATOM     10  C   UNL     1      -3.912   4.349 129.864  0.00  0.00    +0.000 C 
ATOM     11  O   UNL     1      -2.914   4.624 130.527  0.00  0.00    +0.000 OA
ATOM     12  N   UNL     1      -5.209   4.759 130.224  0.00  0.00    +0.000 N 
ATOM     13  C   UNL     1      -5.470   6.162 130.534  0.00  0.00    +0.000 C 
ATOM     14  C   UNL     1      -6.257   6.311 131.817  0.00  0.00    +0.000 C 
ATOM     15  C   UNL     1      -7.884   5.714 131.536  0.00  0.00    +0.000 C 
ATOM     16  C   UNL     1      -7.265   4.091 131.409  0.00  0.00    +0.000 C 
ATOM     17  C   UNL     1      -6.391   3.896 130.191  0.00  0.00    +0.000 C 
BRANCH  15  18
ATOM     18  N   UNL     1      -9.044   6.887 130.661  0.00  0.00    +0.000 N 
ATOM     19  C   UNL     1      -9.931   6.379 131.701  0.00  0.00    +0.000 C 
ATOM     20  O   UNL     1      -9.754   6.303 132.947  0.00  0.00    +0.000 OA
ATOM     21  O   UNL     1     -11.005   5.743 131.279  0.00  0.00    +0.000 OA
ATOM     22  C   UNL     1     -11.877   6.801 131.415  0.00  0.00    +0.000 C 
ATOM     23  C   UNL     1     -11.771   7.058 129.990  0.00  0.00    +0.000 A 
ATOM     24  C   UNL     1     -13.007   6.809 129.213  0.00  0.00    +0.000 A 
ATOM     25  C   UNL     1     -13.260   7.228 127.933  0.00  0.00    +0.000 A 
ATOM     26  C   UNL     1     -12.364   8.202 127.586  0.00  0.00    +0.000 A 
ATOM     27  C   UNL     1     -10.994   8.388 128.437  0.00  0.00    +0.000 A 
ATOM     28  C   UNL     1     -10.471   7.432 129.584  0.00  0.00    +0.000 A 
ENDBRANCH  15  18
ENDBRANCH   5  10
BRANCH   1  29
ATOM     29  C   UNL     1      -7.763   0.634 125.864  0.00  0.00    +0.000 C 
BRANCH  29  32
ATOM     30  O   UNL     1      -7.850  -2.732 124.401  0.00  0.00    +0.000 OA
ATOM     31  C   UNL     1      -7.962  -1.887 125.297  0.00  0.00    +0.000 C 
ATOM     32  N   UNL     1      -7.770  -0.529 124.957  0.00  0.00    +0.000 N 
ATOM     33  H   UNL     1      -7.539  -0.398 123.980  0.00  0.00    +0.000 HD
BRANCH  31  34
ATOM     34  C   UNL     1      -8.361  -2.329 126.758  0.00  0.00    +0.000 C 
BRANCH  34  35
ATOM     35  N   UNL     1      -7.225  -2.555 127.724  0.00  0.00    +0.000 N 
ATOM     36  C   UNL     1      -5.933  -2.257 127.341  0.00  0.00    +0.000 A 
ATOM     37  C   UNL     1      -4.987  -2.024 128.257  0.00  0.00    +0.000 A 
ATOM     38  C   UNL     1      -5.235  -2.567 129.620  0.00  0.00    +0.000 A 
ATOM     39  N   UNL     1      -4.130  -2.742 130.459  0.00  0.00    +0.000 N 
ATOM     40  C   UNL     1      -3.749  -4.045 131.030  0.00  0.00    +0.000 C 
ATOM     41  C   UNL     1      -3.781  -4.001 132.565  0.00  0.00    +0.000 C 
ATOM     42  O   UNL     1      -2.949  -2.941 133.071  0.00  0.00    +0.000 OA
ATOM     43  C   UNL     1      -3.416  -1.679 132.563  0.00  0.00    +0.000 C 
ATOM     44  C   UNL     1      -3.340  -1.637 131.024  0.00  0.00    +0.000 C 
ATOM     45  N   UNL     1      -6.430  -2.954 129.963  0.00  0.00    +0.000 NA
ATOM     46  C   UNL     1      -7.496  -2.787 129.084  0.00  0.00    +0.000 A 
ATOM     47  O   UNL     1      -8.660  -2.887 129.471  0.00  0.00    +0.000 OA
ENDBRANCH  34  35
ENDBRANCH  31  34
ENDBRANCH  29  32
ENDBRANCH   1  29
TORSDOF 6
ENDMDL
MODEL 7
REMARK VINA RESULT:     -11.4      2.048      4.693
REMARK  Name = CHEMBL286895
REMARK  6 active torsions:
REMARK  status: ('A' for Active; 'I' for Inactive)
REMARK    1  A    between atoms: C_2  and  C_3
REMARK    2  A    between atoms: C_3  and  N_4
REMARK    3  A    between atoms: N_17  and  C_18
REMARK    4  A    between atoms: C_18  and  C_19
REMARK    5  A    between atoms: C_23  and  C_24
REMARK    6  A    between atoms: C_29  and  N_30
REMARK                            x       y       z     vdW  Elec       q    Type
REMARK                         _______ _______ _______ _____ _____    ______ ____
ROOT
ATOM      1  C   UNL     1      -6.521   0.617 127.341  0.00  0.00    +0.000 A 
ATOM      2  C   UNL     1      -5.226   0.325 126.919  0.00  0.00    +0.000 A 
ATOM      3  C   UNL     1      -4.505   1.513 127.180  0.00  0.00    +0.000 A 
ATOM      4  C   UNL     1      -4.265   2.299 128.341  0.00  0.00    +0.000 A 
ATOM      5  C   UNL     1      -3.823   3.637 128.312  0.00  0.00    +0.000 A 
ATOM      6  C   UNL     1      -3.618   4.191 127.063  0.00  0.00    +0.000 A 
ATOM      7  C   UNL     1      -4.255   3.542 125.964  0.00  0.00    +0.000 A 
ATOM      8  C   UNL     1      -5.054   2.349 126.219  0.00  0.00    +0.000 A 
ATOM      9  O   UNL     1      -6.554   2.072 126.833  0.00  0.00    +0.000 OA
ENDROOT
BRANCH   5  10
ATOM     10  C   UNL     1      -3.764   4.483 129.551  0.00  0.00    +0.000 C 
ATOM     11  O   UNL     1      -2.672   4.868 129.966  0.00  0.00    +0.000 OA
ATOM     12  N   UNL     1      -4.986   4.947 130.068  0.00  0.00    +0.000 N 
ATOM     13  C   UNL     1      -5.233   6.382 130.184  0.00  0.00    +0.000 C 
ATOM     14  C   UNL     1      -5.780   6.745 131.546  0.00  0.00    +0.000 C 
ATOM     15  C   UNL     1      -7.412   6.107 131.669  0.00  0.00    +0.000 C 
ATOM     16  C   UNL     1      -6.774   4.486 131.703  0.00  0.00    +0.000 C 
ATOM     17  C   UNL     1      -6.128   4.090 130.395  0.00  0.00    +0.000 C 
BRANCH  15  18
ATOM     18  N   UNL     1      -8.747   7.114 130.838  0.00  0.00    +0.000 N 
ATOM     19  C   UNL     1      -9.543   6.407 131.833  0.00  0.00    +0.000 C 
ATOM     20  O   UNL     1      -9.366   6.292 133.077  0.00  0.00    +0.000 OA
ATOM     21  O   UNL     1     -10.491   5.623 131.359  0.00  0.00    +0.000 OA
ATOM     22  C   UNL     1     -11.530   6.509 131.536  0.00  0.00    +0.000 C 
ATOM     23  C   UNL     1     -11.457   6.858 130.130  0.00  0.00    +0.000 A 
ATOM     24  C   UNL     1     -12.627   6.448 129.318  0.00  0.00    +0.000 A 
ATOM     25  C   UNL     1     -12.937   6.889 128.058  0.00  0.00    +0.000 A 
ATOM     26  C   UNL     1     -12.216   8.018 127.780  0.00  0.00    +0.000 A 
ATOM     27  C   UNL     1     -10.905   8.386 128.664  0.00  0.00    +0.000 A 
ATOM     28  C   UNL     1     -10.237   7.469 129.767  0.00  0.00    +0.000 A 
ENDBRANCH  15  18
ENDBRANCH   5  10
BRANCH   1  29
ATOM     29  C   UNL     1      -7.654  -0.510 127.415  0.00  0.00    +0.000 C 
BRANCH  29  32
ATOM     30  O   UNL     1      -9.489  -1.544 124.408  0.00  0.00    +0.000 OA
ATOM     31  C   UNL     1      -9.017  -0.742 125.223  0.00  0.00    +0.000 C 
ATOM     32  N   UNL     1      -8.237  -1.255 126.284  0.00  0.00    +0.000 N 
ATOM     33  H   UNL     1      -8.163  -2.265 126.264  0.00  0.00    +0.000 HD
BRANCH  31  34
ATOM     34  C   UNL     1      -9.245   0.808 125.034  0.00  0.00    +0.000 C 
BRANCH  34  35
ATOM     35  N   UNL     1      -8.210   1.542 124.218  0.00  0.00    +0.000 N 
ATOM     36  C   UNL     1      -7.438   0.849 123.308  0.00  0.00    +0.000 A 
ATOM     37  C   UNL     1      -6.849   1.485 122.289  0.00  0.00    +0.000 A 
ATOM     38  C   UNL     1      -6.642   2.949 122.452  0.00  0.00    +0.000 A 
ATOM     39  N   UNL     1      -5.669   3.558 121.655  0.00  0.00    +0.000 N 
ATOM     40  C   UNL     1      -4.512   4.283 122.208  0.00  0.00    +0.000 C 
ATOM     41  C   UNL     1      -4.521   5.752 121.759  0.00  0.00    +0.000 C 
ATOM     42  O   UNL     1      -4.570   5.856 120.324  0.00  0.00    +0.000 OA
ATOM     43  C   UNL     1      -5.763   5.216 119.837  0.00  0.00    +0.000 C 
ATOM     44  C   UNL     1      -5.777   3.718 120.197  0.00  0.00    +0.000 C 
ATOM     45  N   UNL     1      -7.284   3.601 123.379  0.00  0.00    +0.000 NA
ATOM     46  C   UNL     1      -8.224   2.948 124.169  0.00  0.00    +0.000 A 
ATOM     47  O   UNL     1      -9.028   3.579 124.854  0.00  0.00    +0.000 OA
ENDBRANCH  34  35
ENDBRANCH  31  34
ENDBRANCH  29  32
ENDBRANCH   1  29
TORSDOF 6
ENDMDL
MODEL 8
REMARK VINA RESULT:     -10.9      1.832      4.369
REMARK  Name = CHEMBL286895
REMARK  6 active torsions:
REMARK  status: ('A' for Active; 'I' for Inactive)
REMARK    1  A    between atoms: C_2  and  C_3
REMARK    2  A    between atoms: C_3  and  N_4
REMARK    3  A    between atoms: N_17  and  C_18
REMARK    4  A    between atoms: C_18  and  C_19
REMARK    5  A    between atoms: C_23  and  C_24
REMARK    6  A    between atoms: C_29  and  N_30
REMARK                            x       y       z     vdW  Elec       q    Type
REMARK                         _______ _______ _______ _____ _____    ______ ____
ROOT
ATOM      1  C   UNL     1      -6.710  -0.383 128.431  0.00  0.00    +0.000 A 
ATOM      2  C   UNL     1      -5.358  -0.717 128.486  0.00  0.00    +0.000 A 
ATOM      3  C   UNL     1      -4.737   0.452 128.982  0.00  0.00    +0.000 A 
ATOM      4  C   UNL     1      -4.891   1.244 130.153  0.00  0.00    +0.000 A 
ATOM      5  C   UNL     1      -4.425   2.568 130.279  0.00  0.00    +0.000 A 
ATOM      6  C   UNL     1      -3.781   3.102 129.179  0.00  0.00    +0.000 A 
ATOM      7  C   UNL     1      -4.015   2.459 127.928  0.00  0.00    +0.000 A 
ATOM      8  C   UNL     1      -4.890   1.293 127.889  0.00  0.00    +0.000 A 
ATOM      9  O   UNL     1      -6.518   1.067 127.943  0.00  0.00    +0.000 OA
ENDROOT
BRANCH   5  10
ATOM     10  C   UNL     1      -4.773   3.426 131.461  0.00  0.00    +0.000 C 
ATOM     11  O   UNL     1      -3.909   3.677 132.299  0.00  0.00    +0.000 OA
ATOM     12  N   UNL     1      -6.032   4.053 131.447  0.00  0.00    +0.000 N 
ATOM     13  C   UNL     1      -6.123   5.510 131.498  0.00  0.00    +0.000 C 
ATOM     14  C   UNL     1      -7.130   5.969 132.527  0.00  0.00    +0.000 C 
ATOM     15  C   UNL     1      -8.734   5.548 131.951  0.00  0.00    +0.000 C 
ATOM     16  C   UNL     1      -8.375   3.860 132.189  0.00  0.00    +0.000 C 
ATOM     17  C   UNL     1      -7.304   3.356 131.249  0.00  0.00    +0.000 C 
BRANCH  15  18
ATOM     18  N   UNL     1      -9.474   6.699 130.679  0.00  0.00    +0.000 N 
ATOM     19  C   UNL     1     -10.644   6.453 131.513  0.00  0.00    +0.000 C 
ATOM     20  O   UNL     1     -10.780   6.545 132.763  0.00  0.00    +0.000 OA
ATOM     21  O   UNL     1     -11.669   5.885 130.910  0.00  0.00    +0.000 OA
ATOM     22  C   UNL     1     -12.386   7.041 130.695  0.00  0.00    +0.000 C 
ATOM     23  C   UNL     1     -11.911   7.069 129.324  0.00  0.00    +0.000 A 
ATOM     24  C   UNL     1     -12.951   6.846 128.294  0.00  0.00    +0.000 A 
ATOM     25  C   UNL     1     -12.832   7.095 126.951  0.00  0.00    +0.000 A 
ATOM     26  C   UNL     1     -11.748   7.900 126.731  0.00  0.00    +0.000 A 
ATOM     27  C   UNL     1     -10.606   8.058 127.874  0.00  0.00    +0.000 A 
ATOM     28  C   UNL     1     -10.512   7.231 129.219  0.00  0.00    +0.000 A 
ENDBRANCH  15  18
ENDBRANCH   5  10
BRANCH   1  29
ATOM     29  C   UNL     1      -7.832  -1.475 128.107  0.00  0.00    +0.000 C 
BRANCH  29  32
ATOM     30  O   UNL     1      -8.237  -4.155 125.630  0.00  0.00    +0.000 OA
ATOM     31  C   UNL     1      -8.470  -3.062 126.159  0.00  0.00    +0.000 C 
ATOM     32  N   UNL     1      -7.681  -2.678 127.267  0.00  0.00    +0.000 N 
ATOM     33  H   UNL     1      -6.995  -3.378 127.521  0.00  0.00    +0.000 HD
BRANCH  31  34
ATOM     34  C   UNL     1      -9.584  -2.115 125.565  0.00  0.00    +0.000 C 
BRANCH  34  35
ATOM     35  N   UNL     1      -9.113  -0.794 125.009  0.00  0.00    +0.000 N 
ATOM     36  C   UNL     1      -9.557   0.384 125.574  0.00  0.00    +0.000 A 
ATOM     37  C   UNL     1      -8.862   1.516 125.424  0.00  0.00    +0.000 A 
ATOM     38  C   UNL     1      -7.925   1.572 124.269  0.00  0.00    +0.000 A 
ATOM     39  N   UNL     1      -7.530   2.834 123.816  0.00  0.00    +0.000 N 
ATOM     40  C   UNL     1      -7.766   3.307 122.441  0.00  0.00    +0.000 C 
ATOM     41  C   UNL     1      -6.440   3.624 121.734  0.00  0.00    +0.000 C 
ATOM     42  O   UNL     1      -5.662   4.570 122.491  0.00  0.00    +0.000 OA
ATOM     43  C   UNL     1      -5.375   4.025 123.791  0.00  0.00    +0.000 C 
ATOM     44  C   UNL     1      -6.672   3.753 124.578  0.00  0.00    +0.000 C 
ATOM     45  N   UNL     1      -7.579   0.477 123.654  0.00  0.00    +0.000 NA
ATOM     46  C   UNL     1      -8.020  -0.756 124.124  0.00  0.00    +0.000 A 
ATOM     47  O   UNL     1      -7.502  -1.804 123.741  0.00  0.00    +0.000 OA
ENDBRANCH  34  35
ENDBRANCH  31  34
ENDBRANCH  29  32
ENDBRANCH   1  29
TORSDOF 6
ENDMDL
MODEL 9
REMARK VINA RESULT:     -10.8      2.092      3.995
REMARK  Name = CHEMBL286895
REMARK  6 active torsions:
REMARK  status: ('A' for Active; 'I' for Inactive)
REMARK    1  A    between atoms: C_2  and  C_3
REMARK    2  A    between atoms: C_3  and  N_4
REMARK    3  A    between atoms: N_17  and  C_18
REMARK    4  A    between atoms: C_18  and  C_19
REMARK    5  A    between atoms: C_23  and  C_24
REMARK    6  A    between atoms: C_29  and  N_30
REMARK                            x       y       z     vdW  Elec       q    Type
REMARK                         _______ _______ _______ _____ _____    ______ ____
ROOT
ATOM      1  C   UNL     1      -5.999  -0.089 126.752  0.00  0.00    +0.000 A 
ATOM      2  C   UNL     1      -4.869   0.223 126.000  0.00  0.00    +0.000 A 
ATOM      3  C   UNL     1      -4.596   1.570 126.335  0.00  0.00    +0.000 A 
ATOM      4  C   UNL     1      -4.341   2.263 127.551  0.00  0.00    +0.000 A 
ATOM      5  C   UNL     1      -4.454   3.659 127.702  0.00  0.00    +0.000 A 
ATOM      6  C   UNL     1      -4.837   4.372 126.582  0.00  0.00    +0.000 A 
ATOM      7  C   UNL     1      -5.475   3.633 125.543  0.00  0.00    +0.000 A 
ATOM      8  C   UNL     1      -5.667   2.198 125.715  0.00  0.00    +0.000 A 
ATOM      9  O   UNL     1      -6.713   1.267 126.578  0.00  0.00    +0.000 OA
ENDROOT
BRANCH   5  10
ATOM     10  C   UNL     1      -4.357   4.326 129.045  0.00  0.00    +0.000 C 
ATOM     11  O   UNL     1      -3.249   4.586 129.510  0.00  0.00    +0.000 OA
ATOM     12  N   UNL     1      -5.556   4.785 129.618  0.00  0.00    +0.000 N 
ATOM     13  C   UNL     1      -5.721   6.204 129.926  0.00  0.00    +0.000 C 
ATOM     14  C   UNL     1      -6.260   6.410 131.324  0.00  0.00    +0.000 C 
ATOM     15  C   UNL     1      -7.926   5.858 131.356  0.00  0.00    +0.000 C 
ATOM     16  C   UNL     1      -7.383   4.213 131.171  0.00  0.00    +0.000 C 
ATOM     17  C   UNL     1      -6.748   3.960 129.823  0.00  0.00    +0.000 C 
BRANCH  15  18
ATOM     18  N   UNL     1      -9.194   7.044 130.667  0.00  0.00    +0.000 N 
ATOM     19  C   UNL     1      -9.986   6.401 131.708  0.00  0.00    +0.000 C 
ATOM     20  O   UNL     1      -9.724   6.222 132.929  0.00  0.00    +0.000 OA
ATOM     21  O   UNL     1     -11.056   5.751 131.297  0.00  0.00    +0.000 OA
ATOM     22  C   UNL     1     -11.964   6.747 131.583  0.00  0.00    +0.000 C 
ATOM     23  C   UNL     1     -11.964   7.135 130.185  0.00  0.00    +0.000 A 
ATOM     24  C   UNL     1     -13.236   6.894 129.465  0.00  0.00    +0.000 A 
ATOM     25  C   UNL     1     -13.592   7.413 128.247  0.00  0.00    +0.000 A 
ATOM     26  C   UNL     1     -12.765   8.458 127.938  0.00  0.00    +0.000 A 
ATOM     27  C   UNL     1     -11.352   8.637 128.716  0.00  0.00    +0.000 A 
ATOM     28  C   UNL     1     -10.712   7.609 129.735  0.00  0.00    +0.000 A 
ENDBRANCH  15  18
ENDBRANCH   5  10
BRANCH   1  29
ATOM     29  C   UNL     1      -6.561  -1.583 126.841  0.00  0.00    +0.000 C 
BRANCH  29  32
ATOM     30  O   UNL     1      -8.774  -3.248 129.253  0.00  0.00    +0.000 OA
ATOM     31  C   UNL     1      -7.691  -2.898 128.768  0.00  0.00    +0.000 C 
ATOM     32  N   UNL     1      -7.711  -2.052 127.637  0.00  0.00    +0.000 N 
ATOM     33  H   UNL     1      -8.650  -1.830 127.330  0.00  0.00    +0.000 HD
BRANCH  31  34
ATOM     34  C   UNL     1      -6.338  -3.351 129.442  0.00  0.00    +0.000 C 
BRANCH  34  35
ATOM     35  N   UNL     1      -5.624  -2.315 130.273  0.00  0.00    +0.000 N 
ATOM     36  C   UNL     1      -4.587  -1.590 129.721  0.00  0.00    +0.000 A 
ATOM     37  C   UNL     1      -4.232  -0.408 130.236  0.00  0.00    +0.000 A 
ATOM     38  C   UNL     1      -4.625  -0.154 131.649  0.00  0.00    +0.000 A 
ATOM     39  N   UNL     1      -3.920   0.827 132.351  0.00  0.00    +0.000 N 
ATOM     40  C   UNL     1      -3.177   0.553 133.592  0.00  0.00    +0.000 C 
ATOM     41  C   UNL     1      -3.731   1.385 134.758  0.00  0.00    +0.000 C 
ATOM     42  O   UNL     1      -3.727   2.789 134.442  0.00  0.00    +0.000 OA
ATOM     43  C   UNL     1      -4.542   3.022 133.279  0.00  0.00    +0.000 C 
ATOM     44  C   UNL     1      -3.990   2.266 132.054  0.00  0.00    +0.000 C 
ATOM     45  N   UNL     1      -5.527  -0.899 132.220  0.00  0.00    +0.000 NA
ATOM     46  C   UNL     1      -6.184  -1.885 131.490  0.00  0.00    +0.000 A 
ATOM     47  O   UNL     1      -7.212  -2.411 131.914  0.00  0.00    +0.000 OA
ENDBRANCH  34  35
ENDBRANCH  31  34
ENDBRANCH  29  32
ENDBRANCH   1  29
TORSDOF 6
ENDMDL
