MODEL 1
REMARK VINA RESULT:     -11.9      0.000      0.000
REMARK  Name = CHEMBL31556
REMARK  6 active torsions:
REMARK  status: ('A' for Active; 'I' for Inactive)
REMARK    1  A    between atoms: C_2  and  C_3
REMARK    2  A    between atoms: C_8  and  C_9
REMARK    3  A    between atoms: C_13  and  C_14
REMARK    4  A    between atoms: C_14  and  N_15
REMARK    5  A    between atoms: C_17  and  C_18
REMARK    6  A    between atoms: C_33  and  N_34
REMARK                            x       y       z     vdW  Elec       q    Type
REMARK                         _______ _______ _______ _____ _____    ______ ____
ROOT
ATOM      1  C   UNL     1      -4.113   2.342 130.805  0.00  0.00    +0.000 A 
ATOM      2  C   UNL     1      -4.056   2.684 129.428  0.00  0.00    +0.000 A 
ATOM      3  C   UNL     1      -4.787   1.977 128.431  0.00  0.00    +0.000 A 
ATOM      4  C   UNL     1      -5.610   0.942 128.879  0.00  0.00    +0.000 A 
ATOM      5  O   UNL     1      -6.375   0.094 128.111  0.00  0.00    +0.000 OA
ATOM      6  C   UNL     1      -7.044  -0.727 128.980  0.00  0.00    +0.000 A 
ATOM      7  C   UNL     1      -6.685  -0.433 130.278  0.00  0.00    +0.000 A 
ATOM      8  C   UNL     1      -5.756   0.631 130.228  0.00  0.00    +0.000 A 
ATOM      9  C   UNL     1      -5.022   1.351 131.197  0.00  0.00    +0.000 A 
ENDROOT
BRANCH   1  11
ATOM     10  O   UNL     1      -2.814   2.467 132.732  0.00  0.00    +0.000 OA
ATOM     11  C   UNL     1      -3.404   3.145 131.888  0.00  0.00    +0.000 C 
ATOM     12  N   UNL     1      -3.224   4.585 131.761  0.00  0.00    +0.000 N 
ATOM     13  C   UNL     1      -4.323   5.577 131.828  0.00  0.00    +0.000 C 
ATOM     14  C   UNL     1      -3.980   6.921 131.064  0.00  0.00    +0.000 C 
ATOM     15  C   UNL     1      -2.590   7.935 131.738  0.00  0.00    +0.000 C 
ATOM     16  C   UNL     1      -1.546   6.504 131.527  0.00  0.00    +0.000 C 
ATOM     17  C   UNL     1      -1.981   5.178 132.286  0.00  0.00    +0.000 C 
BRANCH  15  18
ATOM     18  N   UNL     1      -2.606   9.604 132.588  0.00  0.00    +0.000 N 
ATOM     19  C   UNL     1      -2.253   8.805 133.683  0.00  0.00    +0.000 C 
ATOM     20  O   UNL     1      -2.969   7.874 134.196  0.00  0.00    +0.000 OA
ATOM     21  O   UNL     1      -1.013   8.926 134.103  0.00  0.00    +0.000 OA
ATOM     22  C   UNL     1      -1.270   9.836 135.113  0.00  0.00    +0.000 C 
ATOM     23  C   UNL     1      -0.967  10.974 134.266  0.00  0.00    +0.000 A 
ATOM     24  C   UNL     1       0.299  11.616 134.110  0.00  0.00    +0.000 A 
ATOM     25  C   UNL     1       0.505  12.985 134.206  0.00  0.00    +0.000 A 
ATOM     26  C   UNL     1      -0.685  13.628 134.295  0.00  0.00    +0.000 A 
ATOM     27  C   UNL     1      -1.977  12.745 133.844  0.00  0.00    +0.000 A 
ATOM     28  C   UNL     1      -1.887  11.190 133.344  0.00  0.00    +0.000 A 
ENDBRANCH  15  18
ENDBRANCH   1  11
BRANCH   6  29
ATOM     29  C   UNL     1      -7.902  -1.782 128.454  0.00  0.00    +0.000 A 
ATOM     30  C   UNL     1      -8.106  -2.967 129.159  0.00  0.00    +0.000 A 
ATOM     31  C   UNL     1      -8.658  -4.089 128.529  0.00  0.00    +0.000 A 
ATOM     32  C   UNL     1      -9.087  -4.018 127.203  0.00  0.00    +0.000 A 
ATOM     33  C   UNL     1      -8.895  -2.840 126.475  0.00  0.00    +0.000 A 
ATOM     34  C   UNL     1      -8.344  -1.724 127.140  0.00  0.00    +0.000 A 
BRANCH  33  35
ATOM     35  C   UNL     1      -9.211  -2.817 124.985  0.00  0.00    +0.000 C 
BRANCH  35  36
ATOM     36  N   UNL     1      -8.034  -2.651 124.122  0.00  0.00    +0.000 N 
ATOM     37  C   UNL     1      -7.010  -3.598 124.181  0.00  0.00    +0.000 A 
ATOM     38  C   UNL     1      -5.776  -3.323 123.727  0.00  0.00    +0.000 A 
ATOM     39  C   UNL     1      -5.591  -2.134 122.918  0.00  0.00    +0.000 A 
ATOM     40  C   UNL     1      -6.616  -1.307 122.677  0.00  0.00    +0.000 A 
ATOM     41  C   UNL     1      -7.893  -1.456 123.424  0.00  0.00    +0.000 A 
ATOM     42  O   UNL     1      -8.719  -0.550 123.391  0.00  0.00    +0.000 OA
BRANCH  38  43
ATOM     43  C   UNL     1      -4.588  -4.192 124.010  0.00  0.00    +0.000 C 
ATOM     44  F   UNL     1      -4.837  -5.487 123.693  0.00  0.00    +0.000 F 
ATOM     45  F   UNL     1      -3.497  -3.813 123.294  0.00  0.00    +0.000 F 
ATOM     46  F   UNL     1      -4.221  -4.167 125.318  0.00  0.00    +0.000 F 
ENDBRANCH  38  43
ENDBRANCH  35  36
ENDBRANCH  33  35
ENDBRANCH   6  29
TORSDOF 6
ENDMDL
MODEL 2
REMARK VINA RESULT:     -11.8      1.704      2.371
REMARK  Name = CHEMBL31556
REMARK  6 active torsions:
REMARK  status: ('A' for Active; 'I' for Inactive)
REMARK    1  A    between atoms: C_2  and  C_3
REMARK    2  A    between atoms: C_8  and  C_9
REMARK    3  A    between atoms: C_13  and  C_14
REMARK    4  A    between atoms: C_14  and  N_15
REMARK    5  A    between atoms: C_17  and  C_18
REMARK    6  A    between atoms: C_33  and  N_34
REMARK                            x       y       z     vdW  Elec       q    Type
REMARK                         _______ _______ _______ _____ _____    ______ ____
ROOT
ATOM      1  C   UNL     1      -3.618   3.805 128.096  0.00  0.00    +0.000 A 
ATOM      2  C   UNL     1      -3.435   3.303 126.781  0.00  0.00    +0.000 A 
ATOM      3  C   UNL     1      -4.119   2.151 126.298  0.00  0.00    +0.000 A 
ATOM      4  C   UNL     1      -5.025   1.551 127.176  0.00  0.00    +0.000 A 
ATOM      5  O   UNL     1      -5.768   0.415 126.957  0.00  0.00    +0.000 OA
ATOM      6  C   UNL     1      -6.544   0.231 128.072  0.00  0.00    +0.000 A 
ATOM      7  C   UNL     1      -6.273   1.213 129.000  0.00  0.00    +0.000 A 
ATOM      8  C   UNL     1      -5.292   2.064 128.442  0.00  0.00    +0.000 A 
ATOM      9  C   UNL     1      -4.602   3.210 128.895  0.00  0.00    +0.000 A 
ENDROOT
BRANCH   1  11
ATOM     10  O   UNL     1      -2.454   5.785 127.710  0.00  0.00    +0.000 OA
ATOM     11  C   UNL     1      -2.957   5.085 128.593  0.00  0.00    +0.000 C 
ATOM     12  N   UNL     1      -3.154   5.553 129.959  0.00  0.00    +0.000 N 
ATOM     13  C   UNL     1      -2.614   4.877 131.163  0.00  0.00    +0.000 C 
ATOM     14  C   UNL     1      -3.456   5.190 132.467  0.00  0.00    +0.000 C 
ATOM     15  C   UNL     1      -3.461   6.942 133.057  0.00  0.00    +0.000 C 
ATOM     16  C   UNL     1      -4.104   7.397 131.457  0.00  0.00    +0.000 C 
ATOM     17  C   UNL     1      -3.228   7.006 130.191  0.00  0.00    +0.000 C 
BRANCH  15  18
ATOM     18  N   UNL     1      -2.694   7.711 134.583  0.00  0.00    +0.000 N 
ATOM     19  C   UNL     1      -1.845   8.258 133.613  0.00  0.00    +0.000 C 
ATOM     20  O   UNL     1      -1.072   7.598 132.832  0.00  0.00    +0.000 OA
ATOM     21  O   UNL     1      -1.987   9.546 133.388  0.00  0.00    +0.000 OA
ATOM     22  C   UNL     1      -0.969   9.971 134.223  0.00  0.00    +0.000 C 
ATOM     23  C   UNL     1      -1.872  10.189 135.337  0.00  0.00    +0.000 A 
ATOM     24  C   UNL     1      -2.551  11.400 135.670  0.00  0.00    +0.000 A 
ATOM     25  C   UNL     1      -2.560  11.977 136.931  0.00  0.00    +0.000 A 
ATOM     26  C   UNL     1      -1.982  11.141 137.828  0.00  0.00    +0.000 A 
ATOM     27  C   UNL     1      -1.842   9.596 137.333  0.00  0.00    +0.000 A 
ATOM     28  C   UNL     1      -2.322   9.063 135.862  0.00  0.00    +0.000 A 
ENDBRANCH  15  18
ENDBRANCH   1  11
BRANCH   6  29
ATOM     29  C   UNL     1      -7.408  -0.939 128.160  0.00  0.00    +0.000 A 
ATOM     30  C   UNL     1      -7.480  -1.699 129.326  0.00  0.00    +0.000 A 
ATOM     31  C   UNL     1      -8.049  -2.978 129.313  0.00  0.00    +0.000 A 
ATOM     32  C   UNL     1      -8.628  -3.485 128.149  0.00  0.00    +0.000 A 
ATOM     33  C   UNL     1      -8.572  -2.741 126.967  0.00  0.00    +0.000 A 
ATOM     34  C   UNL     1      -7.999  -1.452 127.014  0.00  0.00    +0.000 A 
BRANCH  33  35
ATOM     35  C   UNL     1      -9.055  -3.363 125.663  0.00  0.00    +0.000 C 
BRANCH  35  36
ATOM     36  N   UNL     1      -8.171  -3.118 124.515  0.00  0.00    +0.000 N 
ATOM     37  C   UNL     1      -6.971  -3.823 124.420  0.00  0.00    +0.000 A 
ATOM     38  C   UNL     1      -5.968  -3.393 123.637  0.00  0.00    +0.000 A 
ATOM     39  C   UNL     1      -6.247  -2.344 122.677  0.00  0.00    +0.000 A 
ATOM     40  C   UNL     1      -7.462  -1.784 122.612  0.00  0.00    +0.000 A 
ATOM     41  C   UNL     1      -8.469  -2.052 123.671  0.00  0.00    +0.000 A 
ATOM     42  O   UNL     1      -9.467  -1.343 123.747  0.00  0.00    +0.000 OA
BRANCH  38  43
ATOM     43  C   UNL     1      -4.579  -3.954 123.706  0.00  0.00    +0.000 C 
ATOM     44  F   UNL     1      -4.229  -4.248 124.983  0.00  0.00    +0.000 F 
ATOM     45  F   UNL     1      -4.457  -5.102 122.989  0.00  0.00    +0.000 F 
ATOM     46  F   UNL     1      -3.644  -3.095 123.225  0.00  0.00    +0.000 F 
ENDBRANCH  38  43
ENDBRANCH  35  36
ENDBRANCH  33  35
ENDBRANCH   6  29
TORSDOF 6
ENDMDL
MODEL 3
REMARK VINA RESULT:     -11.6      2.135      2.814
REMARK  Name = CHEMBL31556
REMARK  6 active torsions:
REMARK  status: ('A' for Active; 'I' for Inactive)
REMARK    1  A    between atoms: C_2  and  C_3
REMARK    2  A    between atoms: C_8  and  C_9
REMARK    3  A    between atoms: C_13  and  C_14
REMARK    4  A    between atoms: C_14  and  N_15
REMARK    5  A    between atoms: C_17  and  C_18
REMARK    6  A    between atoms: C_33  and  N_34
REMARK                            x       y       z     vdW  Elec       q    Type
REMARK                         _______ _______ _______ _____ _____    ______ ____
ROOT
ATOM      1  C   UNL     1      -4.237   4.313 128.070  0.00  0.00    +0.000 A 
ATOM      2  C   UNL     1      -3.632   3.612 126.994  0.00  0.00    +0.000 A 
ATOM      3  C   UNL     1      -4.055   2.314 126.590  0.00  0.00    +0.000 A 
ATOM      4  C   UNL     1      -5.138   1.768 127.283  0.00  0.00    +0.000 A 
ATOM      5  O   UNL     1      -5.698   0.524 127.106  0.00  0.00    +0.000 OA
ATOM      6  C   UNL     1      -6.758   0.444 127.971  0.00  0.00    +0.000 A 
ATOM      7  C   UNL     1      -6.851   1.602 128.711  0.00  0.00    +0.000 A 
ATOM      8  C   UNL     1      -5.810   2.459 128.286  0.00  0.00    +0.000 A 
ATOM      9  C   UNL     1      -5.371   3.748 128.665  0.00  0.00    +0.000 A 
ENDROOT
BRANCH   1  11
ATOM     10  O   UNL     1      -4.079   6.586 127.590  0.00  0.00    +0.000 OA
ATOM     11  C   UNL     1      -3.849   5.735 128.454  0.00  0.00    +0.000 C 
ATOM     12  N   UNL     1      -3.494   6.075 129.826  0.00  0.00    +0.000 N 
ATOM     13  C   UNL     1      -2.262   5.617 130.511  0.00  0.00    +0.000 C 
ATOM     14  C   UNL     1      -2.418   5.581 132.086  0.00  0.00    +0.000 C 
ATOM     15  C   UNL     1      -2.676   7.201 132.938  0.00  0.00    +0.000 C 
ATOM     16  C   UNL     1      -4.117   7.423 131.910  0.00  0.00    +0.000 C 
ATOM     17  C   UNL     1      -3.890   7.399 130.338  0.00  0.00    +0.000 C 
BRANCH  15  18
ATOM     18  N   UNL     1      -1.546   8.167 134.078  0.00  0.00    +0.000 N 
ATOM     19  C   UNL     1      -2.329   7.521 135.043  0.00  0.00    +0.000 C 
ATOM     20  O   UNL     1      -3.593   7.663 135.205  0.00  0.00    +0.000 OA
ATOM     21  O   UNL     1      -1.727   6.570 135.725  0.00  0.00    +0.000 OA
ATOM     22  C   UNL     1      -1.385   7.345 136.819  0.00  0.00    +0.000 C 
ATOM     23  C   UNL     1      -0.065   7.637 136.293  0.00  0.00    +0.000 A 
ATOM     24  C   UNL     1       1.137   6.902 136.530  0.00  0.00    +0.000 A 
ATOM     25  C   UNL     1       2.338   7.466 136.933  0.00  0.00    +0.000 A 
ATOM     26  C   UNL     1       2.250   8.819 136.900  0.00  0.00    +0.000 A 
ATOM     27  C   UNL     1       1.004   9.404 136.028  0.00  0.00    +0.000 A 
ATOM     28  C   UNL     1      -0.093   8.462 135.262  0.00  0.00    +0.000 A 
ENDBRANCH  15  18
ENDBRANCH   1  11
BRANCH   6  29
ATOM     29  C   UNL     1      -7.524  -0.793 128.055  0.00  0.00    +0.000 A 
ATOM     30  C   UNL     1      -7.507  -1.578 129.207  0.00  0.00    +0.000 A 
ATOM     31  C   UNL     1      -7.973  -2.898 129.181  0.00  0.00    +0.000 A 
ATOM     32  C   UNL     1      -8.537  -3.429 128.020  0.00  0.00    +0.000 A 
ATOM     33  C   UNL     1      -8.568  -2.662 126.852  0.00  0.00    +0.000 A 
ATOM     34  C   UNL     1      -8.098  -1.332 126.912  0.00  0.00    +0.000 A 
BRANCH  33  35
ATOM     35  C   UNL     1      -9.030  -3.297 125.547  0.00  0.00    +0.000 C 
BRANCH  35  36
ATOM     36  N   UNL     1      -8.122  -3.074 124.414  0.00  0.00    +0.000 N 
ATOM     37  C   UNL     1      -6.927  -3.791 124.351  0.00  0.00    +0.000 A 
ATOM     38  C   UNL     1      -5.904  -3.380 123.583  0.00  0.00    +0.000 A 
ATOM     39  C   UNL     1      -6.154  -2.340 122.605  0.00  0.00    +0.000 A 
ATOM     40  C   UNL     1      -7.363  -1.771 122.508  0.00  0.00    +0.000 A 
ATOM     41  C   UNL     1      -8.393  -2.017 123.551  0.00  0.00    +0.000 A 
ATOM     42  O   UNL     1      -9.386  -1.297 123.598  0.00  0.00    +0.000 OA
BRANCH  38  43
ATOM     43  C   UNL     1      -4.522  -3.952 123.687  0.00  0.00    +0.000 C 
ATOM     44  F   UNL     1      -4.409  -5.100 122.974  0.00  0.00    +0.000 F 
ATOM     45  F   UNL     1      -3.579  -3.097 123.209  0.00  0.00    +0.000 F 
ATOM     46  F   UNL     1      -4.170  -4.242 124.966  0.00  0.00    +0.000 F 
ENDBRANCH  38  43
ENDBRANCH  35  36
ENDBRANCH  33  35
ENDBRANCH   6  29
TORSDOF 6
ENDMDL
MODEL 4
REMARK VINA RESULT:     -11.4      2.739      4.411
REMARK  Name = CHEMBL31556
REMARK  6 active torsions:
REMARK  status: ('A' for Active; 'I' for Inactive)
REMARK    1  A    between atoms: C_2  and  C_3
REMARK    2  A    between atoms: C_8  and  C_9
REMARK    3  A    between atoms: C_13  and  C_14
REMARK    4  A    between atoms: C_14  and  N_15
REMARK    5  A    between atoms: C_17  and  C_18
REMARK    6  A    between atoms: C_33  and  N_34
REMARK                            x       y       z     vdW  Elec       q    Type
REMARK                         _______ _______ _______ _____ _____    ______ ____
ROOT
ATOM      1  C   UNL     1      -2.440   5.675 130.711  0.00  0.00    +0.000 A 
ATOM      2  C   UNL     1      -1.890   6.470 129.671  0.00  0.00    +0.000 A 
ATOM      3  C   UNL     1      -2.262   6.311 128.306  0.00  0.00    +0.000 A 
ATOM      4  C   UNL     1      -3.239   5.351 128.034  0.00  0.00    +0.000 A 
ATOM      5  O   UNL     1      -3.730   4.988 126.802  0.00  0.00    +0.000 OA
ATOM      6  C   UNL     1      -4.700   4.046 127.026  0.00  0.00    +0.000 A 
ATOM      7  C   UNL     1      -4.801   3.787 128.376  0.00  0.00    +0.000 A 
ATOM      8  C   UNL     1      -3.861   4.612 129.036  0.00  0.00    +0.000 A 
ATOM      9  C   UNL     1      -3.475   4.792 130.383  0.00  0.00    +0.000 A 
ENDROOT
BRANCH   1  11
ATOM     10  O   UNL     1      -2.014   4.863 132.851  0.00  0.00    +0.000 OA
ATOM     11  C   UNL     1      -2.113   5.895 132.182  0.00  0.00    +0.000 C 
ATOM     12  N   UNL     1      -1.690   7.201 132.673  0.00  0.00    +0.000 N 
ATOM     13  C   UNL     1      -2.567   8.393 132.750  0.00  0.00    +0.000 C 
ATOM     14  C   UNL     1      -1.757   9.752 132.702  0.00  0.00    +0.000 C 
ATOM     15  C   UNL     1      -0.619  10.098 134.118  0.00  0.00    +0.000 C 
ATOM     16  C   UNL     1       0.202   8.561 133.732  0.00  0.00    +0.000 C 
ATOM     17  C   UNL     1      -0.687   7.245 133.752  0.00  0.00    +0.000 C 
BRANCH  15  18
ATOM     18  N   UNL     1      -0.731  11.379 135.480  0.00  0.00    +0.000 N 
ATOM     19  C   UNL     1       0.361  11.903 134.776  0.00  0.00    +0.000 C 
ATOM     20  O   UNL     1       1.491  11.325 134.601  0.00  0.00    +0.000 OA
ATOM     21  O   UNL     1       0.131  13.013 134.108  0.00  0.00    +0.000 OA
ATOM     22  C   UNL     1       0.598  13.885 135.075  0.00  0.00    +0.000 C 
ATOM     23  C   UNL     1      -0.724  14.091 135.635  0.00  0.00    +0.000 A 
ATOM     24  C   UNL     1      -1.661  15.108 135.276  0.00  0.00    +0.000 A 
ATOM     25  C   UNL     1      -2.313  15.932 136.180  0.00  0.00    +0.000 A 
ATOM     26  C   UNL     1      -2.065  15.520 137.448  0.00  0.00    +0.000 A 
ATOM     27  C   UNL     1      -1.480  14.005 137.573  0.00  0.00    +0.000 A 
ATOM     28  C   UNL     1      -1.176  13.037 136.289  0.00  0.00    +0.000 A 
ENDBRANCH  15  18
ENDBRANCH   1  11
BRANCH   6  29
ATOM     29  C   UNL     1      -5.372   3.423 125.893  0.00  0.00    +0.000 A 
ATOM     30  C   UNL     1      -5.252   3.944 124.606  0.00  0.00    +0.000 A 
ATOM     31  C   UNL     1      -6.131   3.549 123.590  0.00  0.00    +0.000 A 
ATOM     32  C   UNL     1      -7.095   2.568 123.827  0.00  0.00    +0.000 A 
ATOM     33  C   UNL     1      -7.234   2.029 125.108  0.00  0.00    +0.000 A 
ATOM     34  C   UNL     1      -6.328   2.440 126.109  0.00  0.00    +0.000 A 
BRANCH  33  35
ATOM     35  C   UNL     1      -8.390   1.083 125.405  0.00  0.00    +0.000 C 
BRANCH  35  36
ATOM     36  N   UNL     1      -8.389  -0.142 124.594  0.00  0.00    +0.000 N 
ATOM     37  C   UNL     1      -7.312  -1.023 124.697  0.00  0.00    +0.000 A 
ATOM     38  C   UNL     1      -7.060  -1.935 123.743  0.00  0.00    +0.000 A 
ATOM     39  C   UNL     1      -8.080  -2.183 122.744  0.00  0.00    +0.000 A 
ATOM     40  C   UNL     1      -9.221  -1.482 122.745  0.00  0.00    +0.000 A 
ATOM     41  C   UNL     1      -9.363  -0.282 123.611  0.00  0.00    +0.000 A 
ATOM     42  O   UNL     1     -10.293   0.495 123.416  0.00  0.00    +0.000 OA
BRANCH  38  43
ATOM     43  C   UNL     1      -5.778  -2.710 123.671  0.00  0.00    +0.000 C 
ATOM     44  F   UNL     1      -4.871  -2.248 124.567  0.00  0.00    +0.000 F 
ATOM     45  F   UNL     1      -5.965  -4.029 123.942  0.00  0.00    +0.000 F 
ATOM     46  F   UNL     1      -5.196  -2.645 122.446  0.00  0.00    +0.000 F 
ENDBRANCH  38  43
ENDBRANCH  35  36
ENDBRANCH  33  35
ENDBRANCH   6  29
TORSDOF 6
ENDMDL
MODEL 5
REMARK VINA RESULT:     -11.3      2.874      4.613
REMARK  Name = CHEMBL31556
REMARK  6 active torsions:
REMARK  status: ('A' for Active; 'I' for Inactive)
REMARK    1  A    between atoms: C_2  and  C_3
REMARK    2  A    between atoms: C_8  and  C_9
REMARK    3  A    between atoms: C_13  and  C_14
REMARK    4  A    between atoms: C_14  and  N_15
REMARK    5  A    between atoms: C_17  and  C_18
REMARK    6  A    between atoms: C_33  and  N_34
REMARK                            x       y       z     vdW  Elec       q    Type
REMARK                         _______ _______ _______ _____ _____    ______ ____
ROOT
ATOM      1  C   UNL     1      -2.255   5.549 130.746  0.00  0.00    +0.000 A 
ATOM      2  C   UNL     1      -2.075   6.470 129.682  0.00  0.00    +0.000 A 
ATOM      3  C   UNL     1      -2.584   6.237 128.372  0.00  0.00    +0.000 A 
ATOM      4  C   UNL     1      -3.316   5.062 128.188  0.00  0.00    +0.000 A 
ATOM      5  O   UNL     1      -3.869   4.599 127.016  0.00  0.00    +0.000 OA
ATOM      6  C   UNL     1      -4.527   3.438 127.324  0.00  0.00    +0.000 A 
ATOM      7  C   UNL     1      -4.368   3.146 128.661  0.00  0.00    +0.000 A 
ATOM      8  C   UNL     1      -3.584   4.176 129.228  0.00  0.00    +0.000 A 
ATOM      9  C   UNL     1      -3.070   4.434 130.519  0.00  0.00    +0.000 A 
ENDROOT
BRANCH   1  11
ATOM     10  O   UNL     1      -1.453   4.830 132.810  0.00  0.00    +0.000 OA
ATOM     11  C   UNL     1      -1.790   5.829 132.170  0.00  0.00    +0.000 C 
ATOM     12  N   UNL     1      -1.516   7.188 132.620  0.00  0.00    +0.000 N 
ATOM     13  C   UNL     1      -2.551   8.230 132.816  0.00  0.00    +0.000 C 
ATOM     14  C   UNL     1      -1.971   9.698 132.685  0.00  0.00    +0.000 C 
ATOM     15  C   UNL     1      -0.738  10.226 133.956  0.00  0.00    +0.000 C 
ATOM     16  C   UNL     1       0.257   8.832 133.457  0.00  0.00    +0.000 C 
ATOM     17  C   UNL     1      -0.409   7.395 133.570  0.00  0.00    +0.000 C 
BRANCH  15  18
ATOM     18  N   UNL     1      -0.880  11.486 135.335  0.00  0.00    +0.000 N 
ATOM     19  C   UNL     1       0.228  12.021 134.665  0.00  0.00    +0.000 C 
ATOM     20  O   UNL     1       1.361  11.444 134.506  0.00  0.00    +0.000 OA
ATOM     21  O   UNL     1       0.014  13.141 134.010  0.00  0.00    +0.000 OA
ATOM     22  C   UNL     1       0.459  13.997 135.001  0.00  0.00    +0.000 C 
ATOM     23  C   UNL     1      -0.875  14.195 135.534  0.00  0.00    +0.000 A 
ATOM     24  C   UNL     1      -1.803  15.218 135.171  0.00  0.00    +0.000 A 
ATOM     25  C   UNL     1      -2.475  16.028 136.073  0.00  0.00    +0.000 A 
ATOM     26  C   UNL     1      -2.256  15.595 137.339  0.00  0.00    +0.000 A 
ATOM     27  C   UNL     1      -1.675  14.078 137.453  0.00  0.00    +0.000 A 
ATOM     28  C   UNL     1      -1.342  13.131 136.161  0.00  0.00    +0.000 A 
ENDBRANCH  15  18
ENDBRANCH   1  11
BRANCH   6  29
ATOM     29  C   UNL     1      -5.174   2.677 126.262  0.00  0.00    +0.000 A 
ATOM     30  C   UNL     1      -6.178   3.239 125.477  0.00  0.00    +0.000 A 
ATOM     31  C   UNL     1      -7.006   2.432 124.687  0.00  0.00    +0.000 A 
ATOM     32  C   UNL     1      -6.790   1.055 124.610  0.00  0.00    +0.000 A 
ATOM     33  C   UNL     1      -5.787   0.467 125.385  0.00  0.00    +0.000 A 
ATOM     34  C   UNL     1      -4.964   1.308 126.165  0.00  0.00    +0.000 A 
BRANCH  33  35
ATOM     35  C   UNL     1      -5.661  -1.050 125.426  0.00  0.00    +0.000 C 
BRANCH  35  36
ATOM     36  N   UNL     1      -6.916  -1.751 125.730  0.00  0.00    +0.000 N 
ATOM     37  C   UNL     1      -7.276  -1.952 127.063  0.00  0.00    +0.000 A 
ATOM     38  C   UNL     1      -8.177  -2.886 127.411  0.00  0.00    +0.000 A 
ATOM     39  C   UNL     1      -8.979  -3.489 126.365  0.00  0.00    +0.000 A 
ATOM     40  C   UNL     1      -8.787  -3.160 125.082  0.00  0.00    +0.000 A 
ATOM     41  C   UNL     1      -7.600  -2.360 124.682  0.00  0.00    +0.000 A 
ATOM     42  O   UNL     1      -7.293  -2.289 123.497  0.00  0.00    +0.000 OA
BRANCH  38  43
ATOM     43  C   UNL     1      -8.395  -3.324 128.828  0.00  0.00    +0.000 C 
ATOM     44  F   UNL     1      -9.524  -4.066 128.947  0.00  0.00    +0.000 F 
ATOM     45  F   UNL     1      -7.370  -4.089 129.288  0.00  0.00    +0.000 F 
ATOM     46  F   UNL     1      -8.514  -2.278 129.687  0.00  0.00    +0.000 F 
ENDBRANCH  38  43
ENDBRANCH  35  36
ENDBRANCH  33  35
ENDBRANCH   6  29
TORSDOF 6
ENDMDL
MODEL 6
REMARK VINA RESULT:     -11.3      2.237      3.889
REMARK  Name = CHEMBL31556
REMARK  6 active torsions:
REMARK  status: ('A' for Active; 'I' for Inactive)
REMARK    1  A    between atoms: C_2  and  C_3
REMARK    2  A    between atoms: C_8  and  C_9
REMARK    3  A    between atoms: C_13  and  C_14
REMARK    4  A    between atoms: C_14  and  N_15
REMARK    5  A    between atoms: C_17  and  C_18
REMARK    6  A    between atoms: C_33  and  N_34
REMARK                            x       y       z     vdW  Elec       q    Type
REMARK                         _______ _______ _______ _____ _____    ______ ____
ROOT
ATOM      1  C   UNL     1      -3.611   3.665 131.489  0.00  0.00    +0.000 A 
ATOM      2  C   UNL     1      -4.144   2.349 131.473  0.00  0.00    +0.000 A 
ATOM      3  C   UNL     1      -4.683   1.755 130.296  0.00  0.00    +0.000 A 
ATOM      4  C   UNL     1      -4.625   2.520 129.129  0.00  0.00    +0.000 A 
ATOM      5  O   UNL     1      -5.113   2.183 127.888  0.00  0.00    +0.000 OA
ATOM      6  C   UNL     1      -4.790   3.215 127.046  0.00  0.00    +0.000 A 
ATOM      7  C   UNL     1      -4.140   4.208 127.745  0.00  0.00    +0.000 A 
ATOM      8  C   UNL     1      -4.034   3.779 129.088  0.00  0.00    +0.000 A 
ATOM      9  C   UNL     1      -3.504   4.344 130.270  0.00  0.00    +0.000 A 
ENDROOT
BRANCH   1  11
ATOM     10  O   UNL     1      -2.592   3.463 133.573  0.00  0.00    +0.000 OA
ATOM     11  C   UNL     1      -2.955   4.277 132.720  0.00  0.00    +0.000 C 
ATOM     12  N   UNL     1      -2.555   5.678 132.742  0.00  0.00    +0.000 N 
ATOM     13  C   UNL     1      -3.500   6.820 132.751  0.00  0.00    +0.000 C 
ATOM     14  C   UNL     1      -2.865   8.142 132.155  0.00  0.00    +0.000 C 
ATOM     15  C   UNL     1      -1.454   8.886 133.089  0.00  0.00    +0.000 C 
ATOM     16  C   UNL     1      -0.605   7.329 132.893  0.00  0.00    +0.000 C 
ATOM     17  C   UNL     1      -1.327   6.039 133.473  0.00  0.00    +0.000 C 
BRANCH  15  18
ATOM     18  N   UNL     1      -1.353  10.479 134.071  0.00  0.00    +0.000 N 
ATOM     19  C   UNL     1      -0.340  10.734 133.136  0.00  0.00    +0.000 C 
ATOM     20  O   UNL     1       0.739  10.058 132.995  0.00  0.00    +0.000 OA
ATOM     21  O   UNL     1      -0.615  11.647 132.231  0.00  0.00    +0.000 OA
ATOM     22  C   UNL     1      -0.002  12.707 132.876  0.00  0.00    +0.000 C 
ATOM     23  C   UNL     1      -1.237  13.134 133.507  0.00  0.00    +0.000 A 
ATOM     24  C   UNL     1      -2.177  14.082 133.001  0.00  0.00    +0.000 A 
ATOM     25  C   UNL     1      -2.684  15.151 133.724  0.00  0.00    +0.000 A 
ATOM     26  C   UNL     1      -2.293  15.063 135.019  0.00  0.00    +0.000 A 
ATOM     27  C   UNL     1      -1.748  13.596 135.472  0.00  0.00    +0.000 A 
ATOM     28  C   UNL     1      -1.638  12.314 134.461  0.00  0.00    +0.000 A 
ENDBRANCH  15  18
ENDBRANCH   1  11
BRANCH   6  29
ATOM     29  C   UNL     1      -5.230   3.172 125.657  0.00  0.00    +0.000 A 
ATOM     30  C   UNL     1      -4.997   4.239 124.791  0.00  0.00    +0.000 A 
ATOM     31  C   UNL     1      -5.682   4.336 123.574  0.00  0.00    +0.000 A 
ATOM     32  C   UNL     1      -6.553   3.324 123.167  0.00  0.00    +0.000 A 
ATOM     33  C   UNL     1      -6.802   2.242 124.016  0.00  0.00    +0.000 A 
ATOM     34  C   UNL     1      -6.090   2.169 125.233  0.00  0.00    +0.000 A 
BRANCH  33  35
ATOM     35  C   UNL     1      -7.874   1.227 123.646  0.00  0.00    +0.000 C 
BRANCH  35  36
ATOM     36  N   UNL     1      -7.823  -0.016 124.428  0.00  0.00    +0.000 N 
ATOM     37  C   UNL     1      -6.757  -0.896 124.236  0.00  0.00    +0.000 A 
ATOM     38  C   UNL     1      -6.835  -2.182 124.614  0.00  0.00    +0.000 A 
ATOM     39  C   UNL     1      -7.928  -2.579 125.477  0.00  0.00    +0.000 A 
ATOM     40  C   UNL     1      -8.864  -1.694 125.844  0.00  0.00    +0.000 A 
ATOM     41  C   UNL     1      -8.937  -0.364 125.186  0.00  0.00    +0.000 A 
ATOM     42  O   UNL     1      -9.939   0.328 125.334  0.00  0.00    +0.000 OA
BRANCH  38  43
ATOM     43  C   UNL     1      -5.839  -3.221 124.191  0.00  0.00    +0.000 C 
ATOM     44  F   UNL     1      -4.858  -3.369 125.115  0.00  0.00    +0.000 F 
ATOM     45  F   UNL     1      -6.414  -4.441 124.027  0.00  0.00    +0.000 F 
ATOM     46  F   UNL     1      -5.233  -2.916 123.014  0.00  0.00    +0.000 F 
ENDBRANCH  38  43
ENDBRANCH  35  36
ENDBRANCH  33  35
ENDBRANCH   6  29
TORSDOF 6
ENDMDL
MODEL 7
REMARK VINA RESULT:     -11.2      7.734     10.693
REMARK  Name = CHEMBL31556
REMARK  6 active torsions:
REMARK  status: ('A' for Active; 'I' for Inactive)
REMARK    1  A    between atoms: C_2  and  C_3
REMARK    2  A    between atoms: C_8  and  C_9
REMARK    3  A    between atoms: C_13  and  C_14
REMARK    4  A    between atoms: C_14  and  N_15
REMARK    5  A    between atoms: C_17  and  C_18
REMARK    6  A    between atoms: C_33  and  N_34
REMARK                            x       y       z     vdW  Elec       q    Type
REMARK                         _______ _______ _______ _____ _____    ______ ____
ROOT
ATOM      1  C   UNL     1      -5.984  -3.387 130.455  0.00  0.00    +0.000 A 
ATOM      2  C   UNL     1      -5.264  -2.183 130.236  0.00  0.00    +0.000 A 
ATOM      3  C   UNL     1      -5.522  -1.325 129.129  0.00  0.00    +0.000 A 
ATOM      4  C   UNL     1      -6.562  -1.704 128.277  0.00  0.00    +0.000 A 
ATOM      5  O   UNL     1      -6.970  -1.067 127.128  0.00  0.00    +0.000 OA
ATOM      6  C   UNL     1      -8.046  -1.770 126.651  0.00  0.00    +0.000 A 
ATOM      7  C   UNL     1      -8.296  -2.856 127.461  0.00  0.00    +0.000 A 
ATOM      8  C   UNL     1      -7.344  -2.832 128.505  0.00  0.00    +0.000 A 
ATOM      9  C   UNL     1      -7.068  -3.665 129.614  0.00  0.00    +0.000 A 
ENDROOT
BRANCH   1  11
ATOM     10  O   UNL     1      -4.914  -5.141 131.550  0.00  0.00    +0.000 OA
ATOM     11  C   UNL     1      -5.774  -4.266 131.681  0.00  0.00    +0.000 C 
ATOM     12  N   UNL     1      -6.353  -3.912 132.970  0.00  0.00    +0.000 N 
ATOM     13  C   UNL     1      -7.804  -3.937 133.273  0.00  0.00    +0.000 C 
ATOM     14  C   UNL     1      -8.199  -2.954 134.449  0.00  0.00    +0.000 C 
ATOM     15  C   UNL     1      -7.515  -3.333 136.123  0.00  0.00    +0.000 C 
ATOM     16  C   UNL     1      -5.889  -3.237 135.395  0.00  0.00    +0.000 C 
ATOM     17  C   UNL     1      -5.582  -4.221 134.187  0.00  0.00    +0.000 C 
BRANCH  15  18
ATOM     18  N   UNL     1      -8.372  -3.926 137.679  0.00  0.00    +0.000 N 
ATOM     19  C   UNL     1      -8.614  -2.552 137.807  0.00  0.00    +0.000 C 
ATOM     20  O   UNL     1      -7.722  -1.641 137.935  0.00  0.00    +0.000 OA
ATOM     21  O   UNL     1      -9.857  -2.170 137.614  0.00  0.00    +0.000 OA
ATOM     22  C   UNL     1     -10.232  -2.151 138.945  0.00  0.00    +0.000 C 
ATOM     23  C   UNL     1     -10.765  -3.498 138.892  0.00  0.00    +0.000 A 
ATOM     24  C   UNL     1     -12.109  -3.880 138.596  0.00  0.00    +0.000 A 
ATOM     25  C   UNL     1     -12.867  -4.751 139.364  0.00  0.00    +0.000 A 
ATOM     26  C   UNL     1     -12.096  -5.314 140.326  0.00  0.00    +0.000 A 
ATOM     27  C   UNL     1     -10.491  -5.187 140.079  0.00  0.00    +0.000 A 
ATOM     28  C   UNL     1      -9.825  -4.421 138.796  0.00  0.00    +0.000 A 
ENDBRANCH  15  18
ENDBRANCH   1  11
BRANCH   6  29
ATOM     29  C   UNL     1      -8.669  -1.364 125.398  0.00  0.00    +0.000 A 
ATOM     30  C   UNL     1      -8.623  -2.180 124.269  0.00  0.00    +0.000 A 
ATOM     31  C   UNL     1      -8.934  -1.669 123.003  0.00  0.00    +0.000 A 
ATOM     32  C   UNL     1      -9.373  -0.353 122.857  0.00  0.00    +0.000 A 
ATOM     33  C   UNL     1      -9.430   0.486 123.974  0.00  0.00    +0.000 A 
ATOM     34  C   UNL     1      -9.119  -0.061 125.238  0.00  0.00    +0.000 A 
BRANCH  33  35
ATOM     35  C   UNL     1      -9.749   1.963 123.789  0.00  0.00    +0.000 C 
BRANCH  35  36
ATOM     36  N   UNL     1      -8.564   2.826 123.677  0.00  0.00    +0.000 N 
ATOM     37  C   UNL     1      -7.949   2.975 122.433  0.00  0.00    +0.000 A 
ATOM     38  C   UNL     1      -6.686   3.418 122.327  0.00  0.00    +0.000 A 
ATOM     39  C   UNL     1      -6.064   4.006 123.496  0.00  0.00    +0.000 A 
ATOM     40  C   UNL     1      -6.717   4.058 124.664  0.00  0.00    +0.000 A 
ATOM     41  C   UNL     1      -7.984   3.303 124.848  0.00  0.00    +0.000 A 
ATOM     42  O   UNL     1      -8.431   3.142 125.979  0.00  0.00    +0.000 OA
BRANCH  38  43
ATOM     43  C   UNL     1      -5.895   3.339 121.055  0.00  0.00    +0.000 C 
ATOM     44  F   UNL     1      -6.684   3.545 119.971  0.00  0.00    +0.000 F 
ATOM     45  F   UNL     1      -4.910   4.274 121.009  0.00  0.00    +0.000 F 
ATOM     46  F   UNL     1      -5.295   2.133 120.886  0.00  0.00    +0.000 F 
ENDBRANCH  38  43
ENDBRANCH  35  36
ENDBRANCH  33  35
ENDBRANCH   6  29
TORSDOF 6
ENDMDL
MODEL 8
REMARK VINA RESULT:     -10.8      2.673      3.307
REMARK  Name = CHEMBL31556
REMARK  6 active torsions:
REMARK  status: ('A' for Active; 'I' for Inactive)
REMARK    1  A    between atoms: C_2  and  C_3
REMARK    2  A    between atoms: C_8  and  C_9
REMARK    3  A    between atoms: C_13  and  C_14
REMARK    4  A    between atoms: C_14  and  N_15
REMARK    5  A    between atoms: C_17  and  C_18
REMARK    6  A    between atoms: C_33  and  N_34
REMARK                            x       y       z     vdW  Elec       q    Type
REMARK                         _______ _______ _______ _____ _____    ______ ____
ROOT
ATOM      1  C   UNL     1      -5.493   1.981 132.496  0.00  0.00    +0.000 A 
ATOM      2  C   UNL     1      -6.767   1.712 133.060  0.00  0.00    +0.000 A 
ATOM      3  C   UNL     1      -7.731   0.884 132.416  0.00  0.00    +0.000 A 
ATOM      4  C   UNL     1      -7.345   0.304 131.206  0.00  0.00    +0.000 A 
ATOM      5  O   UNL     1      -8.108  -0.493 130.383  0.00  0.00    +0.000 OA
ATOM      6  C   UNL     1      -7.303  -0.863 129.338  0.00  0.00    +0.000 A 
ATOM      7  C   UNL     1      -6.060  -0.283 129.472  0.00  0.00    +0.000 A 
ATOM      8  C   UNL     1      -6.075   0.477 130.664  0.00  0.00    +0.000 A 
ATOM      9  C   UNL     1      -5.137   1.302 131.325  0.00  0.00    +0.000 A 
ENDROOT
BRANCH   1  11
ATOM     10  O   UNL     1      -3.735   2.153 134.013  0.00  0.00    +0.000 OA
ATOM     11  C   UNL     1      -4.424   2.794 133.215  0.00  0.00    +0.000 C 
ATOM     12  N   UNL     1      -4.086   4.144 132.783  0.00  0.00    +0.000 N 
ATOM     13  C   UNL     1      -4.984   5.317 132.915  0.00  0.00    +0.000 C 
ATOM     14  C   UNL     1      -4.669   6.449 131.854  0.00  0.00    +0.000 C 
ATOM     15  C   UNL     1      -3.025   7.285 131.986  0.00  0.00    +0.000 C 
ATOM     16  C   UNL     1      -2.279   5.675 131.812  0.00  0.00    +0.000 C 
ATOM     17  C   UNL     1      -2.681   4.575 132.885  0.00  0.00    +0.000 C 
BRANCH  15  18
ATOM     18  N   UNL     1      -2.592   9.037 132.489  0.00  0.00    +0.000 N 
ATOM     19  C   UNL     1      -2.224   8.374 133.667  0.00  0.00    +0.000 C 
ATOM     20  O   UNL     1      -3.009   7.716 134.437  0.00  0.00    +0.000 OA
ATOM     21  O   UNL     1      -0.931   8.295 133.899  0.00  0.00    +0.000 OA
ATOM     22  C   UNL     1      -0.848   9.394 134.735  0.00  0.00    +0.000 C 
ATOM     23  C   UNL     1      -0.477  10.284 133.651  0.00  0.00    +0.000 A 
ATOM     24  C   UNL     1       0.846  10.606 133.217  0.00  0.00    +0.000 A 
ATOM     25  C   UNL     1       1.317  11.895 133.018  0.00  0.00    +0.000 A 
ATOM     26  C   UNL     1       0.299  12.784 133.125  0.00  0.00    +0.000 A 
ATOM     27  C   UNL     1      -1.192  12.135 133.018  0.00  0.00    +0.000 A 
ATOM     28  C   UNL     1      -1.477  10.535 132.826  0.00  0.00    +0.000 A 
ENDBRANCH  15  18
ENDBRANCH   1  11
BRANCH   6  29
ATOM     29  C   UNL     1      -7.854  -1.674 128.260  0.00  0.00    +0.000 A 
ATOM     30  C   UNL     1      -8.503  -2.880 128.521  0.00  0.00    +0.000 A 
ATOM     31  C   UNL     1      -8.745  -3.799 127.493  0.00  0.00    +0.000 A 
ATOM     32  C   UNL     1      -8.414  -3.491 126.173  0.00  0.00    +0.000 A 
ATOM     33  C   UNL     1      -7.765  -2.287 125.884  0.00  0.00    +0.000 A 
ATOM     34  C   UNL     1      -7.541  -1.378 126.940  0.00  0.00    +0.000 A 
BRANCH  33  35
ATOM     35  C   UNL     1      -7.257  -2.026 124.473  0.00  0.00    +0.000 C 
BRANCH  35  36
ATOM     36  N   UNL     1      -8.060  -1.057 123.713  0.00  0.00    +0.000 N 
ATOM     37  C   UNL     1      -7.696   0.290 123.734  0.00  0.00    +0.000 A 
ATOM     38  C   UNL     1      -8.567   1.255 123.395  0.00  0.00    +0.000 A 
ATOM     39  C   UNL     1      -9.800   0.867 122.739  0.00  0.00    +0.000 A 
ATOM     40  C   UNL     1     -10.082  -0.424 122.524  0.00  0.00    +0.000 A 
ATOM     41  C   UNL     1      -9.263  -1.487 123.163  0.00  0.00    +0.000 A 
ATOM     42  O   UNL     1      -9.680  -2.641 123.178  0.00  0.00    +0.000 OA
BRANCH  38  43
ATOM     43  C   UNL     1      -8.318   2.710 123.658  0.00  0.00    +0.000 C 
ATOM     44  F   UNL     1      -9.072   3.160 124.691  0.00  0.00    +0.000 F 
ATOM     45  F   UNL     1      -7.021   2.955 123.980  0.00  0.00    +0.000 F 
ATOM     46  F   UNL     1      -8.606   3.492 122.586  0.00  0.00    +0.000 F 
ENDBRANCH  38  43
ENDBRANCH  35  36
ENDBRANCH  33  35
ENDBRANCH   6  29
TORSDOF 6
ENDMDL
MODEL 9
REMARK VINA RESULT:     -10.6      7.705      9.860
REMARK  Name = CHEMBL31556
REMARK  6 active torsions:
REMARK  status: ('A' for Active; 'I' for Inactive)
REMARK    1  A    between atoms: C_2  and  C_3
REMARK    2  A    between atoms: C_8  and  C_9
REMARK    3  A    between atoms: C_13  and  C_14
REMARK    4  A    between atoms: C_14  and  N_15
REMARK    5  A    between atoms: C_17  and  C_18
REMARK    6  A    between atoms: C_33  and  N_34
REMARK                            x       y       z     vdW  Elec       q    Type
REMARK                         _______ _______ _______ _____ _____    ______ ____
ROOT
ATOM      1  C   UNL     1      -5.852  -3.887 130.036  0.00  0.00    +0.000 A 
ATOM      2  C   UNL     1      -4.890  -2.918 129.652  0.00  0.00    +0.000 A 
ATOM      3  C   UNL     1      -5.076  -2.053 128.536  0.00  0.00    +0.000 A 
ATOM      4  C   UNL     1      -6.287  -2.173 127.850  0.00  0.00    +0.000 A 
ATOM      5  O   UNL     1      -6.679  -1.484 126.726  0.00  0.00    +0.000 OA
ATOM      6  C   UNL     1      -7.953  -1.896 126.437  0.00  0.00    +0.000 A 
ATOM      7  C   UNL     1      -8.353  -2.858 127.339  0.00  0.00    +0.000 A 
ATOM      8  C   UNL     1      -7.289  -3.053 128.248  0.00  0.00    +0.000 A 
ATOM      9  C   UNL     1      -7.079  -3.898 129.361  0.00  0.00    +0.000 A 
ENDROOT
BRANCH   1  11
ATOM     10  O   UNL     1      -5.262  -5.890 131.066  0.00  0.00    +0.000 OA
ATOM     11  C   UNL     1      -5.701  -4.757 131.278  0.00  0.00    +0.000 C 
ATOM     12  N   UNL     1      -5.812  -4.188 132.615  0.00  0.00    +0.000 N 
ATOM     13  C   UNL     1      -7.069  -3.668 133.204  0.00  0.00    +0.000 C 
ATOM     14  C   UNL     1      -6.814  -2.585 134.329  0.00  0.00    +0.000 C 
ATOM     15  C   UNL     1      -5.953  -3.158 135.862  0.00  0.00    +0.000 C 
ATOM     16  C   UNL     1      -4.607  -3.684 134.816  0.00  0.00    +0.000 C 
ATOM     17  C   UNL     1      -4.950  -4.736 133.677  0.00  0.00    +0.000 C 
BRANCH  15  18
ATOM     18  N   UNL     1      -6.594  -3.359 137.610  0.00  0.00    +0.000 N 
ATOM     19  C   UNL     1      -6.174  -2.025 137.685  0.00  0.00    +0.000 C 
ATOM     20  O   UNL     1      -4.972  -1.606 137.542  0.00  0.00    +0.000 OA
ATOM     21  O   UNL     1      -7.133  -1.127 137.745  0.00  0.00    +0.000 OA
ATOM     22  C   UNL     1      -7.139  -0.986 139.121  0.00  0.00    +0.000 C 
ATOM     23  C   UNL     1      -8.204  -1.957 139.290  0.00  0.00    +0.000 A 
ATOM     24  C   UNL     1      -9.607  -1.696 139.331  0.00  0.00    +0.000 A 
ATOM     25  C   UNL     1     -10.467  -2.166 140.312  0.00  0.00    +0.000 A 
ATOM     26  C   UNL     1      -9.819  -3.043 141.118  0.00  0.00    +0.000 A 
ATOM     27  C   UNL     1      -8.426  -3.630 140.510  0.00  0.00    +0.000 A 
ATOM     28  C   UNL     1      -7.812  -3.196 139.057  0.00  0.00    +0.000 A 
ENDBRANCH  15  18
ENDBRANCH   1  11
BRANCH   6  29
ATOM     29  C   UNL     1      -8.624  -1.378 125.251  0.00  0.00    +0.000 A 
ATOM     30  C   UNL     1      -8.654  -2.103 124.061  0.00  0.00    +0.000 A 
ATOM     31  C   UNL     1      -9.009  -1.485 122.856  0.00  0.00    +0.000 A 
ATOM     32  C   UNL     1      -9.418  -0.151 122.835  0.00  0.00    +0.000 A 
ATOM     33  C   UNL     1      -9.399   0.597 124.015  0.00  0.00    +0.000 A 
ATOM     34  C   UNL     1      -9.044  -0.055 125.216  0.00  0.00    +0.000 A 
BRANCH  33  35
ATOM     35  C   UNL     1      -9.685   2.092 123.963  0.00  0.00    +0.000 C 
BRANCH  35  36
ATOM     36  N   UNL     1      -8.488   2.929 123.805  0.00  0.00    +0.000 N 
ATOM     37  C   UNL     1      -7.916   3.064 122.540  0.00  0.00    +0.000 A 
ATOM     38  C   UNL     1      -6.648   3.480 122.387  0.00  0.00    +0.000 A 
ATOM     39  C   UNL     1      -5.971   4.057 123.532  0.00  0.00    +0.000 A 
ATOM     40  C   UNL     1      -6.580   4.123 124.722  0.00  0.00    +0.000 A 
ATOM     41  C   UNL     1      -7.856   3.396 124.954  0.00  0.00    +0.000 A 
ATOM     42  O   UNL     1      -8.263   3.245 126.101  0.00  0.00    +0.000 OA
BRANCH  38  43
ATOM     43  C   UNL     1      -5.907   3.384 121.087  0.00  0.00    +0.000 C 
ATOM     44  F   UNL     1      -5.266   2.194 120.972  0.00  0.00    +0.000 F 
ATOM     45  F   UNL     1      -6.738   3.488 120.017  0.00  0.00    +0.000 F 
ATOM     46  F   UNL     1      -4.969   4.355 120.946  0.00  0.00    +0.000 F 
ENDBRANCH  38  43
ENDBRANCH  35  36
ENDBRANCH  33  35
ENDBRANCH   6  29
TORSDOF 6
ENDMDL
