MODEL 1
REMARK VINA RESULT:     -10.5      0.000      0.000
REMARK  Name = CHEMBL31941
REMARK  6 active torsions:
REMARK  status: ('A' for Active; 'I' for Inactive)
REMARK    1  A    between atoms: C_1  and  S_2
REMARK    2  A    between atoms: S_2  and  N_5
REMARK    3  A    between atoms: C_9  and  C_10
REMARK    4  A    between atoms: C_10  and  C_11
REMARK    5  A    between atoms: C_16  and  C_17
REMARK    6  A    between atoms: C_22  and  N_23
REMARK                            x       y       z     vdW  Elec       q    Type
REMARK                         _______ _______ _______ _____ _____    ______ ____
ROOT
ATOM      1  C   UNL     1      -8.397   6.268 131.663  0.00  0.00    +0.000 A 
ATOM      2  C   UNL     1      -8.771   5.656 132.832  0.00  0.00    +0.000 A 
ATOM      3  O   UNL     1      -7.698   5.442 133.618  0.00  0.00    +0.000 OA
ATOM      4  C   UNL     1      -6.614   5.932 132.958  0.00  0.00    +0.000 A 
ATOM      5  C   UNL     1      -5.311   5.898 133.439  0.00  0.00    +0.000 A 
ATOM      6  C   UNL     1      -4.320   6.483 132.637  0.00  0.00    +0.000 A 
ATOM      7  C   UNL     1      -4.665   7.036 131.391  0.00  0.00    +0.000 A 
ATOM      8  C   UNL     1      -5.993   7.072 130.935  0.00  0.00    +0.000 A 
ATOM      9  C   UNL     1      -6.987   6.481 131.740  0.00  0.00    +0.000 A 
ENDROOT
BRANCH   6  10
ATOM     10  C   UNL     1      -2.895   6.414 133.111  0.00  0.00    +0.000 C 
ATOM     11  O   UNL     1      -2.321   5.333 133.203  0.00  0.00    +0.000 OA
ATOM     12  N   UNL     1      -2.250   7.613 133.361  0.00  0.00    +0.000 N 
ATOM     13  C   UNL     1      -0.954   7.899 132.748  0.00  0.00    +0.000 C 
ATOM     14  C   UNL     1       0.110   8.186 133.791  0.00  0.00    +0.000 C 
ATOM     15  C   UNL     1      -0.354   9.277 134.780  0.00  0.00    +0.000 C 
ATOM     16  C   UNL     1      -1.693   8.872 135.410  0.00  0.00    +0.000 C 
ATOM     17  C   UNL     1      -2.748   8.538 134.372  0.00  0.00    +0.000 C 
BRANCH  15  18
ATOM     18  N   UNL     1      -0.295  10.659 134.195  0.00  0.00    +0.000 N 
ATOM     19  C   UNL     1      -1.347  11.258 133.485  0.00  0.00    +0.000 C 
ATOM     20  O   UNL     1      -2.522  11.307 133.773  0.00  0.00    +0.000 OA
ATOM     21  O   UNL     1      -0.945  11.778 132.294  0.00  0.00    +0.000 OA
ATOM     22  C   UNL     1      -0.127  12.906 132.505  0.00  0.00    +0.000 C 
ATOM     23  C   UNL     1       0.978  12.589 133.464  0.00  0.00    +0.000 A 
ATOM     24  C   UNL     1       2.068  13.457 133.546  0.00  0.00    +0.000 A 
ATOM     25  C   UNL     1       3.089  13.197 134.448  0.00  0.00    +0.000 A 
ATOM     26  C   UNL     1       3.016  12.075 135.272  0.00  0.00    +0.000 A 
ATOM     27  C   UNL     1       1.926  11.203 135.192  0.00  0.00    +0.000 A 
ATOM     28  C   UNL     1       0.894  11.446 134.283  0.00  0.00    +0.000 A 
ENDBRANCH  15  18
ENDBRANCH   6  10
BRANCH   1  29
ATOM     29  C   UNL     1      -9.282   6.729 130.593  0.00  0.00    +0.000 C 
BRANCH  29  34
ATOM     30  N   UNL     1     -11.167   6.155 129.005  0.00  0.00    +0.000 NA
ATOM     31  C   UNL     1     -12.658   6.330 129.167  0.00  0.00    +0.000 C 
ATOM     32  C   UNL     1     -12.729   7.429 130.210  0.00  0.00    +0.000 C 
ATOM     33  C   UNL     1     -11.720   6.958 131.233  0.00  0.00    +0.000 C 
ATOM     34  C   UNL     1     -10.666   6.163 130.434  0.00  0.00    +0.000 C 
BRANCH  30  36
ATOM     35  C   UNL     1     -11.783   7.364 126.414  0.00  0.00    +0.000 C 
ATOM     36  S   UNL     1     -10.555   7.077 127.693  0.00  0.00    +0.000 S 
ATOM     37  O   UNL     1      -9.534   6.276 127.046  0.00  0.00    +0.000 OA
ATOM     38  O   UNL     1     -10.215   8.375 128.237  0.00  0.00    +0.000 OA
ENDBRANCH  30  36
ENDBRANCH  29  34
ENDBRANCH   1  29
TORSDOF 5
ENDMDL
MODEL 2
REMARK VINA RESULT:     -10.1      6.568     11.669
REMARK  Name = CHEMBL31941
REMARK  6 active torsions:
REMARK  status: ('A' for Active; 'I' for Inactive)
REMARK    1  A    between atoms: C_1  and  S_2
REMARK    2  A    between atoms: S_2  and  N_5
REMARK    3  A    between atoms: C_9  and  C_10
REMARK    4  A    between atoms: C_10  and  C_11
REMARK    5  A    between atoms: C_16  and  C_17
REMARK    6  A    between atoms: C_22  and  N_23
REMARK                            x       y       z     vdW  Elec       q    Type
REMARK                         _______ _______ _______ _____ _____    ______ ____
ROOT
ATOM      1  C   UNL     1      -8.481   6.442 130.782  0.00  0.00    +0.000 A 
ATOM      2  C   UNL     1      -7.255   6.924 131.163  0.00  0.00    +0.000 A 
ATOM      3  O   UNL     1      -6.298   6.000 130.957  0.00  0.00    +0.000 OA
ATOM      4  C   UNL     1      -6.907   4.906 130.424  0.00  0.00    +0.000 A 
ATOM      5  C   UNL     1      -6.255   3.730 130.072  0.00  0.00    +0.000 A 
ATOM      6  C   UNL     1      -7.038   2.714 129.503  0.00  0.00    +0.000 A 
ATOM      7  C   UNL     1      -8.422   2.904 129.345  0.00  0.00    +0.000 A 
ATOM      8  C   UNL     1      -9.053   4.109 129.694  0.00  0.00    +0.000 A 
ATOM      9  C   UNL     1      -8.267   5.126 130.269  0.00  0.00    +0.000 A 
ENDROOT
BRANCH   6  10
ATOM     10  C   UNL     1      -6.367   1.413 129.160  0.00  0.00    +0.000 C 
ATOM     11  O   UNL     1      -5.736   0.795 130.012  0.00  0.00    +0.000 OA
ATOM     12  N   UNL     1      -6.558   0.917 127.881  0.00  0.00    +0.000 N 
ATOM     13  C   UNL     1      -7.027  -0.452 127.680  0.00  0.00    +0.000 C 
ATOM     14  C   UNL     1      -6.057  -1.261 126.840  0.00  0.00    +0.000 C 
ATOM     15  C   UNL     1      -5.713  -0.532 125.522  0.00  0.00    +0.000 C 
ATOM     16  C   UNL     1      -5.184   0.875 125.831  0.00  0.00    +0.000 C 
ATOM     17  C   UNL     1      -6.128   1.673 126.711  0.00  0.00    +0.000 C 
BRANCH  15  18
ATOM     18  N   UNL     1      -6.816  -0.611 124.506  0.00  0.00    +0.000 N 
ATOM     19  C   UNL     1      -7.178   0.444 123.655  0.00  0.00    +0.000 C 
ATOM     20  O   UNL     1      -6.462   1.159 122.990  0.00  0.00    +0.000 OA
ATOM     21  O   UNL     1      -8.515   0.693 123.670  0.00  0.00    +0.000 OA
ATOM     22  C   UNL     1      -9.215  -0.363 123.052  0.00  0.00    +0.000 C 
ATOM     23  C   UNL     1      -8.809  -1.681 123.633  0.00  0.00    +0.000 A 
ATOM     24  C   UNL     1      -9.611  -2.798 123.394  0.00  0.00    +0.000 A 
ATOM     25  C   UNL     1      -9.238  -4.034 123.900  0.00  0.00    +0.000 A 
ATOM     26  C   UNL     1      -8.061  -4.155 124.635  0.00  0.00    +0.000 A 
ATOM     27  C   UNL     1      -7.255  -3.039 124.877  0.00  0.00    +0.000 A 
ATOM     28  C   UNL     1      -7.621  -1.785 124.382  0.00  0.00    +0.000 A 
ENDBRANCH  15  18
ENDBRANCH   6  10
BRANCH   1  29
ATOM     29  C   UNL     1      -9.749   7.172 130.782  0.00  0.00    +0.000 C 
BRANCH  29  34
ATOM     30  N   UNL     1     -11.390   6.332 129.048  0.00  0.00    +0.000 NA
ATOM     31  C   UNL     1     -12.900   6.368 129.045  0.00  0.00    +0.000 C 
ATOM     32  C   UNL     1     -13.184   7.508 130.004  0.00  0.00    +0.000 C 
ATOM     33  C   UNL     1     -12.252   7.193 131.152  0.00  0.00    +0.000 C 
ATOM     34  C   UNL     1     -11.049   6.465 130.518  0.00  0.00    +0.000 C 
BRANCH  30  36
ATOM     35  C   UNL     1     -11.847   7.369 126.351  0.00  0.00    +0.000 C 
ATOM     36  S   UNL     1     -10.728   7.240 127.750  0.00  0.00    +0.000 S 
ATOM     37  O   UNL     1      -9.592   6.494 127.242  0.00  0.00    +0.000 OA
ATOM     38  O   UNL     1     -10.539   8.584 128.253  0.00  0.00    +0.000 OA
ENDBRANCH  30  36
ENDBRANCH  29  34
ENDBRANCH   1  29
TORSDOF 5
ENDMDL
MODEL 3
REMARK VINA RESULT:      -9.9      1.881      2.558
REMARK  Name = CHEMBL31941
REMARK  6 active torsions:
REMARK  status: ('A' for Active; 'I' for Inactive)
REMARK    1  A    between atoms: C_1  and  S_2
REMARK    2  A    between atoms: S_2  and  N_5
REMARK    3  A    between atoms: C_9  and  C_10
REMARK    4  A    between atoms: C_10  and  C_11
REMARK    5  A    between atoms: C_16  and  C_17
REMARK    6  A    between atoms: C_22  and  N_23
REMARK                            x       y       z     vdW  Elec       q    Type
REMARK                         _______ _______ _______ _____ _____    ______ ____
ROOT
ATOM      1  C   UNL     1      -9.465   5.523 131.105  0.00  0.00    +0.000 A 
ATOM      2  C   UNL     1      -9.590   4.159 131.152  0.00  0.00    +0.000 A 
ATOM      3  O   UNL     1      -8.379   3.571 131.115  0.00  0.00    +0.000 OA
ATOM      4  C   UNL     1      -7.453   4.566 131.056  0.00  0.00    +0.000 A 
ATOM      5  C   UNL     1      -6.078   4.367 131.000  0.00  0.00    +0.000 A 
ATOM      6  C   UNL     1      -5.269   5.512 130.977  0.00  0.00    +0.000 A 
ATOM      7  C   UNL     1      -5.862   6.787 130.976  0.00  0.00    +0.000 A 
ATOM      8  C   UNL     1      -7.254   6.961 131.050  0.00  0.00    +0.000 A 
ATOM      9  C   UNL     1      -8.065   5.810 131.068  0.00  0.00    +0.000 A 
ENDROOT
BRANCH   6  10
ATOM     10  C   UNL     1      -3.782   5.325 130.865  0.00  0.00    +0.000 C 
ATOM     11  O   UNL     1      -3.312   4.564 130.025  0.00  0.00    +0.000 OA
ATOM     12  N   UNL     1      -2.980   6.098 131.688  0.00  0.00    +0.000 N 
ATOM     13  C   UNL     1      -1.890   6.892 131.127  0.00  0.00    +0.000 C 
ATOM     14  C   UNL     1      -0.552   6.523 131.739  0.00  0.00    +0.000 C 
ATOM     15  C   UNL     1      -0.610   6.565 133.282  0.00  0.00    +0.000 C 
ATOM     16  C   UNL     1      -1.748   5.667 133.784  0.00  0.00    +0.000 C 
ATOM     17  C   UNL     1      -3.081   6.001 133.140  0.00  0.00    +0.000 C 
BRANCH  15  18
ATOM     18  N   UNL     1      -0.586   7.964 133.829  0.00  0.00    +0.000 N 
ATOM     19  C   UNL     1      -1.393   9.008 133.352  0.00  0.00    +0.000 C 
ATOM     20  O   UNL     1      -2.580   8.998 133.115  0.00  0.00    +0.000 OA
ATOM     21  O   UNL     1      -0.682  10.134 133.075  0.00  0.00    +0.000 OA
ATOM     22  C   UNL     1      -0.212  10.721 134.267  0.00  0.00    +0.000 C 
ATOM     23  C   UNL     1       0.501   9.711 135.110  0.00  0.00    +0.000 A 
ATOM     24  C   UNL     1       1.313  10.159 136.155  0.00  0.00    +0.000 A 
ATOM     25  C   UNL     1       1.960   9.240 136.966  0.00  0.00    +0.000 A 
ATOM     26  C   UNL     1       1.792   7.875 136.739  0.00  0.00    +0.000 A 
ATOM     27  C   UNL     1       0.980   7.423 135.694  0.00  0.00    +0.000 A 
ATOM     28  C   UNL     1       0.328   8.336 134.862  0.00  0.00    +0.000 A 
ENDBRANCH  15  18
ENDBRANCH   6  10
BRANCH   1  29
ATOM     29  C   UNL     1     -10.544   6.507 131.200  0.00  0.00    +0.000 C 
BRANCH  29  34
ATOM     30  N   UNL     1     -11.720   6.364 128.963  0.00  0.00    +0.000 NA
ATOM     31  C   UNL     1     -13.059   6.917 128.535  0.00  0.00    +0.000 C 
ATOM     32  C   UNL     1     -13.264   8.039 129.535  0.00  0.00    +0.000 C 
ATOM     33  C   UNL     1     -12.895   7.370 130.840  0.00  0.00    +0.000 C 
ATOM     34  C   UNL     1     -11.843   6.303 130.472  0.00  0.00    +0.000 C 
BRANCH  30  36
ATOM     35  C   UNL     1     -10.959   7.690 126.470  0.00  0.00    +0.000 C 
ATOM     36  S   UNL     1     -10.429   7.048 128.061  0.00  0.00    +0.000 S 
ATOM     37  O   UNL     1      -9.516   5.970 127.735  0.00  0.00    +0.000 OA
ATOM     38  O   UNL     1      -9.959   8.183 128.828  0.00  0.00    +0.000 OA
ENDBRANCH  30  36
ENDBRANCH  29  34
ENDBRANCH   1  29
TORSDOF 5
ENDMDL
MODEL 4
REMARK VINA RESULT:      -9.6      7.574     11.518
REMARK  Name = CHEMBL31941
REMARK  6 active torsions:
REMARK  status: ('A' for Active; 'I' for Inactive)
REMARK    1  A    between atoms: C_1  and  S_2
REMARK    2  A    between atoms: S_2  and  N_5
REMARK    3  A    between atoms: C_9  and  C_10
REMARK    4  A    between atoms: C_10  and  C_11
REMARK    5  A    between atoms: C_16  and  C_17
REMARK    6  A    between atoms: C_22  and  N_23
REMARK                            x       y       z     vdW  Elec       q    Type
REMARK                         _______ _______ _______ _____ _____    ______ ____
ROOT
ATOM      1  C   UNL     1      -9.379   5.454 131.813  0.00  0.00    +0.000 A 
ATOM      2  C   UNL     1      -8.774   5.589 133.036  0.00  0.00    +0.000 A 
ATOM      3  O   UNL     1      -8.108   4.464 133.361  0.00  0.00    +0.000 OA
ATOM      4  C   UNL     1      -8.273   3.590 132.331  0.00  0.00    +0.000 A 
ATOM      5  C   UNL     1      -7.740   2.307 132.287  0.00  0.00    +0.000 A 
ATOM      6  C   UNL     1      -7.983   1.556 131.129  0.00  0.00    +0.000 A 
ATOM      7  C   UNL     1      -8.767   2.098 130.095  0.00  0.00    +0.000 A 
ATOM      8  C   UNL     1      -9.280   3.404 130.157  0.00  0.00    +0.000 A 
ATOM      9  C   UNL     1      -9.038   4.156 131.323  0.00  0.00    +0.000 A 
ENDROOT
BRANCH   6  10
ATOM     10  C   UNL     1      -7.461   0.147 131.078  0.00  0.00    +0.000 C 
ATOM     11  O   UNL     1      -7.079  -0.413 132.101  0.00  0.00    +0.000 OA
ATOM     12  N   UNL     1      -7.503  -0.503 129.856  0.00  0.00    +0.000 N 
ATOM     13  C   UNL     1      -8.126  -1.820 129.738  0.00  0.00    +0.000 C 
ATOM     14  C   UNL     1      -7.156  -2.854 129.198  0.00  0.00    +0.000 C 
ATOM     15  C   UNL     1      -6.492  -2.371 127.889  0.00  0.00    +0.000 C 
ATOM     16  C   UNL     1      -5.824  -1.009 128.118  0.00  0.00    +0.000 C 
ATOM     17  C   UNL     1      -6.777   0.017 128.703  0.00  0.00    +0.000 C 
BRANCH  15  18
ATOM     18  N   UNL     1      -7.407  -2.462 126.702  0.00  0.00    +0.000 N 
ATOM     19  C   UNL     1      -8.430  -3.413 126.569  0.00  0.00    +0.000 C 
ATOM     20  O   UNL     1      -9.264  -3.745 127.381  0.00  0.00    +0.000 OA
ATOM     21  O   UNL     1      -8.388  -4.063 125.374  0.00  0.00    +0.000 OA
ATOM     22  C   UNL     1      -8.741  -3.185 124.329  0.00  0.00    +0.000 C 
ATOM     23  C   UNL     1      -7.933  -1.928 124.396  0.00  0.00    +0.000 A 
ATOM     24  C   UNL     1      -7.896  -1.090 123.279  0.00  0.00    +0.000 A 
ATOM     25  C   UNL     1      -7.176   0.093 123.330  0.00  0.00    +0.000 A 
ATOM     26  C   UNL     1      -6.500   0.443 124.497  0.00  0.00    +0.000 A 
ATOM     27  C   UNL     1      -6.533  -0.393 125.617  0.00  0.00    +0.000 A 
ATOM     28  C   UNL     1      -7.247  -1.593 125.579  0.00  0.00    +0.000 A 
ENDBRANCH  15  18
ENDBRANCH   6  10
BRANCH   1  29
ATOM     29  C   UNL     1     -10.127   6.481 131.087  0.00  0.00    +0.000 C 
BRANCH  29  34
ATOM     30  N   UNL     1     -11.550   6.276 129.004  0.00  0.00    +0.000 NA
ATOM     31  C   UNL     1     -12.967   6.733 128.750  0.00  0.00    +0.000 C 
ATOM     32  C   UNL     1     -13.131   7.826 129.788  0.00  0.00    +0.000 C 
ATOM     33  C   UNL     1     -12.560   7.172 131.027  0.00  0.00    +0.000 C 
ATOM     34  C   UNL     1     -11.486   6.190 130.515  0.00  0.00    +0.000 C 
BRANCH  30  36
ATOM     35  C   UNL     1     -11.159   7.552 126.402  0.00  0.00    +0.000 C 
ATOM     36  S   UNL     1     -10.430   7.063 127.969  0.00  0.00    +0.000 S 
ATOM     37  O   UNL     1      -9.418   6.088 127.612  0.00  0.00    +0.000 OA
ATOM     38  O   UNL     1     -10.046   8.285 128.644  0.00  0.00    +0.000 OA
ENDBRANCH  30  36
ENDBRANCH  29  34
ENDBRANCH   1  29
TORSDOF 5
ENDMDL
MODEL 5
REMARK VINA RESULT:      -9.4      6.957      9.793
REMARK  Name = CHEMBL31941
REMARK  6 active torsions:
REMARK  status: ('A' for Active; 'I' for Inactive)
REMARK    1  A    between atoms: C_1  and  S_2
REMARK    2  A    between atoms: S_2  and  N_5
REMARK    3  A    between atoms: C_9  and  C_10
REMARK    4  A    between atoms: C_10  and  C_11
REMARK    5  A    between atoms: C_16  and  C_17
REMARK    6  A    between atoms: C_22  and  N_23
REMARK                            x       y       z     vdW  Elec       q    Type
REMARK                         _______ _______ _______ _____ _____    ______ ____
ROOT
ATOM      1  C   UNL     1     -10.233   5.039 131.137  0.00  0.00    +0.000 A 
ATOM      2  C   UNL     1     -10.761   3.845 130.719  0.00  0.00    +0.000 A 
ATOM      3  O   UNL     1     -10.083   2.813 131.258  0.00  0.00    +0.000 OA
ATOM      4  C   UNL     1      -9.109   3.342 132.046  0.00  0.00    +0.000 A 
ATOM      5  C   UNL     1      -8.190   2.599 132.777  0.00  0.00    +0.000 A 
ATOM      6  C   UNL     1      -7.275   3.313 133.564  0.00  0.00    +0.000 A 
ATOM      7  C   UNL     1      -7.296   4.719 133.559  0.00  0.00    +0.000 A 
ATOM      8  C   UNL     1      -8.247   5.446 132.824  0.00  0.00    +0.000 A 
ATOM      9  C   UNL     1      -9.162   4.728 132.031  0.00  0.00    +0.000 A 
ENDROOT
BRANCH   6  10
ATOM     10  C   UNL     1      -6.238   2.534 134.324  0.00  0.00    +0.000 C 
ATOM     11  O   UNL     1      -5.908   2.876 135.456  0.00  0.00    +0.000 OA
ATOM     12  N   UNL     1      -5.739   1.388 133.727  0.00  0.00    +0.000 N 
ATOM     13  C   UNL     1      -5.741   0.117 134.447  0.00  0.00    +0.000 C 
ATOM     14  C   UNL     1      -4.345  -0.464 134.565  0.00  0.00    +0.000 C 
ATOM     15  C   UNL     1      -3.650  -0.541 133.188  0.00  0.00    +0.000 C 
ATOM     16  C   UNL     1      -3.651   0.844 132.528  0.00  0.00    +0.000 C 
ATOM     17  C   UNL     1      -5.039   1.452 132.449  0.00  0.00    +0.000 C 
BRANCH  15  18
ATOM     18  N   UNL     1      -4.158  -1.673 132.340  0.00  0.00    +0.000 N 
ATOM     19  C   UNL     1      -4.647  -1.519 131.034  0.00  0.00    +0.000 C 
ATOM     20  O   UNL     1      -4.165  -0.896 130.115  0.00  0.00    +0.000 OA
ATOM     21  O   UNL     1      -5.857  -2.115 130.855  0.00  0.00    +0.000 OA
ATOM     22  C   UNL     1      -5.721  -3.517 130.895  0.00  0.00    +0.000 C 
ATOM     23  C   UNL     1      -4.980  -3.943 132.123  0.00  0.00    +0.000 A 
ATOM     24  C   UNL     1      -5.030  -5.284 132.509  0.00  0.00    +0.000 A 
ATOM     25  C   UNL     1      -4.327  -5.706 133.628  0.00  0.00    +0.000 A 
ATOM     26  C   UNL     1      -3.569  -4.791 134.355  0.00  0.00    +0.000 A 
ATOM     27  C   UNL     1      -3.516  -3.447 133.972  0.00  0.00    +0.000 A 
ATOM     28  C   UNL     1      -4.225  -3.005 132.853  0.00  0.00    +0.000 A 
ENDBRANCH  15  18
ENDBRANCH   6  10
BRANCH   1  29
ATOM     29  C   UNL     1     -10.738   6.377 130.830  0.00  0.00    +0.000 C 
BRANCH  29  34
ATOM     30  N   UNL     1     -11.960   6.795 128.653  0.00  0.00    +0.000 NA
ATOM     31  C   UNL     1     -13.146   7.684 128.363  0.00  0.00    +0.000 C 
ATOM     32  C   UNL     1     -13.070   8.683 129.502  0.00  0.00    +0.000 C 
ATOM     33  C   UNL     1     -12.838   7.783 130.695  0.00  0.00    +0.000 C 
ATOM     34  C   UNL     1     -12.064   6.566 130.147  0.00  0.00    +0.000 C 
BRANCH  30  36
ATOM     35  C   UNL     1     -10.940   7.776 126.093  0.00  0.00    +0.000 C 
ATOM     36  S   UNL     1     -10.566   7.286 127.780  0.00  0.00    +0.000 S 
ATOM     37  O   UNL     1      -9.715   6.119 127.642  0.00  0.00    +0.000 OA
ATOM     38  O   UNL     1     -10.065   8.466 128.452  0.00  0.00    +0.000 OA
ENDBRANCH  30  36
ENDBRANCH  29  34
ENDBRANCH   1  29
TORSDOF 5
ENDMDL
MODEL 6
REMARK VINA RESULT:      -9.4      6.873      9.667
REMARK  Name = CHEMBL31941
REMARK  6 active torsions:
REMARK  status: ('A' for Active; 'I' for Inactive)
REMARK    1  A    between atoms: C_1  and  S_2
REMARK    2  A    between atoms: S_2  and  N_5
REMARK    3  A    between atoms: C_9  and  C_10
REMARK    4  A    between atoms: C_10  and  C_11
REMARK    5  A    between atoms: C_16  and  C_17
REMARK    6  A    between atoms: C_22  and  N_23
REMARK                            x       y       z     vdW  Elec       q    Type
REMARK                         _______ _______ _______ _____ _____    ______ ____
ROOT
ATOM      1  C   UNL     1      -8.327  -2.892 127.063  0.00  0.00    +0.000 A 
ATOM      2  C   UNL     1      -8.836  -3.966 127.747  0.00  0.00    +0.000 A 
ATOM      3  O   UNL     1      -8.777  -3.752 129.075  0.00  0.00    +0.000 OA
ATOM      4  C   UNL     1      -8.234  -2.517 129.258  0.00  0.00    +0.000 A 
ATOM      5  C   UNL     1      -8.003  -1.929 130.495  0.00  0.00    +0.000 A 
ATOM      6  C   UNL     1      -7.466  -0.633 130.494  0.00  0.00    +0.000 A 
ATOM      7  C   UNL     1      -7.157  -0.006 129.275  0.00  0.00    +0.000 A 
ATOM      8  C   UNL     1      -7.416  -0.617 128.036  0.00  0.00    +0.000 A 
ATOM      9  C   UNL     1      -7.951  -1.920 128.040  0.00  0.00    +0.000 A 
ENDROOT
BRANCH   6  10
ATOM     10  C   UNL     1      -7.159   0.005 131.820  0.00  0.00    +0.000 C 
ATOM     11  O   UNL     1      -6.610  -0.638 132.709  0.00  0.00    +0.000 OA
ATOM     12  N   UNL     1      -7.450   1.352 131.959  0.00  0.00    +0.000 N 
ATOM     13  C   UNL     1      -6.429   2.286 132.431  0.00  0.00    +0.000 C 
ATOM     14  C   UNL     1      -6.874   3.019 133.682  0.00  0.00    +0.000 C 
ATOM     15  C   UNL     1      -8.260   3.673 133.487  0.00  0.00    +0.000 C 
ATOM     16  C   UNL     1      -9.276   2.614 133.041  0.00  0.00    +0.000 C 
ATOM     17  C   UNL     1      -8.815   1.844 131.817  0.00  0.00    +0.000 C 
BRANCH  15  18
ATOM     18  N   UNL     1      -8.204   4.922 132.654  0.00  0.00    +0.000 N 
ATOM     19  C   UNL     1      -9.328   5.537 132.084  0.00  0.00    +0.000 C 
ATOM     20  O   UNL     1     -10.393   5.792 132.598  0.00  0.00    +0.000 OA
ATOM     21  O   UNL     1      -9.164   5.800 130.759  0.00  0.00    +0.000 OA
ATOM     22  C   UNL     1      -8.213   6.825 130.578  0.00  0.00    +0.000 C 
ATOM     23  C   UNL     1      -6.953   6.517 131.324  0.00  0.00    +0.000 A 
ATOM     24  C   UNL     1      -5.794   7.230 131.011  0.00  0.00    +0.000 A 
ATOM     25  C   UNL     1      -4.623   6.981 131.709  0.00  0.00    +0.000 A 
ATOM     26  C   UNL     1      -4.611   6.026 132.724  0.00  0.00    +0.000 A 
ATOM     27  C   UNL     1      -5.769   5.310 133.041  0.00  0.00    +0.000 A 
ATOM     28  C   UNL     1      -6.955   5.543 132.341  0.00  0.00    +0.000 A 
ENDBRANCH  15  18
ENDBRANCH   6  10
BRANCH   1  29
ATOM     29  C   UNL     1      -8.287  -2.716 125.611  0.00  0.00    +0.000 C 
BRANCH  29  34
ATOM     30  N   UNL     1      -7.593  -0.611 124.390  0.00  0.00    +0.000 NA
ATOM     31  C   UNL     1      -6.672  -0.436 123.205  0.00  0.00    +0.000 C 
ATOM     32  C   UNL     1      -6.722  -1.812 122.569  0.00  0.00    +0.000 C 
ATOM     33  C   UNL     1      -6.554  -2.720 123.767  0.00  0.00    +0.000 C 
ATOM     34  C   UNL     1      -7.171  -1.952 124.954  0.00  0.00    +0.000 C 
BRANCH  30  36
ATOM     35  C   UNL     1      -9.242   1.484 123.187  0.00  0.00    +0.000 C 
ATOM     36  S   UNL     1      -9.193  -0.099 124.035  0.00  0.00    +0.000 S 
ATOM     37  O   UNL     1      -9.855   0.145 125.302  0.00  0.00    +0.000 OA
ATOM     38  O   UNL     1      -9.734  -1.077 123.116  0.00  0.00    +0.000 OA
ENDBRANCH  30  36
ENDBRANCH  29  34
ENDBRANCH   1  29
TORSDOF 5
ENDMDL
MODEL 7
REMARK VINA RESULT:      -9.3      7.264     10.731
REMARK  Name = CHEMBL31941
REMARK  6 active torsions:
REMARK  status: ('A' for Active; 'I' for Inactive)
REMARK    1  A    between atoms: C_1  and  S_2
REMARK    2  A    between atoms: S_2  and  N_5
REMARK    3  A    between atoms: C_9  and  C_10
REMARK    4  A    between atoms: C_10  and  C_11
REMARK    5  A    between atoms: C_16  and  C_17
REMARK    6  A    between atoms: C_22  and  N_23
REMARK                            x       y       z     vdW  Elec       q    Type
REMARK                         _______ _______ _______ _____ _____    ______ ____
ROOT
ATOM      1  C   UNL     1      -7.133  -2.194 127.860  0.00  0.00    +0.000 A 
ATOM      2  C   UNL     1      -7.278  -2.952 128.993  0.00  0.00    +0.000 A 
ATOM      3  O   UNL     1      -7.291  -2.169 130.089  0.00  0.00    +0.000 OA
ATOM      4  C   UNL     1      -7.166  -0.883 129.663  0.00  0.00    +0.000 A 
ATOM      5  C   UNL     1      -7.133   0.228 130.497  0.00  0.00    +0.000 A 
ATOM      6  C   UNL     1      -7.032   1.484 129.881  0.00  0.00    +0.000 A 
ATOM      7  C   UNL     1      -6.936   1.570 128.481  0.00  0.00    +0.000 A 
ATOM      8  C   UNL     1      -6.988   0.432 127.659  0.00  0.00    +0.000 A 
ATOM      9  C   UNL     1      -7.085  -0.829 128.280  0.00  0.00    +0.000 A 
ENDROOT
BRANCH   6  10
ATOM     10  C   UNL     1      -6.943   2.698 130.763  0.00  0.00    +0.000 C 
ATOM     11  O   UNL     1      -6.060   2.789 131.609  0.00  0.00    +0.000 OA
ATOM     12  N   UNL     1      -7.843   3.724 130.524  0.00  0.00    +0.000 N 
ATOM     13  C   UNL     1      -7.371   5.094 130.332  0.00  0.00    +0.000 C 
ATOM     14  C   UNL     1      -7.986   6.047 131.339  0.00  0.00    +0.000 C 
ATOM     15  C   UNL     1      -9.526   5.927 131.358  0.00  0.00    +0.000 C 
ATOM     16  C   UNL     1      -9.929   4.469 131.613  0.00  0.00    +0.000 C 
ATOM     17  C   UNL     1      -9.280   3.504 130.638  0.00  0.00    +0.000 C 
BRANCH  15  18
ATOM     18  N   UNL     1     -10.178   6.592 130.179  0.00  0.00    +0.000 N 
ATOM     19  C   UNL     1      -9.745   6.442 128.853  0.00  0.00    +0.000 C 
ATOM     20  O   UNL     1      -9.454   5.426 128.263  0.00  0.00    +0.000 OA
ATOM     21  O   UNL     1      -9.586   7.634 128.217  0.00  0.00    +0.000 OA
ATOM     22  C   UNL     1     -10.840   8.238 127.992  0.00  0.00    +0.000 C 
ATOM     23  C   UNL     1     -11.636   8.295 129.257  0.00  0.00    +0.000 A 
ATOM     24  C   UNL     1     -12.748   9.138 129.316  0.00  0.00    +0.000 A 
ATOM     25  C   UNL     1     -13.516   9.186 130.470  0.00  0.00    +0.000 A 
ATOM     26  C   UNL     1     -13.178   8.386 131.560  0.00  0.00    +0.000 A 
ATOM     27  C   UNL     1     -12.065   7.541 131.505  0.00  0.00    +0.000 A 
ATOM     28  C   UNL     1     -11.277   7.488 130.354  0.00  0.00    +0.000 A 
ENDBRANCH  15  18
ENDBRANCH   6  10
BRANCH   1  29
ATOM     29  C   UNL     1      -7.150  -2.670 126.477  0.00  0.00    +0.000 C 
BRANCH  29  34
ATOM     30  N   UNL     1      -7.211  -1.250 124.384  0.00  0.00    +0.000 NA
ATOM     31  C   UNL     1      -6.381  -1.342 123.125  0.00  0.00    +0.000 C 
ATOM     32  C   UNL     1      -5.928  -2.789 123.159  0.00  0.00    +0.000 C 
ATOM     33  C   UNL     1      -5.481  -2.945 124.595  0.00  0.00    +0.000 C 
ATOM     34  C   UNL     1      -6.359  -1.970 125.407  0.00  0.00    +0.000 C 
BRANCH  30  36
ATOM     35  C   UNL     1      -9.300  -3.245 123.923  0.00  0.00    +0.000 C 
ATOM     36  S   UNL     1      -8.880  -1.505 124.068  0.00  0.00    +0.000 S 
ATOM     37  O   UNL     1      -9.156  -0.952 122.756  0.00  0.00    +0.000 OA
ATOM     38  O   UNL     1      -9.590  -1.003 125.225  0.00  0.00    +0.000 OA
ENDBRANCH  30  36
ENDBRANCH  29  34
ENDBRANCH   1  29
TORSDOF 5
ENDMDL
MODEL 8
REMARK VINA RESULT:      -9.2      7.098      8.926
REMARK  Name = CHEMBL31941
REMARK  6 active torsions:
REMARK  status: ('A' for Active; 'I' for Inactive)
REMARK    1  A    between atoms: C_1  and  S_2
REMARK    2  A    between atoms: S_2  and  N_5
REMARK    3  A    between atoms: C_9  and  C_10
REMARK    4  A    between atoms: C_10  and  C_11
REMARK    5  A    between atoms: C_16  and  C_17
REMARK    6  A    between atoms: C_22  and  N_23
REMARK                            x       y       z     vdW  Elec       q    Type
REMARK                         _______ _______ _______ _____ _____    ______ ____
ROOT
ATOM      1  C   UNL     1      -8.076  -2.978 127.072  0.00  0.00    +0.000 A 
ATOM      2  C   UNL     1      -8.870  -3.791 127.839  0.00  0.00    +0.000 A 
ATOM      3  O   UNL     1      -8.774  -3.456 129.140  0.00  0.00    +0.000 OA
ATOM      4  C   UNL     1      -7.916  -2.403 129.219  0.00  0.00    +0.000 A 
ATOM      5  C   UNL     1      -7.550  -1.767 130.399  0.00  0.00    +0.000 A 
ATOM      6  C   UNL     1      -6.678  -0.674 130.290  0.00  0.00    +0.000 A 
ATOM      7  C   UNL     1      -6.190  -0.293 129.027  0.00  0.00    +0.000 A 
ATOM      8  C   UNL     1      -6.589  -0.942 127.848  0.00  0.00    +0.000 A 
ATOM      9  C   UNL     1      -7.461  -2.043 127.960  0.00  0.00    +0.000 A 
ENDROOT
BRANCH   6  10
ATOM     10  C   UNL     1      -6.226  -0.000 131.556  0.00  0.00    +0.000 C 
ATOM     11  O   UNL     1      -6.167  -0.629 132.608  0.00  0.00    +0.000 OA
ATOM     12  N   UNL     1      -5.813   1.319 131.462  0.00  0.00    +0.000 N 
ATOM     13  C   UNL     1      -4.516   1.729 131.993  0.00  0.00    +0.000 C 
ATOM     14  C   UNL     1      -4.655   2.825 133.032  0.00  0.00    +0.000 C 
ATOM     15  C   UNL     1      -5.497   4.003 132.495  0.00  0.00    +0.000 C 
ATOM     16  C   UNL     1      -6.857   3.489 132.005  0.00  0.00    +0.000 C 
ATOM     17  C   UNL     1      -6.725   2.359 131.001  0.00  0.00    +0.000 C 
BRANCH  15  18
ATOM     18  N   UNL     1      -4.738   4.873 131.533  0.00  0.00    +0.000 N 
ATOM     19  C   UNL     1      -5.234   5.288 130.288  0.00  0.00    +0.000 C 
ATOM     20  O   UNL     1      -6.322   5.748 130.024  0.00  0.00    +0.000 OA
ATOM     21  O   UNL     1      -4.359   5.056 129.273  0.00  0.00    +0.000 OA
ATOM     22  C   UNL     1      -3.246   5.914 129.384  0.00  0.00    +0.000 C 
ATOM     23  C   UNL     1      -2.656   5.844 130.757  0.00  0.00    +0.000 A 
ATOM     24  C   UNL     1      -1.374   6.355 130.967  0.00  0.00    +0.000 A 
ATOM     25  C   UNL     1      -0.821   6.326 132.238  0.00  0.00    +0.000 A 
ATOM     26  C   UNL     1      -1.550   5.793 133.299  0.00  0.00    +0.000 A 
ATOM     27  C   UNL     1      -2.834   5.280 133.093  0.00  0.00    +0.000 A 
ATOM     28  C   UNL     1      -3.403   5.294 131.818  0.00  0.00    +0.000 A 
ENDBRANCH  15  18
ENDBRANCH   6  10
BRANCH   1  29
ATOM     29  C   UNL     1      -7.968  -2.981 125.613  0.00  0.00    +0.000 C 
BRANCH  29  34
ATOM     30  N   UNL     1      -7.531  -0.827 124.359  0.00  0.00    +0.000 NA
ATOM     31  C   UNL     1      -6.680  -0.571 123.138  0.00  0.00    +0.000 C 
ATOM     32  C   UNL     1      -6.621  -1.950 122.508  0.00  0.00    +0.000 C 
ATOM     33  C   UNL     1      -6.318  -2.828 123.701  0.00  0.00    +0.000 C 
ATOM     34  C   UNL     1      -6.959  -2.116 124.910  0.00  0.00    +0.000 C 
BRANCH  30  36
ATOM     35  C   UNL     1      -9.417   1.018 123.095  0.00  0.00    +0.000 C 
ATOM     36  S   UNL     1      -9.186  -0.475 124.067  0.00  0.00    +0.000 S 
ATOM     37  O   UNL     1      -9.792  -0.172 125.350  0.00  0.00    +0.000 OA
ATOM     38  O   UNL     1      -9.696  -1.570 123.270  0.00  0.00    +0.000 OA
ENDBRANCH  30  36
ENDBRANCH  29  34
ENDBRANCH   1  29
TORSDOF 5
ENDMDL
MODEL 9
REMARK VINA RESULT:      -9.2      3.150     10.797
REMARK  Name = CHEMBL31941
REMARK  6 active torsions:
REMARK  status: ('A' for Active; 'I' for Inactive)
REMARK    1  A    between atoms: C_1  and  S_2
REMARK    2  A    between atoms: S_2  and  N_5
REMARK    3  A    between atoms: C_9  and  C_10
REMARK    4  A    between atoms: C_10  and  C_11
REMARK    5  A    between atoms: C_16  and  C_17
REMARK    6  A    between atoms: C_22  and  N_23
REMARK                            x       y       z     vdW  Elec       q    Type
REMARK                         _______ _______ _______ _____ _____    ______ ____
ROOT
ATOM      1  C   UNL     1      -2.254   8.695 134.237  0.00  0.00    +0.000 A 
ATOM      2  C   UNL     1      -2.559   8.441 135.549  0.00  0.00    +0.000 A 
ATOM      3  O   UNL     1      -3.469   7.452 135.640  0.00  0.00    +0.000 OA
ATOM      4  C   UNL     1      -3.751   7.050 134.371  0.00  0.00    +0.000 A 
ATOM      5  C   UNL     1      -4.652   6.045 134.040  0.00  0.00    +0.000 A 
ATOM      6  C   UNL     1      -4.793   5.739 132.679  0.00  0.00    +0.000 A 
ATOM      7  C   UNL     1      -4.063   6.463 131.720  0.00  0.00    +0.000 A 
ATOM      8  C   UNL     1      -3.145   7.463 132.083  0.00  0.00    +0.000 A 
ATOM      9  C   UNL     1      -3.009   7.772 133.450  0.00  0.00    +0.000 A 
ENDROOT
BRANCH   6  10
ATOM     10  C   UNL     1      -5.799   4.691 132.291  0.00  0.00    +0.000 C 
ATOM     11  O   UNL     1      -5.532   3.499 132.404  0.00  0.00    +0.000 OA
ATOM     12  N   UNL     1      -7.047   5.130 131.881  0.00  0.00    +0.000 N 
ATOM     13  C   UNL     1      -8.260   4.599 132.501  0.00  0.00    +0.000 C 
ATOM     14  C   UNL     1      -9.181   3.963 131.478  0.00  0.00    +0.000 C 
ATOM     15  C   UNL     1      -9.465   4.925 130.303  0.00  0.00    +0.000 C 
ATOM     16  C   UNL     1      -8.141   5.392 129.684  0.00  0.00    +0.000 C 
ATOM     17  C   UNL     1      -7.195   5.986 130.710  0.00  0.00    +0.000 C 
BRANCH  15  18
ATOM     18  N   UNL     1     -10.443   6.008 130.658  0.00  0.00    +0.000 N 
ATOM     19  C   UNL     1     -10.860   6.292 131.967  0.00  0.00    +0.000 C 
ATOM     20  O   UNL     1     -10.187   6.414 132.966  0.00  0.00    +0.000 OA
ATOM     21  O   UNL     1     -12.214   6.361 132.081  0.00  0.00    +0.000 OA
ATOM     22  C   UNL     1     -12.701   7.509 131.421  0.00  0.00    +0.000 C 
ATOM     23  C   UNL     1     -12.177   7.578 130.021  0.00  0.00    +0.000 A 
ATOM     24  C   UNL     1     -12.793   8.443 129.114  0.00  0.00    +0.000 A 
ATOM     25  C   UNL     1     -12.306   8.543 127.820  0.00  0.00    +0.000 A 
ATOM     26  C   UNL     1     -11.200   7.787 127.435  0.00  0.00    +0.000 A 
ATOM     27  C   UNL     1     -10.581   6.920 128.340  0.00  0.00    +0.000 A 
ATOM     28  C   UNL     1     -11.065   6.801 129.645  0.00  0.00    +0.000 A 
ENDBRANCH  15  18
ENDBRANCH   6  10
BRANCH   1  29
ATOM     29  C   UNL     1      -1.257   9.642 133.736  0.00  0.00    +0.000 C 
BRANCH  29  34
ATOM     30  N   UNL     1      -0.527  11.802 132.637  0.00  0.00    +0.000 NA
ATOM     31  C   UNL     1      -1.198  13.155 132.618  0.00  0.00    +0.000 C 
ATOM     32  C   UNL     1      -2.075  13.082 133.853  0.00  0.00    +0.000 C 
ATOM     33  C   UNL     1      -2.707  11.716 133.711  0.00  0.00    +0.000 C 
ATOM     34  C   UNL     1      -1.669  10.860 132.956  0.00  0.00    +0.000 C 
BRANCH  30  36
ATOM     35  C   UNL     1       1.715  13.511 133.416  0.00  0.00    +0.000 C 
ATOM     36  S   UNL     1       1.006  11.861 133.408  0.00  0.00    +0.000 S 
ATOM     37  O   UNL     1       1.921  11.075 132.602  0.00  0.00    +0.000 OA
ATOM     38  O   UNL     1       0.776  11.503 134.791  0.00  0.00    +0.000 OA
ENDBRANCH  30  36
ENDBRANCH  29  34
ENDBRANCH   1  29
TORSDOF 5
ENDMDL
