MODEL 1
REMARK VINA RESULT:      -8.4      0.000      0.000
REMARK  Name = CHEMBL197822
REMARK  14 active torsions:
REMARK  status: ('A' for Active; 'I' for Inactive)
REMARK    1  A    between atoms: C_1  and  O_2
REMARK    2  A    between atoms: O_2  and  C_3
REMARK    3  A    between atoms: C_6  and  C_7
REMARK    4  A    between atoms: C_7  and  C_8
REMARK    5  A    between atoms: C_7  and  N_15
REMARK    6  A    between atoms: N_10  and  C_11
REMARK    7  A    between atoms: C_11  and  C_12
REMARK    8  A    between atoms: C_11  and  C_13
REMARK    9  A    between atoms: C_11  and  C_14
REMARK   10  A    between atoms: C_18  and  C_19
REMARK   11  A    between atoms: CA_31  and  CB_32
REMARK   12  A    between atoms: CB_32  and  CG_33
REMARK   13  A    between atoms: CG_33  and  CD1_34
REMARK   14  A    between atoms: CG_33  and  CD2_35
REMARK                            x       y       z     vdW  Elec       q    Type
REMARK                         _______ _______ _______ _____ _____    ______ ____
ROOT
ATOM      1  N   LEU A   1      -7.502   2.420 129.103  0.00  0.00    +0.000 N 
ATOM      2  C   UNK A   2      -7.262   1.781 127.888  0.00  0.00    +0.000 C 
ATOM      3  O   UNK A   2      -6.759   2.417 127.002  0.00  0.00    +0.000 OA
ATOM      4  C   UNK A   2      -7.801   0.271 127.754  0.00  0.00    +0.000 C 
ATOM      5  N   UNK A   2      -7.257  -0.409 128.902  0.00  0.00    +0.000 N 
ATOM      6  C   LEU A   1      -7.280   0.158 130.129  0.00  0.00    +0.000 C 
ATOM      7  O   LEU A   1      -6.837  -0.522 131.060  0.00  0.00    +0.000 OA
ATOM      8  CA  LEU A   1      -7.917   1.577 130.240  0.00  0.00    +0.000 C 
ATOM      9  H   UNK A   2      -6.826  -1.326 128.879  0.00  0.00    +0.000 HD
ENDROOT
BRANCH   4  10
ATOM     10  C   UNK A   2      -7.259  -0.339 126.464  0.00  0.00    +0.000 C 
ATOM     11  C   UNK A   2      -7.471  -1.800 126.454  0.00  0.00    +0.000 C 
ATOM     12  C   UNK A   2      -6.925  -2.028 125.070  0.00  0.00    +0.000 A 
ATOM     13  C   UNK A   2      -6.924  -1.290 123.834  0.00  0.00    +0.000 A 
ATOM     14  C   UNK A   2      -6.153  -1.756 122.768  0.00  0.00    +0.000 A 
ATOM     15  C   UNK A   2      -5.499  -2.909 123.038  0.00  0.00    +0.000 A 
ATOM     16  C   UNK A   2      -5.265  -3.092 124.417  0.00  0.00    +0.000 A 
ATOM     17  C   UNK A   2      -5.645  -2.161 125.401  0.00  0.00    +0.000 A 
ATOM     18  C   UNK A   2      -5.668  -0.522 126.010  0.00  0.00    +0.000 C 
ENDBRANCH   4  10
BRANCH   1  19
ATOM     19  C   UNK A   0      -7.402   3.951 129.102  0.00  0.00    +0.000 C 
BRANCH  19  23
ATOM     20  C   UNK A   0     -10.266   6.168 131.459  0.00  0.00    +0.000 A 
ATOM     21  C   UNK A   0     -10.691   5.195 130.563  0.00  0.00    +0.000 A 
ATOM     22  C   UNK A   0      -9.756   4.373 129.949  0.00  0.00    +0.000 A 
ATOM     23  C   UNK A   0      -8.380   4.633 130.072  0.00  0.00    +0.000 A 
ATOM     24  C   UNK A   0      -7.975   5.633 130.959  0.00  0.00    +0.000 A 
ATOM     25  C   UNK A   0      -8.907   6.356 131.685  0.00  0.00    +0.000 A 
BRANCH  20  27
ATOM     26  C   UNK A   0     -12.419   7.082 131.381  0.00  0.00    +0.000 C 
ATOM     27  O   UNK A   0     -11.250   6.819 132.143  0.00  0.00    +0.000 OA
ENDBRANCH  20  27
ENDBRANCH  19  23
BRANCH  19  28
ATOM     28  C   UNK A   0      -6.035   4.559 129.558  0.00  0.00    +0.000 C 
ATOM     29  O   UNK A   0      -5.658   5.609 129.039  0.00  0.00    +0.000 OA
ATOM     30  N   UNK A   0      -5.222   3.885 130.450  0.00  0.00    +0.000 N 
ATOM     31  H   UNK A   0      -5.293   2.881 130.545  0.00  0.00    +0.000 HD
BRANCH  30  32
ATOM     32  C   UNK A   0      -4.071   4.544 131.096  0.00  0.00    +0.000 C 
ATOM     33  C   UNK A   0      -2.961   4.968 130.107  0.00  0.00    +0.000 C 
ATOM     34  C   UNK A   0      -4.610   5.741 131.895  0.00  0.00    +0.000 C 
ATOM     35  C   UNK A   0      -3.406   3.564 132.073  0.00  0.00    +0.000 C 
ENDBRANCH  30  32
ENDBRANCH  19  28
ENDBRANCH   1  19
BRANCH   8  36
ATOM     36  CB  LEU A   1      -7.439   2.071 131.607  0.00  0.00    +0.000 C 
BRANCH  36  37
ATOM     37  CG  LEU A   1      -8.555   1.841 132.646  0.00  0.00    +0.000 C 
ATOM     38  CD1 LEU A   1      -8.639   3.100 133.497  0.00  0.00    +0.000 C 
ATOM     39  CD2 LEU A   1      -9.905   1.608 131.996  0.00  0.00    +0.000 C 
ENDBRANCH  36  37
ENDBRANCH   8  36
TORSDOF 8
ENDMDL
MODEL 2
REMARK VINA RESULT:      -8.3      2.931      7.857
REMARK  Name = CHEMBL197822
REMARK  14 active torsions:
REMARK  status: ('A' for Active; 'I' for Inactive)
REMARK    1  A    between atoms: C_1  and  O_2
REMARK    2  A    between atoms: O_2  and  C_3
REMARK    3  A    between atoms: C_6  and  C_7
REMARK    4  A    between atoms: C_7  and  C_8
REMARK    5  A    between atoms: C_7  and  N_15
REMARK    6  A    between atoms: N_10  and  C_11
REMARK    7  A    between atoms: C_11  and  C_12
REMARK    8  A    between atoms: C_11  and  C_13
REMARK    9  A    between atoms: C_11  and  C_14
REMARK   10  A    between atoms: C_18  and  C_19
REMARK   11  A    between atoms: CA_31  and  CB_32
REMARK   12  A    between atoms: CB_32  and  CG_33
REMARK   13  A    between atoms: CG_33  and  CD1_34
REMARK   14  A    between atoms: CG_33  and  CD2_35
REMARK                            x       y       z     vdW  Elec       q    Type
REMARK                         _______ _______ _______ _____ _____    ______ ____
ROOT
ATOM      1  N   LEU A   1      -7.327   4.834 131.316  0.00  0.00    +0.000 N 
ATOM      2  C   UNK A   2      -8.379   5.405 130.600  0.00  0.00    +0.000 C 
ATOM      3  O   UNK A   2      -8.322   5.390 129.401  0.00  0.00    +0.000 OA
ATOM      4  C   UNK A   2      -9.517   6.144 131.465  0.00  0.00    +0.000 C 
ATOM      5  N   UNK A   2      -9.923   5.163 132.439  0.00  0.00    +0.000 N 
ATOM      6  C   LEU A   1      -9.013   4.419 133.106  0.00  0.00    +0.000 C 
ATOM      7  O   LEU A   1      -9.453   3.640 133.959  0.00  0.00    +0.000 OA
ATOM      8  CA  LEU A   1      -7.511   4.669 132.771  0.00  0.00    +0.000 C 
ATOM      9  H   UNK A   2     -10.884   4.958 132.685  0.00  0.00    +0.000 HD
ENDROOT
BRANCH   4  10
ATOM     10  C   UNK A   2     -10.683   6.505 130.550  0.00  0.00    +0.000 C 
ATOM     11  C   UNK A   2     -10.330   7.652 129.692  0.00  0.00    +0.000 C 
ATOM     12  C   UNK A   2     -11.615   7.662 128.907  0.00  0.00    +0.000 A 
ATOM     13  C   UNK A   2     -12.534   6.660 128.433  0.00  0.00    +0.000 A 
ATOM     14  C   UNK A   2     -13.743   7.065 127.863  0.00  0.00    +0.000 A 
ATOM     15  C   UNK A   2     -13.887   8.408 127.803  0.00  0.00    +0.000 A 
ATOM     16  C   UNK A   2     -13.126   9.083 128.779  0.00  0.00    +0.000 A 
ATOM     17  C   UNK A   2     -12.325   8.426 129.732  0.00  0.00    +0.000 A 
ATOM     18  C   UNK A   2     -12.133   7.206 130.970  0.00  0.00    +0.000 C 
ENDBRANCH   4  10
BRANCH   1  19
ATOM     19  C   UNK A   0      -6.049   4.527 130.526  0.00  0.00    +0.000 C 
BRANCH  19  23
ATOM     20  C   UNK A   0      -2.214   5.278 132.369  0.00  0.00    +0.000 A 
ATOM     21  C   UNK A   0      -3.073   6.328 132.075  0.00  0.00    +0.000 A 
ATOM     22  C   UNK A   0      -4.367   6.058 131.650  0.00  0.00    +0.000 A 
ATOM     23  C   UNK A   0      -4.758   4.745 131.331  0.00  0.00    +0.000 A 
ATOM     24  C   UNK A   0      -3.869   3.706 131.612  0.00  0.00    +0.000 A 
ATOM     25  C   UNK A   0      -2.630   3.966 132.175  0.00  0.00    +0.000 A 
BRANCH  20  27
ATOM     26  C   UNK A   0      -0.445   6.810 132.413  0.00  0.00    +0.000 C 
ATOM     27  O   UNK A   0      -1.023   5.623 132.937  0.00  0.00    +0.000 OA
ENDBRANCH  20  27
ENDBRANCH  19  23
BRANCH  19  28
ATOM     28  C   UNK A   0      -5.869   3.051 130.042  0.00  0.00    +0.000 C 
ATOM     29  O   UNK A   0      -4.943   2.794 129.274  0.00  0.00    +0.000 OA
ATOM     30  N   UNK A   0      -6.783   2.074 130.389  0.00  0.00    +0.000 N 
ATOM     31  H   UNK A   0      -7.731   2.328 130.634  0.00  0.00    +0.000 HD
BRANCH  30  32
ATOM     32  C   UNK A   0      -6.503   0.641 130.178  0.00  0.00    +0.000 C 
ATOM     33  C   UNK A   0      -6.356   0.250 128.689  0.00  0.00    +0.000 C 
ATOM     34  C   UNK A   0      -5.245   0.290 130.986  0.00  0.00    +0.000 C 
ATOM     35  C   UNK A   0      -7.676  -0.192 130.712  0.00  0.00    +0.000 C 
ENDBRANCH  30  32
ENDBRANCH  19  28
ENDBRANCH   1  19
BRANCH   8  36
ATOM     36  CB  LEU A   1      -6.808   3.448 133.366  0.00  0.00    +0.000 C 
BRANCH  36  37
ATOM     37  CG  LEU A   1      -6.280   3.803 134.770  0.00  0.00    +0.000 C 
ATOM     38  CD1 LEU A   1      -5.059   2.929 135.022  0.00  0.00    +0.000 C 
ATOM     39  CD2 LEU A   1      -5.860   5.257 134.874  0.00  0.00    +0.000 C 
ENDBRANCH  36  37
ENDBRANCH   8  36
TORSDOF 8
ENDMDL
MODEL 3
REMARK VINA RESULT:      -8.1      3.255      7.688
REMARK  Name = CHEMBL197822
REMARK  14 active torsions:
REMARK  status: ('A' for Active; 'I' for Inactive)
REMARK    1  A    between atoms: C_1  and  O_2
REMARK    2  A    between atoms: O_2  and  C_3
REMARK    3  A    between atoms: C_6  and  C_7
REMARK    4  A    between atoms: C_7  and  C_8
REMARK    5  A    between atoms: C_7  and  N_15
REMARK    6  A    between atoms: N_10  and  C_11
REMARK    7  A    between atoms: C_11  and  C_12
REMARK    8  A    between atoms: C_11  and  C_13
REMARK    9  A    between atoms: C_11  and  C_14
REMARK   10  A    between atoms: C_18  and  C_19
REMARK   11  A    between atoms: CA_31  and  CB_32
REMARK   12  A    between atoms: CB_32  and  CG_33
REMARK   13  A    between atoms: CG_33  and  CD1_34
REMARK   14  A    between atoms: CG_33  and  CD2_35
REMARK                            x       y       z     vdW  Elec       q    Type
REMARK                         _______ _______ _______ _____ _____    ______ ____
ROOT
ATOM      1  N   LEU A   1      -7.938   3.342 130.678  0.00  0.00    +0.000 N 
ATOM      2  C   UNK A   2      -8.871   4.172 130.059  0.00  0.00    +0.000 C 
ATOM      3  O   UNK A   2      -9.147   3.958 128.910  0.00  0.00    +0.000 OA
ATOM      4  C   UNK A   2      -9.401   5.423 130.922  0.00  0.00    +0.000 C 
ATOM      5  N   UNK A   2      -9.851   4.842 132.161  0.00  0.00    +0.000 N 
ATOM      6  C   LEU A   1      -9.118   3.904 132.802  0.00  0.00    +0.000 C 
ATOM      7  O   LEU A   1      -9.559   3.501 133.883  0.00  0.00    +0.000 OA
ATOM      8  CA  LEU A   1      -7.772   3.482 132.137  0.00  0.00    +0.000 C 
ATOM      9  H   UNK A   2     -10.719   5.077 132.627  0.00  0.00    +0.000 HD
ENDROOT
BRANCH   4  10
ATOM     10  C   UNK A   2     -10.565   6.079 130.185  0.00  0.00    +0.000 C 
ATOM     11  C   UNK A   2     -10.151   7.376 129.615  0.00  0.00    +0.000 C 
ATOM     12  C   UNK A   2     -11.457   7.669 128.926  0.00  0.00    +0.000 A 
ATOM     13  C   UNK A   2     -12.469   6.881 128.270  0.00  0.00    +0.000 A 
ATOM     14  C   UNK A   2     -13.660   7.498 127.881  0.00  0.00    +0.000 A 
ATOM     15  C   UNK A   2     -13.698   8.820 128.159  0.00  0.00    +0.000 A 
ATOM     16  C   UNK A   2     -12.852   9.178 129.229  0.00  0.00    +0.000 A 
ATOM     17  C   UNK A   2     -12.075   8.252 129.949  0.00  0.00    +0.000 A 
ATOM     18  C   UNK A   2     -11.939   6.753 130.840  0.00  0.00    +0.000 C 
ENDBRANCH   4  10
BRANCH   1  19
ATOM     19  C   UNK A   0      -7.110   2.437 129.756  0.00  0.00    +0.000 C 
BRANCH  19  23
ATOM     20  C   UNK A   0      -3.400   4.312 128.579  0.00  0.00    +0.000 A 
ATOM     21  C   UNK A   0      -4.218   4.903 129.533  0.00  0.00    +0.000 A 
ATOM     22  C   UNK A   0      -5.311   4.204 130.028  0.00  0.00    +0.000 A 
ATOM     23  C   UNK A   0      -5.711   2.990 129.443  0.00  0.00    +0.000 A 
ATOM     24  C   UNK A   0      -4.888   2.426 128.467  0.00  0.00    +0.000 A 
ATOM     25  C   UNK A   0      -3.716   3.055 128.078  0.00  0.00    +0.000 A 
BRANCH  20  27
ATOM     26  C   UNK A   0      -2.392   6.406 128.296  0.00  0.00    +0.000 C 
ATOM     27  O   UNK A   0      -2.259   4.992 128.268  0.00  0.00    +0.000 OA
ENDBRANCH  20  27
ENDBRANCH  19  23
BRANCH  19  28
ATOM     28  C   UNK A   0      -6.767   1.014 130.306  0.00  0.00    +0.000 C 
ATOM     29  O   UNK A   0      -7.632   0.141 130.255  0.00  0.00    +0.000 OA
ATOM     30  N   UNK A   0      -5.556   0.765 130.925  0.00  0.00    +0.000 N 
ATOM     31  H   UNK A   0      -5.037   1.522 131.351  0.00  0.00    +0.000 HD
BRANCH  30  32
ATOM     32  C   UNK A   0      -5.099  -0.608 131.209  0.00  0.00    +0.000 C 
ATOM     33  C   UNK A   0      -6.122  -1.451 132.005  0.00  0.00    +0.000 C 
ATOM     34  C   UNK A   0      -4.742  -1.265 129.867  0.00  0.00    +0.000 C 
ATOM     35  C   UNK A   0      -3.836  -0.556 132.079  0.00  0.00    +0.000 C 
ENDBRANCH  30  32
ENDBRANCH  19  28
ENDBRANCH   1  19
BRANCH   8  36
ATOM     36  CB  LEU A   1      -7.412   2.184 132.864  0.00  0.00    +0.000 C 
BRANCH  36  37
ATOM     37  CG  LEU A   1      -6.424   2.501 134.004  0.00  0.00    +0.000 C 
ATOM     38  CD1 LEU A   1      -5.975   1.168 134.587  0.00  0.00    +0.000 C 
ATOM     39  CD2 LEU A   1      -5.200   3.248 133.512  0.00  0.00    +0.000 C 
ENDBRANCH  36  37
ENDBRANCH   8  36
TORSDOF 8
ENDMDL
MODEL 4
REMARK VINA RESULT:      -8.0      3.510      4.326
REMARK  Name = CHEMBL197822
REMARK  14 active torsions:
REMARK  status: ('A' for Active; 'I' for Inactive)
REMARK    1  A    between atoms: C_1  and  O_2
REMARK    2  A    between atoms: O_2  and  C_3
REMARK    3  A    between atoms: C_6  and  C_7
REMARK    4  A    between atoms: C_7  and  C_8
REMARK    5  A    between atoms: C_7  and  N_15
REMARK    6  A    between atoms: N_10  and  C_11
REMARK    7  A    between atoms: C_11  and  C_12
REMARK    8  A    between atoms: C_11  and  C_13
REMARK    9  A    between atoms: C_11  and  C_14
REMARK   10  A    between atoms: C_18  and  C_19
REMARK   11  A    between atoms: CA_31  and  CB_32
REMARK   12  A    between atoms: CB_32  and  CG_33
REMARK   13  A    between atoms: CG_33  and  CD1_34
REMARK   14  A    between atoms: CG_33  and  CD2_35
REMARK                            x       y       z     vdW  Elec       q    Type
REMARK                         _______ _______ _______ _____ _____    ______ ____
ROOT
ATOM      1  N   LEU A   1      -7.455   2.631 131.467  0.00  0.00    +0.000 N 
ATOM      2  C   UNK A   2      -7.203   1.289 131.182  0.00  0.00    +0.000 C 
ATOM      3  O   UNK A   2      -6.945   0.990 130.048  0.00  0.00    +0.000 OA
ATOM      4  C   UNK A   2      -7.403   0.249 132.393  0.00  0.00    +0.000 C 
ATOM      5  N   UNK A   2      -6.609   0.788 133.467  0.00  0.00    +0.000 N 
ATOM      6  C   LEU A   1      -6.634   2.107 133.763  0.00  0.00    +0.000 C 
ATOM      7  O   LEU A   1      -5.960   2.468 134.733  0.00  0.00    +0.000 OA
ATOM      8  CA  LEU A   1      -7.556   3.011 132.889  0.00  0.00    +0.000 C 
ATOM      9  H   UNK A   2      -5.990   0.244 134.057  0.00  0.00    +0.000 HD
ENDROOT
BRANCH   4  10
ATOM     10  C   UNK A   2      -6.873  -1.117 131.969  0.00  0.00    +0.000 C 
ATOM     11  C   UNK A   2      -7.511  -2.188 132.759  0.00  0.00    +0.000 C 
ATOM     12  C   UNK A   2      -6.846  -3.331 132.040  0.00  0.00    +0.000 A 
ATOM     13  C   UNK A   2      -6.424  -3.585 130.687  0.00  0.00    +0.000 A 
ATOM     14  C   UNK A   2      -5.670  -4.729 130.416  0.00  0.00    +0.000 A 
ATOM     15  C   UNK A   2      -5.447  -5.498 131.505  0.00  0.00    +0.000 A 
ATOM     16  C   UNK A   2      -5.502  -4.767 132.710  0.00  0.00    +0.000 A 
ATOM     17  C   UNK A   2      -5.735  -3.380 132.769  0.00  0.00    +0.000 A 
ATOM     18  C   UNK A   2      -5.360  -1.756 132.242  0.00  0.00    +0.000 C 
ENDBRANCH   4  10
BRANCH   1  19
ATOM     19  C   UNK A   0      -7.699   3.552 130.265  0.00  0.00    +0.000 C 
BRANCH  19  23
ATOM     20  C   UNK A   0     -10.779   6.572 130.508  0.00  0.00    +0.000 A 
ATOM     21  C   UNK A   0     -11.114   5.226 130.441  0.00  0.00    +0.000 A 
ATOM     22  C   UNK A   0     -10.117   4.265 130.543  0.00  0.00    +0.000 A 
ATOM     23  C   UNK A   0      -8.760   4.633 130.522  0.00  0.00    +0.000 A 
ATOM     24  C   UNK A   0      -8.445   5.992 130.564  0.00  0.00    +0.000 A 
ATOM     25  C   UNK A   0      -9.445   6.951 130.611  0.00  0.00    +0.000 A 
BRANCH  20  27
ATOM     26  C   UNK A   0     -11.945   8.296 129.437  0.00  0.00    +0.000 C 
ATOM     27  O   UNK A   0     -11.825   7.445 130.568  0.00  0.00    +0.000 OA
ENDBRANCH  20  27
ENDBRANCH  19  23
BRANCH  19  28
ATOM     28  C   UNK A   0      -6.483   4.414 129.793  0.00  0.00    +0.000 C 
ATOM     29  O   UNK A   0      -6.561   4.996 128.712  0.00  0.00    +0.000 OA
ATOM     30  N   UNK A   0      -5.310   4.445 130.523  0.00  0.00    +0.000 N 
ATOM     31  H   UNK A   0      -5.073   3.680 131.140  0.00  0.00    +0.000 HD
BRANCH  30  32
ATOM     32  C   UNK A   0      -4.257   5.443 130.254  0.00  0.00    +0.000 C 
ATOM     33  C   UNK A   0      -3.768   5.450 128.787  0.00  0.00    +0.000 C 
ATOM     34  C   UNK A   0      -4.798   6.816 130.680  0.00  0.00    +0.000 C 
ATOM     35  C   UNK A   0      -3.019   5.120 131.102  0.00  0.00    +0.000 C 
ENDBRANCH  30  32
ENDBRANCH  19  28
ENDBRANCH   1  19
BRANCH   8  36
ATOM     36  CB  LEU A   1      -7.065   4.425 133.205  0.00  0.00    +0.000 C 
BRANCH  36  37
ATOM     37  CG  LEU A   1      -8.124   5.148 134.061  0.00  0.00    +0.000 C 
ATOM     38  CD1 LEU A   1      -9.322   4.215 134.170  0.00  0.00    +0.000 C 
ATOM     39  CD2 LEU A   1      -7.622   5.452 135.460  0.00  0.00    +0.000 C 
ENDBRANCH  36  37
ENDBRANCH   8  36
TORSDOF 8
ENDMDL
MODEL 5
REMARK VINA RESULT:      -8.0      2.221      5.256
REMARK  Name = CHEMBL197822
REMARK  14 active torsions:
REMARK  status: ('A' for Active; 'I' for Inactive)
REMARK    1  A    between atoms: C_1  and  O_2
REMARK    2  A    between atoms: O_2  and  C_3
REMARK    3  A    between atoms: C_6  and  C_7
REMARK    4  A    between atoms: C_7  and  C_8
REMARK    5  A    between atoms: C_7  and  N_15
REMARK    6  A    between atoms: N_10  and  C_11
REMARK    7  A    between atoms: C_11  and  C_12
REMARK    8  A    between atoms: C_11  and  C_13
REMARK    9  A    between atoms: C_11  and  C_14
REMARK   10  A    between atoms: C_18  and  C_19
REMARK   11  A    between atoms: CA_31  and  CB_32
REMARK   12  A    between atoms: CB_32  and  CG_33
REMARK   13  A    between atoms: CG_33  and  CD1_34
REMARK   14  A    between atoms: CG_33  and  CD2_35
REMARK                            x       y       z     vdW  Elec       q    Type
REMARK                         _______ _______ _______ _____ _____    ______ ____
ROOT
ATOM      1  N   LEU A   1      -6.071   2.826 128.247  0.00  0.00    +0.000 N 
ATOM      2  C   UNK A   2      -6.705   1.695 127.736  0.00  0.00    +0.000 C 
ATOM      3  O   UNK A   2      -7.681   1.287 128.304  0.00  0.00    +0.000 OA
ATOM      4  C   UNK A   2      -5.986   0.971 126.491  0.00  0.00    +0.000 C 
ATOM      5  N   UNK A   2      -5.782   2.024 125.530  0.00  0.00    +0.000 N 
ATOM      6  C   LEU A   1      -5.314   3.236 125.906  0.00  0.00    +0.000 C 
ATOM      7  O   LEU A   1      -5.123   4.058 125.005  0.00  0.00    +0.000 OA
ATOM      8  CA  LEU A   1      -5.011   3.437 127.423  0.00  0.00    +0.000 C 
ATOM      9  H   UNK A   2      -5.972   1.945 124.538  0.00  0.00    +0.000 HD
ENDROOT
BRANCH   4  10
ATOM     10  C   UNK A   2      -6.921  -0.095 125.927  0.00  0.00    +0.000 C 
ATOM     11  C   UNK A   2      -6.284  -0.793 124.793  0.00  0.00    +0.000 C 
ATOM     12  C   UNK A   2      -7.401  -1.777 124.567  0.00  0.00    +0.000 A 
ATOM     13  C   UNK A   2      -8.341  -2.472 125.409  0.00  0.00    +0.000 A 
ATOM     14  C   UNK A   2      -9.372  -3.201 124.813  0.00  0.00    +0.000 A 
ATOM     15  C   UNK A   2      -9.335  -3.182 123.462  0.00  0.00    +0.000 A 
ATOM     16  C   UNK A   2      -8.678  -2.045 122.950  0.00  0.00    +0.000 A 
ATOM     17  C   UNK A   2      -8.143  -1.025 123.760  0.00  0.00    +0.000 A 
ATOM     18  C   UNK A   2      -8.323   0.131 125.059  0.00  0.00    +0.000 C 
ENDBRANCH   4  10
BRANCH   1  19
ATOM     19  C   UNK A   0      -6.478   3.258 129.662  0.00  0.00    +0.000 C 
BRANCH  19  23
ATOM     20  C   UNK A   0      -3.455   4.801 132.335  0.00  0.00    +0.000 A 
ATOM     21  C   UNK A   0      -3.422   3.476 131.922  0.00  0.00    +0.000 A 
ATOM     22  C   UNK A   0      -4.290   3.045 130.929  0.00  0.00    +0.000 A 
ATOM     23  C   UNK A   0      -5.328   3.877 130.472  0.00  0.00    +0.000 A 
ATOM     24  C   UNK A   0      -5.358   5.199 130.920  0.00  0.00    +0.000 A 
ATOM     25  C   UNK A   0      -4.399   5.671 131.802  0.00  0.00    +0.000 A 
BRANCH  20  27
ATOM     26  C   UNK A   0      -1.185   5.315 132.585  0.00  0.00    +0.000 C 
ATOM     27  O   UNK A   0      -2.463   5.185 133.190  0.00  0.00    +0.000 OA
ENDBRANCH  20  27
ENDBRANCH  19  23
BRANCH  19  28
ATOM     28  C   UNK A   0      -7.566   4.376 129.761  0.00  0.00    +0.000 C 
ATOM     29  O   UNK A   0      -7.867   4.993 128.740  0.00  0.00    +0.000 OA
ATOM     30  N   UNK A   0      -8.109   4.731 130.981  0.00  0.00    +0.000 N 
ATOM     31  H   UNK A   0      -7.595   4.562 131.836  0.00  0.00    +0.000 HD
BRANCH  30  32
ATOM     32  C   UNK A   0      -9.313   5.579 131.076  0.00  0.00    +0.000 C 
ATOM     33  C   UNK A   0      -9.121   6.997 130.490  0.00  0.00    +0.000 C 
ATOM     34  C   UNK A   0     -10.464   4.829 130.388  0.00  0.00    +0.000 C 
ATOM     35  C   UNK A   0      -9.677   5.785 132.552  0.00  0.00    +0.000 C 
ENDBRANCH  30  32
ENDBRANCH  19  28
ENDBRANCH   1  19
BRANCH   8  36
ATOM     36  CB  LEU A   1      -4.895   4.956 127.559  0.00  0.00    +0.000 C 
BRANCH  36  37
ATOM     37  CG  LEU A   1      -3.406   5.355 127.517  0.00  0.00    +0.000 C 
ATOM     38  CD1 LEU A   1      -3.258   6.614 128.361  0.00  0.00    +0.000 C 
ATOM     39  CD2 LEU A   1      -2.507   4.279 128.095  0.00  0.00    +0.000 C 
ENDBRANCH  36  37
ENDBRANCH   8  36
TORSDOF 8
ENDMDL
MODEL 6
REMARK VINA RESULT:      -8.0      2.606      7.894
REMARK  Name = CHEMBL197822
REMARK  14 active torsions:
REMARK  status: ('A' for Active; 'I' for Inactive)
REMARK    1  A    between atoms: C_1  and  O_2
REMARK    2  A    between atoms: O_2  and  C_3
REMARK    3  A    between atoms: C_6  and  C_7
REMARK    4  A    between atoms: C_7  and  C_8
REMARK    5  A    between atoms: C_7  and  N_15
REMARK    6  A    between atoms: N_10  and  C_11
REMARK    7  A    between atoms: C_11  and  C_12
REMARK    8  A    between atoms: C_11  and  C_13
REMARK    9  A    between atoms: C_11  and  C_14
REMARK   10  A    between atoms: C_18  and  C_19
REMARK   11  A    between atoms: CA_31  and  CB_32
REMARK   12  A    between atoms: CB_32  and  CG_33
REMARK   13  A    between atoms: CG_33  and  CD1_34
REMARK   14  A    between atoms: CG_33  and  CD2_35
REMARK                            x       y       z     vdW  Elec       q    Type
REMARK                         _______ _______ _______ _____ _____    ______ ____
ROOT
ATOM      1  N   LEU A   1      -8.079   2.184 129.590  0.00  0.00    +0.000 N 
ATOM      2  C   UNK A   2      -8.692   3.405 129.311  0.00  0.00    +0.000 C 
ATOM      3  O   UNK A   2      -8.678   3.800 128.177  0.00  0.00    +0.000 OA
ATOM      4  C   UNK A   2      -9.256   4.229 130.573  0.00  0.00    +0.000 C 
ATOM      5  N   UNK A   2     -10.094   3.289 131.272  0.00  0.00    +0.000 N 
ATOM      6  C   LEU A   1      -9.694   2.015 131.483  0.00  0.00    +0.000 C 
ATOM      7  O   LEU A   1     -10.458   1.296 132.136  0.00  0.00    +0.000 OA
ATOM      8  CA  LEU A   1      -8.290   1.614 130.934  0.00  0.00    +0.000 C 
ATOM      9  H   UNK A   2     -11.015   3.499 131.639  0.00  0.00    +0.000 HD
ENDROOT
BRANCH   4  10
ATOM     10  C   UNK A   2     -10.080   5.410 130.069  0.00  0.00    +0.000 C 
ATOM     11  C   UNK A   2     -10.096   6.494 131.070  0.00  0.00    +0.000 C 
ATOM     12  C   UNK A   2     -10.882   7.468 130.234  0.00  0.00    +0.000 A 
ATOM     13  C   UNK A   2     -10.968   7.779 128.830  0.00  0.00    +0.000 A 
ATOM     14  C   UNK A   2     -11.959   8.657 128.391  0.00  0.00    +0.000 A 
ATOM     15  C   UNK A   2     -12.728   9.146 129.390  0.00  0.00    +0.000 A 
ATOM     16  C   UNK A   2     -12.766   8.297 130.514  0.00  0.00    +0.000 A 
ATOM     17  C   UNK A   2     -12.099   7.059 130.577  0.00  0.00    +0.000 A 
ATOM     18  C   UNK A   2     -11.732   5.497 129.883  0.00  0.00    +0.000 C 
ENDBRANCH   4  10
BRANCH   1  19
ATOM     19  C   UNK A   0      -7.168   1.610 128.498  0.00  0.00    +0.000 C 
BRANCH  19  23
ATOM     20  C   UNK A   0      -8.901  -0.781 125.343  0.00  0.00    +0.000 A 
ATOM     21  C   UNK A   0      -7.766  -1.215 126.016  0.00  0.00    +0.000 A 
ATOM     22  C   UNK A   0      -7.329  -0.526 127.139  0.00  0.00    +0.000 A 
ATOM     23  C   UNK A   0      -7.902   0.708 127.493  0.00  0.00    +0.000 A 
ATOM     24  C   UNK A   0      -9.026   1.139 126.787  0.00  0.00    +0.000 A 
ATOM     25  C   UNK A   0      -9.552   0.375 125.757  0.00  0.00    +0.000 A 
BRANCH  20  27
ATOM     26  C   UNK A   0      -8.784  -2.901 124.358  0.00  0.00    +0.000 C 
ATOM     27  O   UNK A   0      -9.359  -1.602 124.356  0.00  0.00    +0.000 OA
ENDBRANCH  20  27
ENDBRANCH  19  23
BRANCH  19  28
ATOM     28  C   UNK A   0      -6.486   2.647 127.546  0.00  0.00    +0.000 C 
ATOM     29  O   UNK A   0      -5.625   3.392 128.011  0.00  0.00    +0.000 OA
ATOM     30  N   UNK A   0      -6.907   2.792 126.237  0.00  0.00    +0.000 N 
ATOM     31  H   UNK A   0      -7.845   2.526 125.972  0.00  0.00    +0.000 HD
BRANCH  30  32
ATOM     32  C   UNK A   0      -6.120   3.558 125.252  0.00  0.00    +0.000 C 
ATOM     33  C   UNK A   0      -4.598   3.545 125.527  0.00  0.00    +0.000 C 
ATOM     34  C   UNK A   0      -6.451   3.001 123.860  0.00  0.00    +0.000 C 
ATOM     35  C   UNK A   0      -6.539   5.034 125.301  0.00  0.00    +0.000 C 
ENDBRANCH  30  32
ENDBRANCH  19  28
ENDBRANCH   1  19
BRANCH   8  36
ATOM     36  CB  LEU A   1      -8.318   0.085 130.979  0.00  0.00    +0.000 C 
BRANCH  36  37
ATOM     37  CG  LEU A   1      -7.059  -0.422 131.710  0.00  0.00    +0.000 C 
ATOM     38  CD1 LEU A   1      -6.289  -1.288 130.723  0.00  0.00    +0.000 C 
ATOM     39  CD2 LEU A   1      -6.159   0.714 132.158  0.00  0.00    +0.000 C 
ENDBRANCH  36  37
ENDBRANCH   8  36
TORSDOF 8
ENDMDL
MODEL 7
REMARK VINA RESULT:      -7.7      2.064      4.398
REMARK  Name = CHEMBL197822
REMARK  14 active torsions:
REMARK  status: ('A' for Active; 'I' for Inactive)
REMARK    1  A    between atoms: C_1  and  O_2
REMARK    2  A    between atoms: O_2  and  C_3
REMARK    3  A    between atoms: C_6  and  C_7
REMARK    4  A    between atoms: C_7  and  C_8
REMARK    5  A    between atoms: C_7  and  N_15
REMARK    6  A    between atoms: N_10  and  C_11
REMARK    7  A    between atoms: C_11  and  C_12
REMARK    8  A    between atoms: C_11  and  C_13
REMARK    9  A    between atoms: C_11  and  C_14
REMARK   10  A    between atoms: C_18  and  C_19
REMARK   11  A    between atoms: CA_31  and  CB_32
REMARK   12  A    between atoms: CB_32  and  CG_33
REMARK   13  A    between atoms: CG_33  and  CD1_34
REMARK   14  A    between atoms: CG_33  and  CD2_35
REMARK                            x       y       z     vdW  Elec       q    Type
REMARK                         _______ _______ _______ _____ _____    ______ ____
ROOT
ATOM      1  N   LEU A   1      -8.066   3.249 129.493  0.00  0.00    +0.000 N 
ATOM      2  C   UNK A   2      -8.281   2.201 128.599  0.00  0.00    +0.000 C 
ATOM      3  O   UNK A   2      -9.404   1.993 128.229  0.00  0.00    +0.000 OA
ATOM      4  C   UNK A   2      -7.003   1.289 128.243  0.00  0.00    +0.000 C 
ATOM      5  N   UNK A   2      -5.994   2.229 127.827  0.00  0.00    +0.000 N 
ATOM      6  C   LEU A   1      -5.776   3.373 128.513  0.00  0.00    +0.000 C 
ATOM      7  O   LEU A   1      -4.855   4.092 128.111  0.00  0.00    +0.000 OA
ATOM      8  CA  LEU A   1      -6.666   3.627 129.768  0.00  0.00    +0.000 C 
ATOM      9  H   UNK A   2      -5.397   2.114 127.016  0.00  0.00    +0.000 HD
ENDROOT
BRANCH   4  10
ATOM     10  C   UNK A   2      -7.365   0.350 127.097  0.00  0.00    +0.000 C 
ATOM     11  C   UNK A   2      -7.361  -1.053 127.557  0.00  0.00    +0.000 C 
ATOM     12  C   UNK A   2      -7.826  -1.646 126.254  0.00  0.00    +0.000 A 
ATOM     13  C   UNK A   2      -8.716  -1.234 125.199  0.00  0.00    +0.000 A 
ATOM     14  C   UNK A   2      -8.777  -1.994 124.029  0.00  0.00    +0.000 A 
ATOM     15  C   UNK A   2      -7.976  -3.084 124.052  0.00  0.00    +0.000 A 
ATOM     16  C   UNK A   2      -6.882  -2.939 124.929  0.00  0.00    +0.000 A 
ATOM     17  C   UNK A   2      -6.634  -1.773 125.678  0.00  0.00    +0.000 A 
ATOM     18  C   UNK A   2      -6.447  -0.037 125.764  0.00  0.00    +0.000 C 
ENDBRANCH   4  10
BRANCH   1  19
ATOM     19  C   UNK A   0      -9.310   3.835 130.172  0.00  0.00    +0.000 C 
BRANCH  19  23
ATOM     20  C   UNK A   0      -8.259   4.843 134.240  0.00  0.00    +0.000 A 
ATOM     21  C   UNK A   0      -8.452   5.840 133.293  0.00  0.00    +0.000 A 
ATOM     22  C   UNK A   0      -8.961   5.511 132.044  0.00  0.00    +0.000 A 
ATOM     23  C   UNK A   0      -9.104   4.167 131.658  0.00  0.00    +0.000 A 
ATOM     24  C   UNK A   0      -8.880   3.179 132.619  0.00  0.00    +0.000 A 
ATOM     25  C   UNK A   0      -8.514   3.517 133.911  0.00  0.00    +0.000 A 
BRANCH  20  27
ATOM     26  C   UNK A   0      -6.559   5.031 135.838  0.00  0.00    +0.000 C 
ATOM     27  O   UNK A   0      -7.916   5.266 135.490  0.00  0.00    +0.000 OA
ENDBRANCH  20  27
ENDBRANCH  19  23
BRANCH  19  28
ATOM     28  C   UNK A   0      -9.826   5.203 129.616  0.00  0.00    +0.000 C 
ATOM     29  O   UNK A   0      -9.242   5.703 128.655  0.00  0.00    +0.000 OA
ATOM     30  N   UNK A   0     -10.851   5.884 130.246  0.00  0.00    +0.000 N 
ATOM     31  H   UNK A   0     -11.039   5.726 131.227  0.00  0.00    +0.000 HD
BRANCH  30  32
ATOM     32  C   UNK A   0     -11.532   7.024 129.604  0.00  0.00    +0.000 C 
ATOM     33  C   UNK A   0     -12.318   6.642 128.329  0.00  0.00    +0.000 C 
ATOM     34  C   UNK A   0     -12.439   7.676 130.658  0.00  0.00    +0.000 C 
ATOM     35  C   UNK A   0     -10.486   8.054 129.155  0.00  0.00    +0.000 C 
ENDBRANCH  30  32
ENDBRANCH  19  28
ENDBRANCH   1  19
BRANCH   8  36
ATOM     36  CB  LEU A   1      -6.454   5.114 130.057  0.00  0.00    +0.000 C 
BRANCH  36  37
ATOM     37  CG  LEU A   1      -5.256   5.276 131.014  0.00  0.00    +0.000 C 
ATOM     38  CD1 LEU A   1      -5.360   6.667 131.625  0.00  0.00    +0.000 C 
ATOM     39  CD2 LEU A   1      -5.275   4.255 132.135  0.00  0.00    +0.000 C 
ENDBRANCH  36  37
ENDBRANCH   8  36
TORSDOF 8
ENDMDL
MODEL 8
REMARK VINA RESULT:      -7.5      2.474      7.459
REMARK  Name = CHEMBL197822
REMARK  14 active torsions:
REMARK  status: ('A' for Active; 'I' for Inactive)
REMARK    1  A    between atoms: C_1  and  O_2
REMARK    2  A    between atoms: O_2  and  C_3
REMARK    3  A    between atoms: C_6  and  C_7
REMARK    4  A    between atoms: C_7  and  C_8
REMARK    5  A    between atoms: C_7  and  N_15
REMARK    6  A    between atoms: N_10  and  C_11
REMARK    7  A    between atoms: C_11  and  C_12
REMARK    8  A    between atoms: C_11  and  C_13
REMARK    9  A    between atoms: C_11  and  C_14
REMARK   10  A    between atoms: C_18  and  C_19
REMARK   11  A    between atoms: CA_31  and  CB_32
REMARK   12  A    between atoms: CB_32  and  CG_33
REMARK   13  A    between atoms: CG_33  and  CD1_34
REMARK   14  A    between atoms: CG_33  and  CD2_35
REMARK                            x       y       z     vdW  Elec       q    Type
REMARK                         _______ _______ _______ _____ _____    ______ ____
ROOT
ATOM      1  N   LEU A   1      -7.869   3.676 130.427  0.00  0.00    +0.000 N 
ATOM      2  C   UNK A   2      -8.813   4.540 129.873  0.00  0.00    +0.000 C 
ATOM      3  O   UNK A   2      -8.913   4.578 128.677  0.00  0.00    +0.000 OA
ATOM      4  C   UNK A   2      -9.598   5.498 130.900  0.00  0.00    +0.000 C 
ATOM      5  N   UNK A   2     -10.124   4.602 131.898  0.00  0.00    +0.000 N 
ATOM      6  C   LEU A   1      -9.367   3.611 132.420  0.00  0.00    +0.000 C 
ATOM      7  O   LEU A   1      -9.887   2.926 133.307  0.00  0.00    +0.000 OA
ATOM      8  CA  LEU A   1      -7.906   3.483 131.889  0.00  0.00    +0.000 C 
ATOM      9  H   UNK A   2     -11.067   4.640 132.268  0.00  0.00    +0.000 HD
ENDROOT
BRANCH   4  10
ATOM     10  C   UNK A   2     -10.732   6.199 130.159  0.00  0.00    +0.000 C 
ATOM     11  C   UNK A   2     -10.282   7.507 129.642  0.00  0.00    +0.000 C 
ATOM     12  C   UNK A   2     -11.565   7.846 128.933  0.00  0.00    +0.000 A 
ATOM     13  C   UNK A   2     -12.576   7.099 128.228  0.00  0.00    +0.000 A 
ATOM     14  C   UNK A   2     -13.745   7.750 127.833  0.00  0.00    +0.000 A 
ATOM     15  C   UNK A   2     -13.767   9.064 128.153  0.00  0.00    +0.000 A 
ATOM     16  C   UNK A   2     -12.940   9.370 129.253  0.00  0.00    +0.000 A 
ATOM     17  C   UNK A   2     -12.196   8.406 129.960  0.00  0.00    +0.000 A 
ATOM     18  C   UNK A   2     -12.109   6.878 130.804  0.00  0.00    +0.000 C 
ENDBRANCH   4  10
BRANCH   1  19
ATOM     19  C   UNK A   0      -6.826   3.094 129.465  0.00  0.00    +0.000 C 
BRANCH  19  23
ATOM     20  C   UNK A   0      -8.159   1.400 125.720  0.00  0.00    +0.000 A 
ATOM     21  C   UNK A   0      -8.554   0.841 126.928  0.00  0.00    +0.000 A 
ATOM     22  C   UNK A   0      -8.265   1.499 128.116  0.00  0.00    +0.000 A 
ATOM     23  C   UNK A   0      -7.417   2.620 128.128  0.00  0.00    +0.000 A 
ATOM     24  C   UNK A   0      -7.009   3.151 126.902  0.00  0.00    +0.000 A 
ATOM     25  C   UNK A   0      -7.421   2.578 125.710  0.00  0.00    +0.000 A 
BRANCH  20  27
ATOM     26  C   UNK A   0      -7.630   0.530 123.612  0.00  0.00    +0.000 C 
ATOM     27  O   UNK A   0      -8.623   0.782 124.596  0.00  0.00    +0.000 OA
ENDBRANCH  20  27
ENDBRANCH  19  23
BRANCH  19  28
ATOM     28  C   UNK A   0      -5.704   4.070 128.982  0.00  0.00    +0.000 C 
ATOM     29  O   UNK A   0      -5.943   5.277 128.968  0.00  0.00    +0.000 OA
ATOM     30  N   UNK A   0      -4.506   3.587 128.490  0.00  0.00    +0.000 N 
ATOM     31  H   UNK A   0      -4.455   2.655 128.099  0.00  0.00    +0.000 HD
BRANCH  30  32
ATOM     32  C   UNK A   0      -3.343   4.469 128.282  0.00  0.00    +0.000 C 
ATOM     33  C   UNK A   0      -3.668   5.748 127.475  0.00  0.00    +0.000 C 
ATOM     34  C   UNK A   0      -2.759   4.801 129.663  0.00  0.00    +0.000 C 
ATOM     35  C   UNK A   0      -2.277   3.724 127.467  0.00  0.00    +0.000 C 
ENDBRANCH  30  32
ENDBRANCH  19  28
ENDBRANCH   1  19
BRANCH   8  36
ATOM     36  CB  LEU A   1      -7.483   2.089 132.358  0.00  0.00    +0.000 C 
BRANCH  36  37
ATOM     37  CG  LEU A   1      -6.251   2.218 133.276  0.00  0.00    +0.000 C 
ATOM     38  CD1 LEU A   1      -6.150   0.922 134.070  0.00  0.00    +0.000 C 
ATOM     39  CD2 LEU A   1      -4.967   2.404 132.492  0.00  0.00    +0.000 C 
ENDBRANCH  36  37
ENDBRANCH   8  36
TORSDOF 8
ENDMDL
MODEL 9
REMARK VINA RESULT:      -7.5      2.383      7.554
REMARK  Name = CHEMBL197822
REMARK  14 active torsions:
REMARK  status: ('A' for Active; 'I' for Inactive)
REMARK    1  A    between atoms: C_1  and  O_2
REMARK    2  A    between atoms: O_2  and  C_3
REMARK    3  A    between atoms: C_6  and  C_7
REMARK    4  A    between atoms: C_7  and  C_8
REMARK    5  A    between atoms: C_7  and  N_15
REMARK    6  A    between atoms: N_10  and  C_11
REMARK    7  A    between atoms: C_11  and  C_12
REMARK    8  A    between atoms: C_11  and  C_13
REMARK    9  A    between atoms: C_11  and  C_14
REMARK   10  A    between atoms: C_18  and  C_19
REMARK   11  A    between atoms: CA_31  and  CB_32
REMARK   12  A    between atoms: CB_32  and  CG_33
REMARK   13  A    between atoms: CG_33  and  CD1_34
REMARK   14  A    between atoms: CG_33  and  CD2_35
REMARK                            x       y       z     vdW  Elec       q    Type
REMARK                         _______ _______ _______ _____ _____    ______ ____
ROOT
ATOM      1  N   LEU A   1      -7.190   1.699 130.119  0.00  0.00    +0.000 N 
ATOM      2  C   UNK A   2      -7.842   2.911 129.895  0.00  0.00    +0.000 C 
ATOM      3  O   UNK A   2      -7.650   3.475 128.853  0.00  0.00    +0.000 OA
ATOM      4  C   UNK A   2      -8.704   3.498 131.121  0.00  0.00    +0.000 C 
ATOM      5  N   UNK A   2      -9.574   2.414 131.501  0.00  0.00    +0.000 N 
ATOM      6  C   LEU A   1      -9.112   1.149 131.610  0.00  0.00    +0.000 C 
ATOM      7  O   LEU A   1      -9.920   0.296 131.991  0.00  0.00    +0.000 OA
ATOM      8  CA  LEU A   1      -7.600   0.919 131.302  0.00  0.00    +0.000 C 
ATOM      9  H   UNK A   2     -10.563   2.512 131.703  0.00  0.00    +0.000 HD
ENDROOT
BRANCH   4  10
ATOM     10  C   UNK A   2      -9.518   4.692 130.631  0.00  0.00    +0.000 C 
ATOM     11  C   UNK A   2      -9.789   5.624 131.743  0.00  0.00    +0.000 C 
ATOM     12  C   UNK A   2     -10.492   6.662 130.910  0.00  0.00    +0.000 A 
ATOM     13  C   UNK A   2     -10.359   7.160 129.565  0.00  0.00    +0.000 A 
ATOM     14  C   UNK A   2     -11.326   8.037 129.069  0.00  0.00    +0.000 A 
ATOM     15  C   UNK A   2     -12.290   8.340 129.967  0.00  0.00    +0.000 A 
ATOM     16  C   UNK A   2     -12.455   7.342 130.949  0.00  0.00    +0.000 A 
ATOM     17  C   UNK A   2     -11.715   6.145 130.973  0.00  0.00    +0.000 A 
ATOM     18  C   UNK A   2     -11.116   4.716 130.163  0.00  0.00    +0.000 C 
ENDBRANCH   4  10
BRANCH   1  19
ATOM     19  C   UNK A   0      -6.042   1.353 129.161  0.00  0.00    +0.000 C 
BRANCH  19  23
ATOM     20  C   UNK A   0      -7.414  -1.069 125.856  0.00  0.00    +0.000 A 
ATOM     21  C   UNK A   0      -8.323  -0.475 126.722  0.00  0.00    +0.000 A 
ATOM     22  C   UNK A   0      -7.876   0.440 127.665  0.00  0.00    +0.000 A 
ATOM     23  C   UNK A   0      -6.501   0.630 127.885  0.00  0.00    +0.000 A 
ATOM     24  C   UNK A   0      -5.602   0.004 127.019  0.00  0.00    +0.000 A 
ATOM     25  C   UNK A   0      -6.057  -0.795 125.982  0.00  0.00    +0.000 A 
BRANCH  20  27
ATOM     26  C   UNK A   0      -8.737  -2.918 125.302  0.00  0.00    +0.000 C 
ATOM     27  O   UNK A   0      -7.949  -1.824 124.855  0.00  0.00    +0.000 OA
ENDBRANCH  20  27
ENDBRANCH  19  23
BRANCH  19  28
ATOM     28  C   UNK A   0      -5.245   2.561 128.567  0.00  0.00    +0.000 C 
ATOM     29  O   UNK A   0      -4.525   3.215 129.320  0.00  0.00    +0.000 OA
ATOM     30  N   UNK A   0      -5.419   2.946 127.251  0.00  0.00    +0.000 N 
ATOM     31  H   UNK A   0      -6.276   2.722 126.763  0.00  0.00    +0.000 HD
BRANCH  30  32
ATOM     32  C   UNK A   0      -4.499   3.894 126.595  0.00  0.00    +0.000 C 
ATOM     33  C   UNK A   0      -4.480   5.295 127.249  0.00  0.00    +0.000 C 
ATOM     34  C   UNK A   0      -3.103   3.253 126.582  0.00  0.00    +0.000 C 
ATOM     35  C   UNK A   0      -4.947   4.119 125.144  0.00  0.00    +0.000 C 
ENDBRANCH  30  32
ENDBRANCH  19  28
ENDBRANCH   1  19
BRANCH   8  36
ATOM     36  CB  LEU A   1      -7.503  -0.598 131.128  0.00  0.00    +0.000 C 
BRANCH  36  37
ATOM     37  CG  LEU A   1      -6.423  -1.147 132.081  0.00  0.00    +0.000 C 
ATOM     38  CD1 LEU A   1      -7.039  -2.328 132.819  0.00  0.00    +0.000 C 
ATOM     39  CD2 LEU A   1      -5.194  -1.631 131.338  0.00  0.00    +0.000 C 
ENDBRANCH  36  37
ENDBRANCH   8  36
TORSDOF 8
ENDMDL
