MODEL 1
REMARK VINA RESULT:      -9.6      0.000      0.000
REMARK  Name = CHEMBL2037493
REMARK  9 active torsions:
REMARK  status: ('A' for Active; 'I' for Inactive)
REMARK    1  A    between atoms: C_1  and  C_2
REMARK    2  A    between atoms: C_5  and  C_6
REMARK    3  A    between atoms: C_6  and  C_7
REMARK    4  A    between atoms: C_6  and  N_14
REMARK    5  A    between atoms: C_17  and  C_18
REMARK    6  A    between atoms: CA_30  and  CB_31
REMARK    7  A    between atoms: CB_31  and  CG_32
REMARK    8  A    between atoms: CG_32  and  CD1_33
REMARK    9  A    between atoms: CG_32  and  CD2_34
REMARK                            x       y       z     vdW  Elec       q    Type
REMARK                         _______ _______ _______ _____ _____    ______ ____
ROOT
ATOM      1  N   LEU A   1      -7.453   0.536 126.003  0.00  0.00    +0.000 N 
ATOM      2  C   UNK A   2      -7.315   1.771 125.342  0.00  0.00    +0.000 C 
ATOM      3  O   UNK A   2      -6.825   2.746 125.916  0.00  0.00    +0.000 OA
ATOM      4  C   UNK A   2      -8.015   1.864 123.934  0.00  0.00    +0.000 C 
ATOM      5  N   UNK A   2      -7.574   0.729 123.181  0.00  0.00    +0.000 N 
ATOM      6  C   LEU A   1      -7.871  -0.495 123.644  0.00  0.00    +0.000 C 
ATOM      7  O   LEU A   1      -7.931  -1.420 122.813  0.00  0.00    +0.000 OA
ATOM      8  CA  LEU A   1      -8.065  -0.613 125.185  0.00  0.00    +0.000 C 
ATOM      9  H   UNK A   2      -7.330   0.782 122.197  0.00  0.00    +0.000 HD
ENDROOT
BRANCH   4  10
ATOM     10  C   UNK A   2      -7.721   3.098 123.113  0.00  0.00    +0.000 C 
ATOM     11  C   UNK A   2      -6.251   3.292 122.763  0.00  0.00    +0.000 C 
ATOM     12  C   UNK A   2      -6.317   3.945 121.443  0.00  0.00    +0.000 A 
ATOM     13  C   UNK A   2      -5.252   4.443 120.723  0.00  0.00    +0.000 A 
ATOM     14  C   UNK A   2      -5.525   4.939 119.457  0.00  0.00    +0.000 A 
ATOM     15  C   UNK A   2      -6.825   4.863 118.925  0.00  0.00    +0.000 A 
ATOM     16  C   UNK A   2      -7.863   4.258 119.629  0.00  0.00    +0.000 A 
ATOM     17  C   UNK A   2      -7.593   3.810 120.895  0.00  0.00    +0.000 A 
ATOM     18  C   UNK A   2      -8.506   3.055 121.791  0.00  0.00    +0.000 C 
ENDBRANCH   4  10
BRANCH   1  19
ATOM     19  C   UNK A   0      -7.118   0.525 127.546  0.00  0.00    +0.000 C 
BRANCH  19  24
ATOM     20  C   UNK A   0      -5.545  -3.767 131.179  0.00  0.00    +0.000 C 
ATOM     21  C   UNK A   0      -5.923  -2.767 130.123  0.00  0.00    +0.000 A 
ATOM     22  C   UNK A   0      -7.262  -2.538 129.921  0.00  0.00    +0.000 A 
ATOM     23  C   UNK A   0      -7.685  -1.645 128.926  0.00  0.00    +0.000 A 
ATOM     24  C   UNK A   0      -6.740  -0.837 128.257  0.00  0.00    +0.000 A 
ATOM     25  C   UNK A   0      -5.420  -1.251 128.437  0.00  0.00    +0.000 A 
ATOM     26  N   UNK A   0      -4.993  -2.190 129.340  0.00  0.00    +0.000 NA
ENDBRANCH  19  24
BRANCH  19  27
ATOM     27  C   UNK A   0      -8.070   1.395 128.507  0.00  0.00    +0.000 C 
ATOM     28  O   UNK A   0      -9.151   1.821 128.073  0.00  0.00    +0.000 OA
ATOM     29  N   UNK A   0      -7.811   1.580 129.846  0.00  0.00    +0.000 N 
ATOM     30  C   UNK A   0      -6.558   1.758 130.531  0.00  0.00    +0.000 C 
ATOM     31  C   UNK A   0      -6.829   0.975 131.783  0.00  0.00    +0.000 C 
ATOM     32  C   UNK A   0      -8.216   1.374 132.202  0.00  0.00    +0.000 C 
ATOM     33  C   UNK A   0      -8.897   1.578 130.838  0.00  0.00    +0.000 C 
ENDBRANCH  19  27
ENDBRANCH   1  19
BRANCH   8  34
ATOM     34  CB  LEU A   1      -7.364  -1.906 125.555  0.00  0.00    +0.000 C 
BRANCH  34  35
ATOM     35  CG  LEU A   1      -8.149  -3.210 125.796  0.00  0.00    +0.000 C 
ATOM     36  CD1 LEU A   1      -9.677  -2.949 125.923  0.00  0.00    +0.000 C 
ATOM     37  CD2 LEU A   1      -8.016  -4.285 124.730  0.00  0.00    +0.000 C 
ENDBRANCH  34  35
ENDBRANCH   8  34
TORSDOF 6
ENDMDL
MODEL 2
REMARK VINA RESULT:      -9.4      3.901      7.239
REMARK  Name = CHEMBL2037493
REMARK  9 active torsions:
REMARK  status: ('A' for Active; 'I' for Inactive)
REMARK    1  A    between atoms: C_1  and  C_2
REMARK    2  A    between atoms: C_5  and  C_6
REMARK    3  A    between atoms: C_6  and  C_7
REMARK    4  A    between atoms: C_6  and  N_14
REMARK    5  A    between atoms: C_17  and  C_18
REMARK    6  A    between atoms: CA_30  and  CB_31
REMARK    7  A    between atoms: CB_31  and  CG_32
REMARK    8  A    between atoms: CG_32  and  CD1_33
REMARK    9  A    between atoms: CG_32  and  CD2_34
REMARK                            x       y       z     vdW  Elec       q    Type
REMARK                         _______ _______ _______ _____ _____    ______ ____
ROOT
ATOM      1  N   LEU A   1      -6.226   3.073 128.935  0.00  0.00    +0.000 N 
ATOM      2  C   UNK A   2      -6.749   1.942 128.281  0.00  0.00    +0.000 C 
ATOM      3  O   UNK A   2      -7.896   1.549 128.513  0.00  0.00    +0.000 OA
ATOM      4  C   UNK A   2      -5.714   1.118 127.427  0.00  0.00    +0.000 C 
ATOM      5  N   UNK A   2      -5.054   2.054 126.568  0.00  0.00    +0.000 N 
ATOM      6  C   LEU A   1      -4.341   3.040 127.132  0.00  0.00    +0.000 C 
ATOM      7  O   LEU A   1      -3.417   3.533 126.460  0.00  0.00    +0.000 OA
ATOM      8  CA  LEU A   1      -4.791   3.478 128.558  0.00  0.00    +0.000 C 
ATOM      9  H   UNK A   2      -4.839   1.852 125.597  0.00  0.00    +0.000 HD
ENDROOT
BRANCH   4  10
ATOM     10  C   UNK A   2      -6.280   0.019 126.555  0.00  0.00    +0.000 C 
ATOM     11  C   UNK A   2      -6.687   0.465 125.156  0.00  0.00    +0.000 C 
ATOM     12  C   UNK A   2      -6.414  -0.734 124.344  0.00  0.00    +0.000 A 
ATOM     13  C   UNK A   2      -6.715  -0.903 123.009  0.00  0.00    +0.000 A 
ATOM     14  C   UNK A   2      -6.289  -2.079 122.412  0.00  0.00    +0.000 A 
ATOM     15  C   UNK A   2      -5.524  -3.012 123.136  0.00  0.00    +0.000 A 
ATOM     16  C   UNK A   2      -5.140  -2.770 124.452  0.00  0.00    +0.000 A 
ATOM     17  C   UNK A   2      -5.602  -1.624 125.046  0.00  0.00    +0.000 A 
ATOM     18  C   UNK A   2      -5.251  -1.112 126.396  0.00  0.00    +0.000 C 
ENDBRANCH   4  10
BRANCH   1  19
ATOM     19  C   UNK A   0      -7.108   3.686 130.092  0.00  0.00    +0.000 C 
BRANCH  19  24
ATOM     20  C   UNK A   0     -11.097   7.928 129.655  0.00  0.00    +0.000 C 
ATOM     21  C   UNK A   0      -9.983   6.920 129.660  0.00  0.00    +0.000 A 
ATOM     22  C   UNK A   0      -9.116   6.944 130.726  0.00  0.00    +0.000 A 
ATOM     23  C   UNK A   0      -8.032   6.056 130.775  0.00  0.00    +0.000 A 
ATOM     24  C   UNK A   0      -7.933   5.011 129.830  0.00  0.00    +0.000 A 
ATOM     25  C   UNK A   0      -8.775   5.170 128.729  0.00  0.00    +0.000 A 
ATOM     26  N   UNK A   0      -9.783   6.092 128.619  0.00  0.00    +0.000 NA
ENDBRANCH  19  24
BRANCH  19  27
ATOM     27  C   UNK A   0      -6.460   3.729 131.563  0.00  0.00    +0.000 C 
ATOM     28  O   UNK A   0      -5.253   3.981 131.690  0.00  0.00    +0.000 OA
ATOM     29  N   UNK A   0      -7.211   3.636 132.713  0.00  0.00    +0.000 N 
ATOM     30  C   UNK A   0      -8.381   2.847 132.994  0.00  0.00    +0.000 C 
ATOM     31  C   UNK A   0      -9.156   3.819 133.837  0.00  0.00    +0.000 C 
ATOM     32  C   UNK A   0      -8.147   4.408 134.783  0.00  0.00    +0.000 C 
ATOM     33  C   UNK A   0      -6.890   4.448 133.897  0.00  0.00    +0.000 C 
ENDBRANCH  19  27
ENDBRANCH   1  19
BRANCH   8  34
ATOM     34  CB  LEU A   1      -4.698   4.991 128.534  0.00  0.00    +0.000 C 
BRANCH  34  35
ATOM     35  CG  LEU A   1      -3.640   5.749 129.359  0.00  0.00    +0.000 C 
ATOM     36  CD1 LEU A   1      -2.473   6.261 128.468  0.00  0.00    +0.000 C 
ATOM     37  CD2 LEU A   1      -4.126   6.971 130.120  0.00  0.00    +0.000 C 
ENDBRANCH  34  35
ENDBRANCH   8  34
TORSDOF 6
ENDMDL
MODEL 3
REMARK VINA RESULT:      -9.4      4.572      8.085
REMARK  Name = CHEMBL2037493
REMARK  9 active torsions:
REMARK  status: ('A' for Active; 'I' for Inactive)
REMARK    1  A    between atoms: C_1  and  C_2
REMARK    2  A    between atoms: C_5  and  C_6
REMARK    3  A    between atoms: C_6  and  C_7
REMARK    4  A    between atoms: C_6  and  N_14
REMARK    5  A    between atoms: C_17  and  C_18
REMARK    6  A    between atoms: CA_30  and  CB_31
REMARK    7  A    between atoms: CB_31  and  CG_32
REMARK    8  A    between atoms: CG_32  and  CD1_33
REMARK    9  A    between atoms: CG_32  and  CD2_34
REMARK                            x       y       z     vdW  Elec       q    Type
REMARK                         _______ _______ _______ _____ _____    ______ ____
ROOT
ATOM      1  N   LEU A   1      -5.755   2.792 129.683  0.00  0.00    +0.000 N 
ATOM      2  C   UNK A   2      -6.178   1.490 129.357  0.00  0.00    +0.000 C 
ATOM      3  O   UNK A   2      -7.267   1.061 129.745  0.00  0.00    +0.000 OA
ATOM      4  C   UNK A   2      -5.090   0.580 128.671  0.00  0.00    +0.000 C 
ATOM      5  N   UNK A   2      -4.563   1.331 127.572  0.00  0.00    +0.000 N 
ATOM      6  C   LEU A   1      -3.940   2.489 127.835  0.00  0.00    +0.000 C 
ATOM      7  O   LEU A   1      -3.097   2.884 127.008  0.00  0.00    +0.000 OA
ATOM      8  CA  LEU A   1      -4.386   3.224 129.133  0.00  0.00    +0.000 C 
ATOM      9  H   UNK A   2      -4.360   0.915 126.668  0.00  0.00    +0.000 HD
ENDROOT
BRANCH   4  10
ATOM     10  C   UNK A   2      -5.565  -0.749 128.129  0.00  0.00    +0.000 C 
ATOM     11  C   UNK A   2      -6.183  -1.674 129.170  0.00  0.00    +0.000 C 
ATOM     12  C   UNK A   2      -7.203  -2.400 128.392  0.00  0.00    +0.000 A 
ATOM     13  C   UNK A   2      -7.981  -3.447 128.839  0.00  0.00    +0.000 A 
ATOM     14  C   UNK A   2      -8.946  -3.930 127.968  0.00  0.00    +0.000 A 
ATOM     15  C   UNK A   2      -9.153  -3.317 126.719  0.00  0.00    +0.000 A 
ATOM     16  C   UNK A   2      -8.428  -2.193 126.333  0.00  0.00    +0.000 A 
ATOM     17  C   UNK A   2      -7.447  -1.750 127.182  0.00  0.00    +0.000 A 
ATOM     18  C   UNK A   2      -6.617  -0.527 127.030  0.00  0.00    +0.000 C 
ENDBRANCH   4  10
BRANCH   1  19
ATOM     19  C   UNK A   0      -6.659   3.588 130.704  0.00  0.00    +0.000 C 
BRANCH  19  24
ATOM     20  C   UNK A   0     -10.659   7.681 129.545  0.00  0.00    +0.000 C 
ATOM     21  C   UNK A   0      -9.545   6.687 129.719  0.00  0.00    +0.000 A 
ATOM     22  C   UNK A   0      -8.643   6.921 130.728  0.00  0.00    +0.000 A 
ATOM     23  C   UNK A   0      -7.558   6.053 130.921  0.00  0.00    +0.000 A 
ATOM     24  C   UNK A   0      -7.491   4.838 130.206  0.00  0.00    +0.000 A 
ATOM     25  C   UNK A   0      -8.370   4.775 129.123  0.00  0.00    +0.000 A 
ATOM     26  N   UNK A   0      -9.380   5.663 128.862  0.00  0.00    +0.000 NA
ENDBRANCH  19  24
BRANCH  19  27
ATOM     27  C   UNK A   0      -6.030   3.894 132.153  0.00  0.00    +0.000 C 
ATOM     28  O   UNK A   0      -4.840   4.230 132.242  0.00  0.00    +0.000 OA
ATOM     29  N   UNK A   0      -6.787   3.938 133.301  0.00  0.00    +0.000 N 
ATOM     30  C   UNK A   0      -7.915   3.137 133.698  0.00  0.00    +0.000 C 
ATOM     31  C   UNK A   0      -8.752   4.182 134.379  0.00  0.00    +0.000 C 
ATOM     32  C   UNK A   0      -7.788   4.966 135.225  0.00  0.00    +0.000 C 
ATOM     33  C   UNK A   0      -6.525   4.939 134.346  0.00  0.00    +0.000 C 
ENDBRANCH  19  27
ENDBRANCH   1  19
BRANCH   8  34
ATOM     34  CB  LEU A   1      -4.455   4.686 128.735  0.00  0.00    +0.000 C 
BRANCH  34  35
ATOM     35  CG  LEU A   1      -3.512   5.737 129.351  0.00  0.00    +0.000 C 
ATOM     36  CD1 LEU A   1      -2.397   6.166 128.355  0.00  0.00    +0.000 C 
ATOM     37  CD2 LEU A   1      -4.156   7.034 129.812  0.00  0.00    +0.000 C 
ENDBRANCH  34  35
ENDBRANCH   8  34
TORSDOF 6
ENDMDL
MODEL 4
REMARK VINA RESULT:      -9.3      4.117      7.214
REMARK  Name = CHEMBL2037493
REMARK  9 active torsions:
REMARK  status: ('A' for Active; 'I' for Inactive)
REMARK    1  A    between atoms: C_1  and  C_2
REMARK    2  A    between atoms: C_5  and  C_6
REMARK    3  A    between atoms: C_6  and  C_7
REMARK    4  A    between atoms: C_6  and  N_14
REMARK    5  A    between atoms: C_17  and  C_18
REMARK    6  A    between atoms: CA_30  and  CB_31
REMARK    7  A    between atoms: CB_31  and  CG_32
REMARK    8  A    between atoms: CG_32  and  CD1_33
REMARK    9  A    between atoms: CG_32  and  CD2_34
REMARK                            x       y       z     vdW  Elec       q    Type
REMARK                         _______ _______ _______ _____ _____    ______ ____
ROOT
ATOM      1  N   LEU A   1      -8.121   2.875 129.596  0.00  0.00    +0.000 N 
ATOM      2  C   UNK A   2      -8.860   4.072 129.563  0.00  0.00    +0.000 C 
ATOM      3  O   UNK A   2      -8.754   4.857 128.617  0.00  0.00    +0.000 OA
ATOM      4  C   UNK A   2      -9.638   4.421 130.887  0.00  0.00    +0.000 C 
ATOM      5  N   UNK A   2     -10.396   3.258 131.236  0.00  0.00    +0.000 N 
ATOM      6  C   LEU A   1      -9.733   2.124 131.504  0.00  0.00    +0.000 C 
ATOM      7  O   LEU A   1     -10.296   1.295 132.241  0.00  0.00    +0.000 OA
ATOM      8  CA  LEU A   1      -8.344   1.967 130.817  0.00  0.00    +0.000 C 
ATOM      9  H   UNK A   2     -11.348   3.307 131.584  0.00  0.00    +0.000 HD
ENDROOT
BRANCH   4  10
ATOM     10  C   UNK A   2     -10.596   5.588 130.820  0.00  0.00    +0.000 C 
ATOM     11  C   UNK A   2     -10.027   6.841 130.165  0.00  0.00    +0.000 C 
ATOM     12  C   UNK A   2     -11.211   7.433 129.518  0.00  0.00    +0.000 A 
ATOM     13  C   UNK A   2     -11.268   8.652 128.875  0.00  0.00    +0.000 A 
ATOM     14  C   UNK A   2     -12.463   8.980 128.254  0.00  0.00    +0.000 A 
ATOM     15  C   UNK A   2     -13.533   8.067 128.234  0.00  0.00    +0.000 A 
ATOM     16  C   UNK A   2     -13.415   6.799 128.797  0.00  0.00    +0.000 A 
ATOM     17  C   UNK A   2     -12.245   6.500 129.445  0.00  0.00    +0.000 A 
ATOM     18  C   UNK A   2     -11.858   5.193 130.035  0.00  0.00    +0.000 C 
ENDBRANCH   4  10
BRANCH   1  19
ATOM     19  C   UNK A   0      -7.035   2.689 128.465  0.00  0.00    +0.000 C 
BRANCH  19  24
ATOM     20  C   UNK A   0      -7.751  -2.494 125.873  0.00  0.00    +0.000 C 
ATOM     21  C   UNK A   0      -7.483  -1.117 126.409  0.00  0.00    +0.000 A 
ATOM     22  C   UNK A   0      -8.506  -0.202 126.337  0.00  0.00    +0.000 A 
ATOM     23  C   UNK A   0      -8.311   1.113 126.785  0.00  0.00    +0.000 A 
ATOM     24  C   UNK A   0      -7.131   1.453 127.482  0.00  0.00    +0.000 A 
ATOM     25  C   UNK A   0      -6.119   0.498 127.370  0.00  0.00    +0.000 A 
ATOM     26  N   UNK A   0      -6.263  -0.762 126.852  0.00  0.00    +0.000 NA
ENDBRANCH  19  24
BRANCH  19  27
ATOM     27  C   UNK A   0      -5.500   2.942 128.875  0.00  0.00    +0.000 C 
ATOM     28  O   UNK A   0      -5.094   2.561 129.983  0.00  0.00    +0.000 OA
ATOM     29  N   UNK A   0      -4.566   3.442 127.997  0.00  0.00    +0.000 N 
ATOM     30  C   UNK A   0      -4.701   4.437 126.967  0.00  0.00    +0.000 C 
ATOM     31  C   UNK A   0      -3.814   3.845 125.911  0.00  0.00    +0.000 C 
ATOM     32  C   UNK A   0      -2.584   3.386 126.644  0.00  0.00    +0.000 C 
ATOM     33  C   UNK A   0      -3.186   2.933 127.986  0.00  0.00    +0.000 C 
ENDBRANCH  19  27
ENDBRANCH   1  19
BRANCH   8  34
ATOM     34  CB  LEU A   1      -8.307   0.520 130.366  0.00  0.00    +0.000 C 
BRANCH  34  35
ATOM     35  CG  LEU A   1      -7.230  -0.457 130.874  0.00  0.00    +0.000 C 
ATOM     36  CD1 LEU A   1      -7.381  -0.743 132.395  0.00  0.00    +0.000 C 
ATOM     37  CD2 LEU A   1      -7.195  -1.826 130.213  0.00  0.00    +0.000 C 
ENDBRANCH  34  35
ENDBRANCH   8  34
TORSDOF 6
ENDMDL
MODEL 5
REMARK VINA RESULT:      -9.3      5.915      8.443
REMARK  Name = CHEMBL2037493
REMARK  9 active torsions:
REMARK  status: ('A' for Active; 'I' for Inactive)
REMARK    1  A    between atoms: C_1  and  C_2
REMARK    2  A    between atoms: C_5  and  C_6
REMARK    3  A    between atoms: C_6  and  C_7
REMARK    4  A    between atoms: C_6  and  N_14
REMARK    5  A    between atoms: C_17  and  C_18
REMARK    6  A    between atoms: CA_30  and  CB_31
REMARK    7  A    between atoms: CB_31  and  CG_32
REMARK    8  A    between atoms: CG_32  and  CD1_33
REMARK    9  A    between atoms: CG_32  and  CD2_34
REMARK                            x       y       z     vdW  Elec       q    Type
REMARK                         _______ _______ _______ _____ _____    ______ ____
ROOT
ATOM      1  N   LEU A   1      -7.811   4.651 130.870  0.00  0.00    +0.000 N 
ATOM      2  C   UNK A   2      -8.929   5.460 130.593  0.00  0.00    +0.000 C 
ATOM      3  O   UNK A   2      -8.832   6.450 129.864  0.00  0.00    +0.000 OA
ATOM      4  C   UNK A   2     -10.219   5.136 131.437  0.00  0.00    +0.000 C 
ATOM      5  N   UNK A   2     -10.451   3.729 131.309  0.00  0.00    +0.000 N 
ATOM      6  C   LEU A   1      -9.511   2.887 131.764  0.00  0.00    +0.000 C 
ATOM      7  O   LEU A   1      -9.880   1.746 132.095  0.00  0.00    +0.000 OA
ATOM      8  CA  LEU A   1      -8.054   3.436 131.779  0.00  0.00    +0.000 C 
ATOM      9  H   UNK A   2     -11.377   3.333 131.186  0.00  0.00    +0.000 HD
ENDROOT
BRANCH   4  10
ATOM     10  C   UNK A   2     -11.490   5.847 131.028  0.00  0.00    +0.000 C 
ATOM     11  C   UNK A   2     -11.413   7.367 131.085  0.00  0.00    +0.000 C 
ATOM     12  C   UNK A   2     -12.302   7.777 129.982  0.00  0.00    +0.000 A 
ATOM     13  C   UNK A   2     -12.676   9.066 129.670  0.00  0.00    +0.000 A 
ATOM     14  C   UNK A   2     -13.451   9.238 128.533  0.00  0.00    +0.000 A 
ATOM     15  C   UNK A   2     -13.769   8.141 127.712  0.00  0.00    +0.000 A 
ATOM     16  C   UNK A   2     -13.289   6.863 127.990  0.00  0.00    +0.000 A 
ATOM     17  C   UNK A   2     -12.561   6.697 129.138  0.00  0.00    +0.000 A 
ATOM     18  C   UNK A   2     -11.873   5.460 129.590  0.00  0.00    +0.000 C 
ENDBRANCH   4  10
BRANCH   1  19
ATOM     19  C   UNK A   0      -6.417   5.181 130.351  0.00  0.00    +0.000 C 
BRANCH  19  24
ATOM     20  C   UNK A   0      -2.540   2.944 126.600  0.00  0.00    +0.000 C 
ATOM     21  C   UNK A   0      -3.635   3.397 127.524  0.00  0.00    +0.000 A 
ATOM     22  C   UNK A   0      -3.483   3.126 128.863  0.00  0.00    +0.000 A 
ATOM     23  C   UNK A   0      -4.484   3.487 129.775  0.00  0.00    +0.000 A 
ATOM     24  C   UNK A   0      -5.563   4.296 129.355  0.00  0.00    +0.000 A 
ATOM     25  C   UNK A   0      -5.688   4.388 127.968  0.00  0.00    +0.000 A 
ATOM     26  N   UNK A   0      -4.764   3.958 127.052  0.00  0.00    +0.000 NA
ENDBRANCH  19  24
BRANCH  19  27
ATOM     27  C   UNK A   0      -5.449   5.874 131.432  0.00  0.00    +0.000 C 
ATOM     28  O   UNK A   0      -5.737   5.813 132.636  0.00  0.00    +0.000 OA
ATOM     29  N   UNK A   0      -4.229   6.420 131.101  0.00  0.00    +0.000 N 
ATOM     30  C   UNK A   0      -3.828   7.147 129.926  0.00  0.00    +0.000 C 
ATOM     31  C   UNK A   0      -2.438   6.609 129.746  0.00  0.00    +0.000 C 
ATOM     32  C   UNK A   0      -1.837   6.607 131.125  0.00  0.00    +0.000 C 
ATOM     33  C   UNK A   0      -3.065   6.273 131.988  0.00  0.00    +0.000 C 
ENDBRANCH  19  27
ENDBRANCH   1  19
BRANCH   8  34
ATOM     34  CB  LEU A   1      -7.209   2.277 131.286  0.00  0.00    +0.000 C 
BRANCH  34  35
ATOM     35  CG  LEU A   1      -6.256   1.513 132.226  0.00  0.00    +0.000 C 
ATOM     36  CD1 LEU A   1      -5.727   2.421 133.372  0.00  0.00    +0.000 C 
ATOM     37  CD2 LEU A   1      -6.831   0.290 132.920  0.00  0.00    +0.000 C 
ENDBRANCH  34  35
ENDBRANCH   8  34
TORSDOF 6
ENDMDL
MODEL 6
REMARK VINA RESULT:      -9.3      1.588      1.960
REMARK  Name = CHEMBL2037493
REMARK  9 active torsions:
REMARK  status: ('A' for Active; 'I' for Inactive)
REMARK    1  A    between atoms: C_1  and  C_2
REMARK    2  A    between atoms: C_5  and  C_6
REMARK    3  A    between atoms: C_6  and  C_7
REMARK    4  A    between atoms: C_6  and  N_14
REMARK    5  A    between atoms: C_17  and  C_18
REMARK    6  A    between atoms: CA_30  and  CB_31
REMARK    7  A    between atoms: CB_31  and  CG_32
REMARK    8  A    between atoms: CG_32  and  CD1_33
REMARK    9  A    between atoms: CG_32  and  CD2_34
REMARK                            x       y       z     vdW  Elec       q    Type
REMARK                         _______ _______ _______ _____ _____    ______ ____
ROOT
ATOM      1  N   LEU A   1      -7.740   1.040 127.557  0.00  0.00    +0.000 N 
ATOM      2  C   UNK A   2      -7.583   2.143 126.697  0.00  0.00    +0.000 C 
ATOM      3  O   UNK A   2      -7.193   3.231 127.127  0.00  0.00    +0.000 OA
ATOM      4  C   UNK A   2      -8.137   1.943 125.236  0.00  0.00    +0.000 C 
ATOM      5  N   UNK A   2      -7.576   0.719 124.749  0.00  0.00    +0.000 N 
ATOM      6  C   LEU A   1      -7.871  -0.417 125.397  0.00  0.00    +0.000 C 
ATOM      7  O   LEU A   1      -7.808  -1.477 124.748  0.00  0.00    +0.000 OA
ATOM      8  CA  LEU A   1      -8.218  -0.270 126.909  0.00  0.00    +0.000 C 
ATOM      9  H   UNK A   2      -7.234   0.611 123.799  0.00  0.00    +0.000 HD
ENDROOT
BRANCH   4  10
ATOM     10  C   UNK A   2      -7.808   3.027 124.235  0.00  0.00    +0.000 C 
ATOM     11  C   UNK A   2      -6.362   3.030 123.756  0.00  0.00    +0.000 C 
ATOM     12  C   UNK A   2      -6.483   3.510 122.367  0.00  0.00    +0.000 A 
ATOM     13  C   UNK A   2      -5.444   3.804 121.510  0.00  0.00    +0.000 A 
ATOM     14  C   UNK A   2      -5.780   4.156 120.212  0.00  0.00    +0.000 A 
ATOM     15  C   UNK A   2      -7.122   4.138 119.791  0.00  0.00    +0.000 A 
ATOM     16  C   UNK A   2      -8.145   3.733 120.645  0.00  0.00    +0.000 A 
ATOM     17  C   UNK A   2      -7.807   3.429 121.937  0.00  0.00    +0.000 A 
ATOM     18  C   UNK A   2      -8.703   2.888 122.992  0.00  0.00    +0.000 C 
ENDBRANCH   4  10
BRANCH   1  19
ATOM     19  C   UNK A   0      -7.566   1.323 129.100  0.00  0.00    +0.000 C 
BRANCH  19  24
ATOM     20  C   UNK A   0      -6.186  -2.174 133.569  0.00  0.00    +0.000 C 
ATOM     21  C   UNK A   0      -6.523  -1.404 132.324  0.00  0.00    +0.000 A 
ATOM     22  C   UNK A   0      -7.850  -1.136 132.086  0.00  0.00    +0.000 A 
ATOM     23  C   UNK A   0      -8.237  -0.455 130.924  0.00  0.00    +0.000 A 
ATOM     24  C   UNK A   0      -7.258   0.125 130.088  0.00  0.00    +0.000 A 
ATOM     25  C   UNK A   0      -5.963  -0.326 130.345  0.00  0.00    +0.000 A 
ATOM     26  N   UNK A   0      -5.576  -1.072 131.426  0.00  0.00    +0.000 NA
ENDBRANCH  19  24
BRANCH  19  27
ATOM     27  C   UNK A   0      -8.615   2.335 129.781  0.00  0.00    +0.000 C 
ATOM     28  O   UNK A   0      -9.652   2.638 129.173  0.00  0.00    +0.000 OA
ATOM     29  N   UNK A   0      -8.488   2.781 131.077  0.00  0.00    +0.000 N 
ATOM     30  C   UNK A   0      -7.310   3.123 131.828  0.00  0.00    +0.000 C 
ATOM     31  C   UNK A   0      -7.694   2.587 133.177  0.00  0.00    +0.000 C 
ATOM     32  C   UNK A   0      -9.119   3.021 133.380  0.00  0.00    +0.000 C 
ATOM     33  C   UNK A   0      -9.666   2.939 131.944  0.00  0.00    +0.000 C 
ENDBRANCH  19  27
ENDBRANCH   1  19
BRANCH   8  34
ATOM     34  CB  LEU A   1      -7.509  -1.434 127.573  0.00  0.00    +0.000 C 
BRANCH  34  35
ATOM     35  CG  LEU A   1      -8.290  -2.626 128.162  0.00  0.00    +0.000 C 
ATOM     36  CD1 LEU A   1      -8.800  -3.587 127.051  0.00  0.00    +0.000 C 
ATOM     37  CD2 LEU A   1      -7.532  -3.512 129.138  0.00  0.00    +0.000 C 
ENDBRANCH  34  35
ENDBRANCH   8  34
TORSDOF 6
ENDMDL
MODEL 7
REMARK VINA RESULT:      -9.1      4.324      7.938
REMARK  Name = CHEMBL2037493
REMARK  9 active torsions:
REMARK  status: ('A' for Active; 'I' for Inactive)
REMARK    1  A    between atoms: C_1  and  C_2
REMARK    2  A    between atoms: C_5  and  C_6
REMARK    3  A    between atoms: C_6  and  C_7
REMARK    4  A    between atoms: C_6  and  N_14
REMARK    5  A    between atoms: C_17  and  C_18
REMARK    6  A    between atoms: CA_30  and  CB_31
REMARK    7  A    between atoms: CB_31  and  CG_32
REMARK    8  A    between atoms: CG_32  and  CD1_33
REMARK    9  A    between atoms: CG_32  and  CD2_34
REMARK                            x       y       z     vdW  Elec       q    Type
REMARK                         _______ _______ _______ _____ _____    ______ ____
ROOT
ATOM      1  N   LEU A   1      -7.198   2.517 130.769  0.00  0.00    +0.000 N 
ATOM      2  C   UNK A   2      -6.985   1.837 129.555  0.00  0.00    +0.000 C 
ATOM      3  O   UNK A   2      -6.323   2.348 128.649  0.00  0.00    +0.000 OA
ATOM      4  C   UNK A   2      -7.816   0.512 129.371  0.00  0.00    +0.000 C 
ATOM      5  N   UNK A   2      -7.598  -0.276 130.546  0.00  0.00    +0.000 N 
ATOM      6  C   LEU A   1      -7.987   0.224 131.728  0.00  0.00    +0.000 C 
ATOM      7  O   LEU A   1      -8.246  -0.589 132.634  0.00  0.00    +0.000 OA
ATOM      8  CA  LEU A   1      -8.027   1.777 131.831  0.00  0.00    +0.000 C 
ATOM      9  H   UNK A   2      -7.456  -1.281 130.516  0.00  0.00    +0.000 HD
ENDROOT
BRANCH   4  10
ATOM     10  C   UNK A   2      -7.466  -0.345 128.175  0.00  0.00    +0.000 C 
ATOM     11  C   UNK A   2      -7.790  -1.824 128.338  0.00  0.00    +0.000 C 
ATOM     12  C   UNK A   2      -8.135  -2.232 126.964  0.00  0.00    +0.000 A 
ATOM     13  C   UNK A   2      -8.401  -3.515 126.534  0.00  0.00    +0.000 A 
ATOM     14  C   UNK A   2      -8.795  -3.666 125.213  0.00  0.00    +0.000 A 
ATOM     15  C   UNK A   2      -8.976  -2.542 124.387  0.00  0.00    +0.000 A 
ATOM     16  C   UNK A   2      -8.805  -1.249 124.875  0.00  0.00    +0.000 A 
ATOM     17  C   UNK A   2      -8.375  -1.111 126.169  0.00  0.00    +0.000 A 
ATOM     18  C   UNK A   2      -8.215   0.155 126.929  0.00  0.00    +0.000 C 
ENDBRANCH   4  10
BRANCH   1  19
ATOM     19  C   UNK A   0      -6.704   4.016 130.829  0.00  0.00    +0.000 C 
BRANCH  19  24
ATOM     20  C   UNK A   0     -11.006   7.676 129.349  0.00  0.00    +0.000 C 
ATOM     21  C   UNK A   0      -9.814   6.799 129.608  0.00  0.00    +0.000 A 
ATOM     22  C   UNK A   0      -8.997   7.139 130.660  0.00  0.00    +0.000 A 
ATOM     23  C   UNK A   0      -7.847   6.386 130.934  0.00  0.00    +0.000 A 
ATOM     24  C   UNK A   0      -7.623   5.169 130.254  0.00  0.00    +0.000 A 
ATOM     25  C   UNK A   0      -8.428   4.999 129.127  0.00  0.00    +0.000 A 
ATOM     26  N   UNK A   0      -9.502   5.779 128.788  0.00  0.00    +0.000 NA
ENDBRANCH  19  24
BRANCH  19  27
ATOM     27  C   UNK A   0      -5.169   4.296 130.438  0.00  0.00    +0.000 C 
ATOM     28  O   UNK A   0      -4.910   5.049 129.487  0.00  0.00    +0.000 OA
ATOM     29  N   UNK A   0      -4.111   3.850 131.197  0.00  0.00    +0.000 N 
ATOM     30  C   UNK A   0      -3.947   2.620 131.925  0.00  0.00    +0.000 C 
ATOM     31  C   UNK A   0      -3.223   3.128 133.138  0.00  0.00    +0.000 C 
ATOM     32  C   UNK A   0      -2.182   4.073 132.606  0.00  0.00    +0.000 C 
ATOM     33  C   UNK A   0      -2.918   4.686 131.402  0.00  0.00    +0.000 C 
ENDBRANCH  19  27
ENDBRANCH   1  19
BRANCH   8  34
ATOM     34  CB  LEU A   1      -7.451   2.079 133.201  0.00  0.00    +0.000 C 
BRANCH  34  35
ATOM     35  CG  LEU A   1      -8.028   3.195 134.093  0.00  0.00    +0.000 C 
ATOM     36  CD1 LEU A   1      -6.965   4.283 134.417  0.00  0.00    +0.000 C 
ATOM     37  CD2 LEU A   1      -9.219   3.957 133.534  0.00  0.00    +0.000 C 
ENDBRANCH  34  35
ENDBRANCH   8  34
TORSDOF 6
ENDMDL
MODEL 8
REMARK VINA RESULT:      -9.1      2.157      5.027
REMARK  Name = CHEMBL2037493
REMARK  9 active torsions:
REMARK  status: ('A' for Active; 'I' for Inactive)
REMARK    1  A    between atoms: C_1  and  C_2
REMARK    2  A    between atoms: C_5  and  C_6
REMARK    3  A    between atoms: C_6  and  C_7
REMARK    4  A    between atoms: C_6  and  N_14
REMARK    5  A    between atoms: C_17  and  C_18
REMARK    6  A    between atoms: CA_30  and  CB_31
REMARK    7  A    between atoms: CB_31  and  CG_32
REMARK    8  A    between atoms: CG_32  and  CD1_33
REMARK    9  A    between atoms: CG_32  and  CD2_34
REMARK                            x       y       z     vdW  Elec       q    Type
REMARK                         _______ _______ _______ _____ _____    ______ ____
ROOT
ATOM      1  N   LEU A   1      -6.704   1.368 128.355  0.00  0.00    +0.000 N 
ATOM      2  C   UNK A   2      -7.097   2.016 127.169  0.00  0.00    +0.000 C 
ATOM      3  O   UNK A   2      -8.287   2.106 126.859  0.00  0.00    +0.000 OA
ATOM      4  C   UNK A   2      -5.922   2.407 126.194  0.00  0.00    +0.000 C 
ATOM      5  N   UNK A   2      -4.961   3.122 126.978  0.00  0.00    +0.000 N 
ATOM      6  C   LEU A   1      -4.374   2.483 128.001  0.00  0.00    +0.000 C 
ATOM      7  O   LEU A   1      -3.253   2.890 128.359  0.00  0.00    +0.000 OA
ATOM      8  CA  LEU A   1      -5.195   1.328 128.645  0.00  0.00    +0.000 C 
ATOM      9  H   UNK A   2      -4.480   3.949 126.638  0.00  0.00    +0.000 HD
ENDROOT
BRANCH   4  10
ATOM     10  C   UNK A   2      -6.286   3.277 125.013  0.00  0.00    +0.000 C 
ATOM     11  C   UNK A   2      -5.122   4.059 124.418  0.00  0.00    +0.000 C 
ATOM     12  C   UNK A   2      -5.472   4.120 122.987  0.00  0.00    +0.000 A 
ATOM     13  C   UNK A   2      -4.798   4.821 122.010  0.00  0.00    +0.000 A 
ATOM     14  C   UNK A   2      -5.244   4.670 120.706  0.00  0.00    +0.000 A 
ATOM     15  C   UNK A   2      -6.293   3.781 120.408  0.00  0.00    +0.000 A 
ATOM     16  C   UNK A   2      -6.888   3.003 121.398  0.00  0.00    +0.000 A 
ATOM     17  C   UNK A   2      -6.469   3.191 122.689  0.00  0.00    +0.000 A 
ATOM     18  C   UNK A   2      -6.885   2.418 123.887  0.00  0.00    +0.000 C 
ENDBRANCH   4  10
BRANCH   1  19
ATOM     19  C   UNK A   0      -7.842   0.620 129.155  0.00  0.00    +0.000 C 
BRANCH  19  24
ATOM     20  C   UNK A   0      -9.228   3.789 133.860  0.00  0.00    +0.000 C 
ATOM     21  C   UNK A   0      -9.003   2.885 132.681  0.00  0.00    +0.000 A 
ATOM     22  C   UNK A   0      -9.348   3.367 131.441  0.00  0.00    +0.000 A 
ATOM     23  C   UNK A   0      -9.200   2.563 130.303  0.00  0.00    +0.000 A 
ATOM     24  C   UNK A   0      -8.522   1.327 130.396  0.00  0.00    +0.000 A 
ATOM     25  C   UNK A   0      -8.346   0.882 131.707  0.00  0.00    +0.000 A 
ATOM     26  N   UNK A   0      -8.573   1.620 132.839  0.00  0.00    +0.000 NA
ENDBRANCH  19  24
BRANCH  19  27
ATOM     27  C   UNK A   0      -7.608  -0.938 129.476  0.00  0.00    +0.000 C 
ATOM     28  O   UNK A   0      -7.348  -1.289 130.637  0.00  0.00    +0.000 OA
ATOM     29  N   UNK A   0      -7.817  -1.932 128.548  0.00  0.00    +0.000 N 
ATOM     30  C   UNK A   0      -7.567  -1.944 127.131  0.00  0.00    +0.000 C 
ATOM     31  C   UNK A   0      -8.763  -2.721 126.660  0.00  0.00    +0.000 C 
ATOM     32  C   UNK A   0      -8.887  -3.871 127.621  0.00  0.00    +0.000 C 
ATOM     33  C   UNK A   0      -8.421  -3.217 128.934  0.00  0.00    +0.000 C 
ENDBRANCH  19  27
ENDBRANCH   1  19
BRANCH   8  34
ATOM     34  CB  LEU A   1      -4.977   1.497 130.137  0.00  0.00    +0.000 C 
BRANCH  34  35
ATOM     35  CG  LEU A   1      -4.115   0.508 130.944  0.00  0.00    +0.000 C 
ATOM     36  CD1 LEU A   1      -4.695   0.264 132.366  0.00  0.00    +0.000 C 
ATOM     37  CD2 LEU A   1      -3.936  -0.877 130.345  0.00  0.00    +0.000 C 
ENDBRANCH  34  35
ENDBRANCH   8  34
TORSDOF 6
ENDMDL
MODEL 9
REMARK VINA RESULT:      -9.1      4.882      8.724
REMARK  Name = CHEMBL2037493
REMARK  9 active torsions:
REMARK  status: ('A' for Active; 'I' for Inactive)
REMARK    1  A    between atoms: C_1  and  C_2
REMARK    2  A    between atoms: C_5  and  C_6
REMARK    3  A    between atoms: C_6  and  C_7
REMARK    4  A    between atoms: C_6  and  N_14
REMARK    5  A    between atoms: C_17  and  C_18
REMARK    6  A    between atoms: CA_30  and  CB_31
REMARK    7  A    between atoms: CB_31  and  CG_32
REMARK    8  A    between atoms: CG_32  and  CD1_33
REMARK    9  A    between atoms: CG_32  and  CD2_34
REMARK                            x       y       z     vdW  Elec       q    Type
REMARK                         _______ _______ _______ _____ _____    ______ ____
ROOT
ATOM      1  N   LEU A   1      -6.945   3.855 131.116  0.00  0.00    +0.000 N 
ATOM      2  C   UNK A   2      -6.504   2.617 130.613  0.00  0.00    +0.000 C 
ATOM      3  O   UNK A   2      -5.444   2.117 130.998  0.00  0.00    +0.000 OA
ATOM      4  C   UNK A   2      -7.333   2.049 129.400  0.00  0.00    +0.000 C 
ATOM      5  N   UNK A   2      -8.709   2.079 129.793  0.00  0.00    +0.000 N 
ATOM      6  C   LEU A   1      -9.263   3.268 130.074  0.00  0.00    +0.000 C 
ATOM      7  O   LEU A   1     -10.497   3.368 129.943  0.00  0.00    +0.000 OA
ATOM      8  CA  LEU A   1      -8.288   4.374 130.576  0.00  0.00    +0.000 C 
ATOM      9  H   UNK A   2      -9.358   1.328 129.584  0.00  0.00    +0.000 HD
ENDROOT
BRANCH   4  10
ATOM     10  C   UNK A   2      -7.014   0.636 128.966  0.00  0.00    +0.000 C 
ATOM     11  C   UNK A   2      -7.503  -0.447 129.920  0.00  0.00    +0.000 C 
ATOM     12  C   UNK A   2      -7.816  -1.562 129.009  0.00  0.00    +0.000 A 
ATOM     13  C   UNK A   2      -8.195  -2.836 129.375  0.00  0.00    +0.000 A 
ATOM     14  C   UNK A   2      -8.532  -3.710 128.354  0.00  0.00    +0.000 A 
ATOM     15  C   UNK A   2      -8.548  -3.275 127.016  0.00  0.00    +0.000 A 
ATOM     16  C   UNK A   2      -8.265  -1.954 126.679  0.00  0.00    +0.000 A 
ATOM     17  C   UNK A   2      -7.892  -1.108 127.692  0.00  0.00    +0.000 A 
ATOM     18  C   UNK A   2      -7.637   0.351 127.590  0.00  0.00    +0.000 C 
ENDBRANCH   4  10
BRANCH   1  19
ATOM     19  C   UNK A   0      -5.934   4.635 132.045  0.00  0.00    +0.000 C 
BRANCH  19  24
ATOM     20  C   UNK A   0      -7.821   6.431 137.271  0.00  0.00    +0.000 C 
ATOM     21  C   UNK A   0      -7.231   5.875 136.007  0.00  0.00    +0.000 A 
ATOM     22  C   UNK A   0      -7.946   4.902 135.351  0.00  0.00    +0.000 A 
ATOM     23  C   UNK A   0      -7.435   4.314 134.185  0.00  0.00    +0.000 A 
ATOM     24  C   UNK A   0      -6.278   4.846 133.575  0.00  0.00    +0.000 A 
ATOM     25  C   UNK A   0      -5.568   5.725 134.393  0.00  0.00    +0.000 A 
ATOM     26  N   UNK A   0      -6.007   6.243 135.583  0.00  0.00    +0.000 NA
ENDBRANCH  19  24
BRANCH  19  27
ATOM     27  C   UNK A   0      -5.272   5.972 131.446  0.00  0.00    +0.000 C 
ATOM     28  O   UNK A   0      -5.991   6.954 131.205  0.00  0.00    +0.000 OA
ATOM     29  N   UNK A   0      -3.912   6.137 131.312  0.00  0.00    +0.000 N 
ATOM     30  C   UNK A   0      -2.895   5.187 130.946  0.00  0.00    +0.000 C 
ATOM     31  C   UNK A   0      -1.785   5.628 131.856  0.00  0.00    +0.000 C 
ATOM     32  C   UNK A   0      -1.774   7.129 131.762  0.00  0.00    +0.000 C 
ATOM     33  C   UNK A   0      -3.273   7.431 131.595  0.00  0.00    +0.000 C 
ENDBRANCH  19  27
ENDBRANCH   1  19
BRANCH   8  34
ATOM     34  CB  LEU A   1      -9.039   5.058 131.701  0.00  0.00    +0.000 C 
BRANCH  34  35
ATOM     35  CG  LEU A   1      -9.698   6.438 131.511  0.00  0.00    +0.000 C 
ATOM     36  CD1 LEU A   1      -9.375   7.045 130.117  0.00  0.00    +0.000 C 
ATOM     37  CD2 LEU A   1     -11.214   6.482 131.624  0.00  0.00    +0.000 C 
ENDBRANCH  34  35
ENDBRANCH   8  34
TORSDOF 6
ENDMDL
