MODEL 1
REMARK VINA RESULT:     -10.3      0.000      0.000
REMARK  Name = CHEMBL4126100
REMARK  22 active torsions:
REMARK  status: ('A' for Active; 'I' for Inactive)
REMARK    1  A    between atoms: C_1  and  C_2
REMARK    2  A    between atoms: C_2  and  C_3
REMARK    3  A    between atoms: C_3  and  C_4
REMARK    4  A    between atoms: C_3  and  C_5
REMARK    5  A    between atoms: C_9  and  C_10
REMARK    6  A    between atoms: C_10  and  C_11
REMARK    7  A    between atoms: C_14  and  O_15
REMARK    8  A    between atoms: C_34  and  C_35
REMARK    9  A    between atoms: C_41  and  C_42
REMARK   10  A    between atoms: N_44  and  C_45
REMARK   11  A    between atoms: C_45  and  C_46
REMARK   12  A    between atoms: C_45  and  C_53
REMARK   13  A    between atoms: C_46  and  C_47
REMARK   14  A    between atoms: C_47  and  C_48
REMARK   15  A    between atoms: C_48  and  N_49
REMARK   16  A    between atoms: N_55  and  C_56
REMARK   17  A    between atoms: C_56  and  C_57
REMARK   18  A    between atoms: C_63  and  C_64
REMARK   19  A    between atoms: C_64  and  C_65
REMARK   20  A    between atoms: C_71  and  C_72
REMARK   21  A    between atoms: C_72  and  C_73
REMARK   22  A    between atoms: C_73  and  C_74
REMARK                            x       y       z     vdW  Elec       q    Type
REMARK                         _______ _______ _______ _____ _____    ______ ____
ROOT
ATOM      1  C   UNL     1      -6.845   2.778 125.941  0.00  0.00    +0.000 C 
ATOM      2  N   UNL     1      -8.092   3.178 127.730  0.00  0.00    +0.000 N 
ATOM      3  C   UNL     1      -8.638   2.396 129.301  0.00  0.00    +0.000 C 
ATOM      4  O   UNL     1      -8.767   3.454 130.022  0.00  0.00    +0.000 OA
ATOM      5  C   UNL     1      -8.057   0.525 128.795  0.00  0.00    +0.000 C 
ATOM      6  N   UNL     1      -8.393   0.470 126.795  0.00  0.00    +0.000 N 
ATOM      7  C   UNL     1      -8.345   2.081 125.711  0.00  0.00    +0.000 C 
ATOM      8  O   UNL     1      -8.690   2.007 124.521  0.00  0.00    +0.000 OA
ATOM      9  C   UNL     1      -7.627   4.023 126.553  0.00  0.00    +0.000 C 
ATOM     10  C   UNL     1      -6.946   4.194 128.609  0.00  0.00    +0.000 C 
ATOM     11  S   UNL     1      -4.764   4.930 128.798  0.00  0.00    +0.000 S 
ATOM     12  C   UNL     1      -4.501   4.764 130.324  0.00  0.00    +0.000 C 
ATOM     13  C   UNL     1      -3.485   5.329 131.022  0.00  0.00    +0.000 A 
ATOM     14  C   UNL     1      -3.037   6.217 130.081  0.00  0.00    +0.000 A 
ATOM     15  C   UNL     1      -1.853   6.658 130.256  0.00  0.00    +0.000 A 
ATOM     16  C   UNL     1      -1.403   6.490 131.523  0.00  0.00    +0.000 A 
ATOM     17  C   UNL     1      -2.020   5.740 132.532  0.00  0.00    +0.000 A 
ATOM     18  C   UNL     1      -3.007   4.909 132.237  0.00  0.00    +0.000 A 
ATOM     19  C   UNL     1      -3.422   3.844 133.235  0.00  0.00    +0.000 C 
ATOM     20  S   UNL     1      -2.786   1.860 132.938  0.00  0.00    +0.000 S 
ATOM     21  C   UNL     1      -4.412   0.258 133.849  0.00  0.00    +0.000 C 
ATOM     22  C   UNL     1      -5.100  -0.875 132.886  0.00  0.00    +0.000 C 
ATOM     23  N   UNL     1      -5.908  -0.483 131.752  0.00  0.00    +0.000 N 
ATOM     24  C   UNL     1      -5.887   1.185 130.752  0.00  0.00    +0.000 C 
ATOM     25  O   UNL     1      -6.880   1.897 130.497  0.00  0.00    +0.000 OA
ATOM     26  C   UNL     1      -4.701   1.932 130.291  0.00  0.00    +0.000 C 
ATOM     27  N   UNL     1      -4.053   1.817 128.922  0.00  0.00    +0.000 N 
ATOM     28  C   UNL     1      -4.513   2.112 127.679  0.00  0.00    +0.000 C 
ATOM     29  O   UNL     1      -4.266   1.572 126.626  0.00  0.00    +0.000 OA
ATOM     30  C   UNL     1      -5.669   2.929 127.819  0.00  0.00    +0.000 C 
ATOM     31  N   UNL     1      -5.753   4.841 127.074  0.00  0.00    +0.000 N 
ATOM     32  C   UNL     1      -6.141   4.754 125.683  0.00  0.00    +0.000 C 
ATOM     33  O   UNL     1      -6.380   5.837 125.199  0.00  0.00    +0.000 OA
ATOM     34  H   UNL     1      -8.949   3.303 128.706  0.00  0.00    +0.000 HD
ATOM     35  H   UNL     1      -9.231   0.517 127.234  0.00  0.00    +0.000 HD
ATOM     36  H   UNL     1      -6.833  -0.978 131.981  0.00  0.00    +0.000 HD
ATOM     37  H   UNL     1      -3.216   1.295 128.855  0.00  0.00    +0.000 HD
ATOM     38  H   UNL     1      -6.264   5.478 127.742  0.00  0.00    +0.000 HD
ENDROOT
BRANCH  22  39
ATOM     39  C   UNL     1      -5.794  -1.647 133.862  0.00  0.00    +0.000 C 
ATOM     40  O   UNL     1      -6.986  -1.492 134.066  0.00  0.00    +0.000 OA
ATOM     41  N   UNL     1      -4.818  -2.555 134.242  0.00  0.00    +0.000 N 
ATOM     42  C   UNL     1      -3.455  -2.368 134.821  0.00  0.00    +0.000 C 
ATOM     43  C   UNL     1      -2.687  -3.477 134.212  0.00  0.00    +0.000 C 
ATOM     44  C   UNL     1      -3.712  -4.580 134.348  0.00  0.00    +0.000 C 
ATOM     45  C   UNL     1      -5.081  -3.953 134.129  0.00  0.00    +0.000 C 
BRANCH  45  46
ATOM     46  C   UNL     1      -5.959  -4.278 135.309  0.00  0.00    +0.000 C 
ATOM     47  O   UNL     1      -5.404  -4.617 136.359  0.00  0.00    +0.000 OA
ATOM     48  N   UNL     1      -7.330  -4.241 135.129  0.00  0.00    +0.000 N 
ATOM     49  H   UNL     1      -7.743  -4.144 134.203  0.00  0.00    +0.000 HD
BRANCH  48  50
ATOM     50  C   UNL     1      -8.291  -4.430 136.245  0.00  0.00    +0.000 C 
BRANCH  50  51
ATOM     51  C   UNL     1      -7.963  -3.473 137.440  0.00  0.00    +0.000 C 
ATOM     52  O   UNL     1      -8.001  -2.253 137.284  0.00  0.00    +0.000 OA
ATOM     53  N   UNL     1      -7.636  -4.043 138.659  0.00  0.00    +0.000 N 
ATOM     54  H   UNL     1      -7.613  -5.040 138.772  0.00  0.00    +0.000 HD
BRANCH  53  55
ATOM     55  C   UNL     1      -7.302  -3.235 139.836  0.00  0.00    +0.000 C 
BRANCH  55  56
ATOM     56  C   UNL     1      -8.521  -2.764 140.659  0.00  0.00    +0.000 C 
ATOM     57  N   UNL     1      -9.299  -1.759 140.131  0.00  0.00    +0.000 N 
ATOM     58  O   UNL     1      -8.797  -3.262 141.748  0.00  0.00    +0.000 OA
ATOM     59  H   UNL     1      -9.152  -1.295 139.254  0.00  0.00    +0.000 HD
ATOM     60  H   UNL     1     -10.107  -1.429 140.649  0.00  0.00    +0.000 HD
ENDBRANCH  55  56
ENDBRANCH  53  55
ENDBRANCH  50  51
BRANCH  50  61
ATOM     61  C   UNL     1      -8.250  -5.883 136.733  0.00  0.00    +0.000 C 
BRANCH  61  62
ATOM     62  C   UNL     1      -9.516  -6.647 136.380  0.00  0.00    +0.000 C 
BRANCH  62  63
ATOM     63  C   UNL     1     -10.645  -6.491 137.339  0.00  0.00    +0.000 C 
BRANCH  63  64
ATOM     64  N   UNL     1     -11.346  -5.212 137.206  0.00  0.00    +0.000 N 
ATOM     65  C   UNL     1     -11.406  -4.313 138.228  0.00  0.00    +0.000 C 
ATOM     66  N   UNL     1     -10.845  -4.501 139.376  0.00  0.00    +0.000 NA
ATOM     67  N   UNL     1     -12.083  -3.156 138.033  0.00  0.00    +0.000 N 
ATOM     68  H   UNL     1     -11.833  -5.060 136.324  0.00  0.00    +0.000 HD
ATOM     69  H   UNL     1     -10.364  -5.403 139.427  0.00  0.00    +0.000 HD
ATOM     70  H   UNL     1     -12.547  -2.876 137.187  0.00  0.00    +0.000 HD
ATOM     71  H   UNL     1     -12.103  -2.468 138.785  0.00  0.00    +0.000 HD
ENDBRANCH  63  64
ENDBRANCH  62  63
ENDBRANCH  61  62
ENDBRANCH  50  61
ENDBRANCH  48  50
ENDBRANCH  45  46
ENDBRANCH  22  39
BRANCH   1  72
ATOM     72  C   UNL     1      -5.838   3.035 124.259  0.00  0.00    +0.000 C 
ATOM     73  C   UNL     1      -4.432   3.962 124.233  0.00  0.00    +0.000 C 
BRANCH  72  75
ATOM     74  C   UNL     1      -5.957   3.675 121.285  0.00  0.00    +0.000 C 
ATOM     75  C   UNL     1      -6.370   3.598 122.780  0.00  0.00    +0.000 C 
ENDBRANCH  72  75
ENDBRANCH   1  72
BRANCH  26  76
ATOM     76  C   UNL     1      -5.205   3.066 131.206  0.00  0.00    +0.000 C 
BRANCH  76  77
ATOM     77  C   UNL     1      -6.031   3.821 132.292  0.00  0.00    +0.000 C 
ATOM     78  N   UNL     1      -6.905   4.596 131.788  0.00  0.00    +0.000 N 
ATOM     79  O   UNL     1      -6.207   3.588 133.467  0.00  0.00    +0.000 OA
ATOM     80  H   UNL     1      -7.122   3.976 131.068  0.00  0.00    +0.000 HD
ATOM     81  H   UNL     1      -7.707   5.141 131.880  0.00  0.00    +0.000 HD
ENDBRANCH  76  77
ENDBRANCH  26  76
BRANCH   5  82
ATOM     82  C   UNL     1      -6.645   0.084 128.612  0.00  0.00    +0.000 C 
BRANCH  82  83
ATOM     83  C   UNL     1      -6.927  -1.285 128.393  0.00  0.00    +0.000 A 
ATOM     84  C   UNL     1      -8.126  -2.051 129.660  0.00  0.00    +0.000 A 
ATOM     85  C   UNL     1      -7.457  -3.418 130.540  0.00  0.00    +0.000 A 
ATOM     86  C   UNL     1      -5.680  -3.782 130.273  0.00  0.00    +0.000 A 
ATOM     87  C   UNL     1      -4.670  -3.271 128.770  0.00  0.00    +0.000 A 
ATOM     88  C   UNL     1      -5.273  -1.958 127.950  0.00  0.00    +0.000 A 
BRANCH  86  89
ATOM     89  O   UNL     1      -5.338  -5.139 131.432  0.00  0.00    +0.000 OA
ATOM     90  H   UNL     1      -5.751  -6.066 131.477  0.00  0.00    +0.000 HD
ENDBRANCH  86  89
ENDBRANCH  82  83
ENDBRANCH   5  82
BRANCH  30  91
ATOM     91  C   UNL     1      -7.342   1.786 127.399  0.00  0.00    +0.000 C 
BRANCH  91  92
ATOM     92  C   UNL     1      -7.705   0.033 126.064  0.00  0.00    +0.000 C 
BRANCH  92  93
ATOM     93  C   UNL     1      -6.499  -0.411 124.901  0.00  0.00    +0.000 C 
ATOM     94  N   UNL     1      -7.253  -0.398 123.379  0.00  0.00    +0.000 N 
ATOM     95  O   UNL     1      -5.419  -0.898 125.151  0.00  0.00    +0.000 OA
ATOM     96  H   UNL     1      -8.311  -0.794 123.169  0.00  0.00    +0.000 HD
ATOM     97  H   UNL     1      -6.897  -0.906 122.584  0.00  0.00    +0.000 HD
ENDBRANCH  92  93
ENDBRANCH  91  92
ENDBRANCH  30  91
TORSDOF 20
ENDMDL
MODEL 2
REMARK VINA RESULT:     -10.0      4.225      8.306
REMARK  Name = CHEMBL4126100
REMARK  22 active torsions:
REMARK  status: ('A' for Active; 'I' for Inactive)
REMARK    1  A    between atoms: C_1  and  C_2
REMARK    2  A    between atoms: C_2  and  C_3
REMARK    3  A    between atoms: C_3  and  C_4
REMARK    4  A    between atoms: C_3  and  C_5
REMARK    5  A    between atoms: C_9  and  C_10
REMARK    6  A    between atoms: C_10  and  C_11
REMARK    7  A    between atoms: C_14  and  O_15
REMARK    8  A    between atoms: C_34  and  C_35
REMARK    9  A    between atoms: C_41  and  C_42
REMARK   10  A    between atoms: N_44  and  C_45
REMARK   11  A    between atoms: C_45  and  C_46
REMARK   12  A    between atoms: C_45  and  C_53
REMARK   13  A    between atoms: C_46  and  C_47
REMARK   14  A    between atoms: C_47  and  C_48
REMARK   15  A    between atoms: C_48  and  N_49
REMARK   16  A    between atoms: N_55  and  C_56
REMARK   17  A    between atoms: C_56  and  C_57
REMARK   18  A    between atoms: C_63  and  C_64
REMARK   19  A    between atoms: C_64  and  C_65
REMARK   20  A    between atoms: C_71  and  C_72
REMARK   21  A    between atoms: C_72  and  C_73
REMARK   22  A    between atoms: C_73  and  C_74
REMARK                            x       y       z     vdW  Elec       q    Type
REMARK                         _______ _______ _______ _____ _____    ______ ____
ROOT
ATOM      1  C   UNL     1      -7.776   4.557 130.097  0.00  0.00    +0.000 C 
ATOM      2  N   UNL     1      -5.645   3.953 129.984  0.00  0.00    +0.000 N 
ATOM      3  C   UNL     1      -4.268   3.353 131.041  0.00  0.00    +0.000 C 
ATOM      4  O   UNL     1      -3.634   2.648 130.170  0.00  0.00    +0.000 OA
ATOM      5  C   UNL     1      -5.160   3.812 132.797  0.00  0.00    +0.000 C 
ATOM      6  N   UNL     1      -6.200   5.496 132.352  0.00  0.00    +0.000 N 
ATOM      7  C   UNL     1      -6.830   5.856 130.550  0.00  0.00    +0.000 C 
ATOM      8  O   UNL     1      -7.341   6.961 130.309  0.00  0.00    +0.000 OA
ATOM      9  C   UNL     1      -6.703   4.303 128.947  0.00  0.00    +0.000 C 
ATOM     10  C   UNL     1      -5.882   2.330 129.332  0.00  0.00    +0.000 C 
ATOM     11  S   UNL     1      -7.371   0.614 128.908  0.00  0.00    +0.000 S 
ATOM     12  C   UNL     1      -6.596  -0.624 129.450  0.00  0.00    +0.000 C 
ATOM     13  C   UNL     1      -6.881  -1.921 129.178  0.00  0.00    +0.000 A 
ATOM     14  C   UNL     1      -7.771  -1.743 128.152  0.00  0.00    +0.000 A 
ATOM     15  C   UNL     1      -8.529  -2.736 127.899  0.00  0.00    +0.000 A 
ATOM     16  C   UNL     1      -8.064  -3.905 128.404  0.00  0.00    +0.000 A 
ATOM     17  C   UNL     1      -6.992  -4.059 129.292  0.00  0.00    +0.000 A 
ATOM     18  C   UNL     1      -6.488  -3.008 129.918  0.00  0.00    +0.000 A 
ATOM     19  C   UNL     1      -5.598  -3.205 131.130  0.00  0.00    +0.000 C 
ATOM     20  S   UNL     1      -6.404  -2.904 133.051  0.00  0.00    +0.000 S 
ATOM     21  C   UNL     1      -4.685  -2.131 134.628  0.00  0.00    +0.000 C 
ATOM     22  C   UNL     1      -4.859  -0.710 135.424  0.00  0.00    +0.000 C 
ATOM     23  N   UNL     1      -4.951   0.535 134.693  0.00  0.00    +0.000 N 
ATOM     24  C   UNL     1      -5.503   0.837 132.853  0.00  0.00    +0.000 C 
ATOM     25  O   UNL     1      -4.865   1.482 131.995  0.00  0.00    +0.000 OA
ATOM     26  C   UNL     1      -6.653   0.229 132.157  0.00  0.00    +0.000 C 
ATOM     27  N   UNL     1      -8.037   0.839 132.025  0.00  0.00    +0.000 N 
ATOM     28  C   UNL     1      -8.471   1.965 131.402  0.00  0.00    +0.000 C 
ATOM     29  O   UNL     1      -9.375   2.707 131.708  0.00  0.00    +0.000 OA
ATOM     30  C   UNL     1      -7.447   2.400 130.515  0.00  0.00    +0.000 C 
ATOM     31  N   UNL     1      -7.738   2.523 128.486  0.00  0.00    +0.000 N 
ATOM     32  C   UNL     1      -8.347   3.805 128.206  0.00  0.00    +0.000 C 
ATOM     33  O   UNL     1      -8.406   4.042 127.021  0.00  0.00    +0.000 OA
ATOM     34  H   UNL     1      -4.355   3.760 129.992  0.00  0.00    +0.000 HD
ATOM     35  H   UNL     1      -5.276   5.702 132.314  0.00  0.00    +0.000 HD
ATOM     36  H   UNL     1      -4.133   1.083 135.122  0.00  0.00    +0.000 HD
ATOM     37  H   UNL     1      -8.753   0.482 132.608  0.00  0.00    +0.000 HD
ATOM     38  H   UNL     1      -6.876   2.206 127.967  0.00  0.00    +0.000 HD
ENDROOT
BRANCH  22  39
ATOM     39  C   UNL     1      -3.752  -0.785 136.317  0.00  0.00    +0.000 C 
ATOM     40  O   UNL     1      -2.603  -0.776 135.910  0.00  0.00    +0.000 OA
ATOM     41  N   UNL     1      -4.383  -0.695 137.549  0.00  0.00    +0.000 N 
ATOM     42  C   UNL     1      -5.435  -1.537 138.192  0.00  0.00    +0.000 C 
ATOM     43  C   UNL     1      -6.226  -0.545 138.953  0.00  0.00    +0.000 C 
ATOM     44  C   UNL     1      -5.094   0.283 139.517  0.00  0.00    +0.000 C 
ATOM     45  C   UNL     1      -4.004   0.339 138.455  0.00  0.00    +0.000 C 
BRANCH  45  46
ATOM     46  C   UNL     1      -2.709  -0.133 139.062  0.00  0.00    +0.000 C 
ATOM     47  O   UNL     1      -2.774  -0.936 139.997  0.00  0.00    +0.000 OA
ATOM     48  N   UNL     1      -1.531   0.411 138.582  0.00  0.00    +0.000 N 
ATOM     49  H   UNL     1      -1.531   1.206 137.945  0.00  0.00    +0.000 HD
BRANCH  48  50
ATOM     50  C   UNL     1      -0.193  -0.060 139.022  0.00  0.00    +0.000 C 
BRANCH  50  51
ATOM     51  C   UNL     1       0.796   1.141 139.203  0.00  0.00    +0.000 C 
ATOM     52  O   UNL     1       0.377   2.236 139.579  0.00  0.00    +0.000 OA
ATOM     53  N   UNL     1       2.136   0.927 138.929  0.00  0.00    +0.000 N 
ATOM     54  H   UNL     1       2.463   0.028 138.627  0.00  0.00    +0.000 HD
BRANCH  53  55
ATOM     55  C   UNL     1       3.140   1.989 139.057  0.00  0.00    +0.000 C 
BRANCH  55  56
ATOM     56  C   UNL     1       3.198   2.965 137.862  0.00  0.00    +0.000 C 
ATOM     57  N   UNL     1       2.343   4.043 137.874  0.00  0.00    +0.000 N 
ATOM     58  O   UNL     1       3.976   2.795 136.926  0.00  0.00    +0.000 OA
ATOM     59  H   UNL     1       1.677   4.262 138.591  0.00  0.00    +0.000 HD
ATOM     60  H   UNL     1       2.359   4.701 137.103  0.00  0.00    +0.000 HD
ENDBRANCH  55  56
ENDBRANCH  53  55
ENDBRANCH  50  51
BRANCH  50  61
ATOM     61  C   UNL     1       0.383  -1.040 137.993  0.00  0.00    +0.000 C 
BRANCH  61  62
ATOM     62  C   UNL     1       0.733  -2.385 138.609  0.00  0.00    +0.000 C 
BRANCH  62  63
ATOM     63  C   UNL     1       0.827  -3.522 137.651  0.00  0.00    +0.000 C 
BRANCH  63  64
ATOM     64  N   UNL     1      -0.206  -3.493 136.614  0.00  0.00    +0.000 N 
ATOM     65  C   UNL     1       0.064  -3.815 135.318  0.00  0.00    +0.000 C 
ATOM     66  N   UNL     1       1.230  -4.185 134.904  0.00  0.00    +0.000 NA
ATOM     67  N   UNL     1      -0.942  -3.755 134.413  0.00  0.00    +0.000 N 
ATOM     68  H   UNL     1      -1.125  -3.164 136.908  0.00  0.00    +0.000 HD
ATOM     69  H   UNL     1       1.922  -4.194 135.658  0.00  0.00    +0.000 HD
ATOM     70  H   UNL     1      -1.896  -3.503 134.603  0.00  0.00    +0.000 HD
ATOM     71  H   UNL     1      -0.750  -4.026 133.449  0.00  0.00    +0.000 HD
ENDBRANCH  63  64
ENDBRANCH  62  63
ENDBRANCH  61  62
ENDBRANCH  50  61
ENDBRANCH  48  50
ENDBRANCH  45  46
ENDBRANCH  22  39
BRANCH   1  72
ATOM     72  C   UNL     1      -9.611   5.073 129.573  0.00  0.00    +0.000 C 
ATOM     73  C   UNL     1      -9.924   6.602 128.940  0.00  0.00    +0.000 C 
BRANCH  72  75
ATOM     74  C   UNL     1     -12.232   5.913 130.875  0.00  0.00    +0.000 C 
ATOM     75  C   UNL     1     -11.021   5.031 130.466  0.00  0.00    +0.000 C 
ENDBRANCH  72  75
ENDBRANCH   1  72
BRANCH  26  76
ATOM     76  C   UNL     1      -5.604  -0.395 131.216  0.00  0.00    +0.000 C 
BRANCH  76  77
ATOM     77  C   UNL     1      -4.228  -0.876 130.660  0.00  0.00    +0.000 C 
ATOM     78  N   UNL     1      -3.873  -0.238 129.619  0.00  0.00    +0.000 N 
ATOM     79  O   UNL     1      -3.327  -1.493 131.184  0.00  0.00    +0.000 OA
ATOM     80  H   UNL     1      -4.221   0.609 129.951  0.00  0.00    +0.000 HD
ATOM     81  H   UNL     1      -3.187   0.022 128.979  0.00  0.00    +0.000 HD
ENDBRANCH  76  77
ENDBRANCH  26  76
BRANCH   5  82
ATOM     82  C   UNL     1      -6.381   3.151 133.339  0.00  0.00    +0.000 C 
BRANCH  82  83
ATOM     83  C   UNL     1      -6.078   3.342 134.708  0.00  0.00    +0.000 A 
ATOM     84  C   UNL     1      -7.353   4.392 135.655  0.00  0.00    +0.000 A 
ATOM     85  C   UNL     1      -6.680   5.840 136.393  0.00  0.00    +0.000 A 
ATOM     86  C   UNL     1      -4.937   6.237 135.991  0.00  0.00    +0.000 A 
ATOM     87  C   UNL     1      -3.642   5.008 135.396  0.00  0.00    +0.000 A 
ATOM     88  C   UNL     1      -4.264   3.651 134.665  0.00  0.00    +0.000 A 
BRANCH  86  89
ATOM     89  O   UNL     1      -4.658   7.836 136.807  0.00  0.00    +0.000 OA
ATOM     90  H   UNL     1      -4.364   8.721 136.404  0.00  0.00    +0.000 HD
ENDBRANCH  86  89
ENDBRANCH  82  83
ENDBRANCH   5  82
BRANCH  30  91
ATOM     91  C   UNL     1      -6.522   4.059 131.336  0.00  0.00    +0.000 C 
BRANCH  91  92
ATOM     92  C   UNL     1      -7.181   5.618 132.794  0.00  0.00    +0.000 C 
BRANCH  92  93
ATOM     93  C   UNL     1      -8.876   5.859 133.068  0.00  0.00    +0.000 C 
ATOM     94  N   UNL     1      -9.459   4.450 133.815  0.00  0.00    +0.000 N 
ATOM     95  O   UNL     1      -9.554   6.734 132.579  0.00  0.00    +0.000 OA
ATOM     96  H   UNL     1      -9.153   3.381 133.526  0.00  0.00    +0.000 HD
ATOM     97  H   UNL     1     -10.431   4.183 133.801  0.00  0.00    +0.000 HD
ENDBRANCH  92  93
ENDBRANCH  91  92
ENDBRANCH  30  91
TORSDOF 20
ENDMDL
MODEL 3
REMARK VINA RESULT:     -10.0      1.476      2.725
REMARK  Name = CHEMBL4126100
REMARK  22 active torsions:
REMARK  status: ('A' for Active; 'I' for Inactive)
REMARK    1  A    between atoms: C_1  and  C_2
REMARK    2  A    between atoms: C_2  and  C_3
REMARK    3  A    between atoms: C_3  and  C_4
REMARK    4  A    between atoms: C_3  and  C_5
REMARK    5  A    between atoms: C_9  and  C_10
REMARK    6  A    between atoms: C_10  and  C_11
REMARK    7  A    between atoms: C_14  and  O_15
REMARK    8  A    between atoms: C_34  and  C_35
REMARK    9  A    between atoms: C_41  and  C_42
REMARK   10  A    between atoms: N_44  and  C_45
REMARK   11  A    between atoms: C_45  and  C_46
REMARK   12  A    between atoms: C_45  and  C_53
REMARK   13  A    between atoms: C_46  and  C_47
REMARK   14  A    between atoms: C_47  and  C_48
REMARK   15  A    between atoms: C_48  and  N_49
REMARK   16  A    between atoms: N_55  and  C_56
REMARK   17  A    between atoms: C_56  and  C_57
REMARK   18  A    between atoms: C_63  and  C_64
REMARK   19  A    between atoms: C_64  and  C_65
REMARK   20  A    between atoms: C_71  and  C_72
REMARK   21  A    between atoms: C_72  and  C_73
REMARK   22  A    between atoms: C_73  and  C_74
REMARK                            x       y       z     vdW  Elec       q    Type
REMARK                         _______ _______ _______ _____ _____    ______ ____
ROOT
ATOM      1  C   UNL     1      -6.823   2.822 125.994  0.00  0.00    +0.000 C 
ATOM      2  N   UNL     1      -8.067   3.199 127.791  0.00  0.00    +0.000 N 
ATOM      3  C   UNL     1      -8.608   2.398 129.353  0.00  0.00    +0.000 C 
ATOM      4  O   UNL     1      -8.737   3.446 130.087  0.00  0.00    +0.000 OA
ATOM      5  C   UNL     1      -8.025   0.534 128.823  0.00  0.00    +0.000 C 
ATOM      6  N   UNL     1      -8.365   0.502 126.824  0.00  0.00    +0.000 N 
ATOM      7  C   UNL     1      -8.323   2.126 125.759  0.00  0.00    +0.000 C 
ATOM      8  O   UNL     1      -8.670   2.065 124.569  0.00  0.00    +0.000 OA
ATOM      9  C   UNL     1      -7.606   4.059 126.623  0.00  0.00    +0.000 C 
ATOM     10  C   UNL     1      -6.921   4.206 128.678  0.00  0.00    +0.000 C 
ATOM     11  S   UNL     1      -4.739   4.944 128.871  0.00  0.00    +0.000 S 
ATOM     12  C   UNL     1      -4.473   4.760 130.395  0.00  0.00    +0.000 C 
ATOM     13  C   UNL     1      -3.456   5.318 131.097  0.00  0.00    +0.000 A 
ATOM     14  C   UNL     1      -3.011   6.218 130.165  0.00  0.00    +0.000 A 
ATOM     15  C   UNL     1      -1.828   6.658 130.343  0.00  0.00    +0.000 A 
ATOM     16  C   UNL     1      -1.374   6.476 131.607  0.00  0.00    +0.000 A 
ATOM     17  C   UNL     1      -1.988   5.714 132.609  0.00  0.00    +0.000 A 
ATOM     18  C   UNL     1      -2.974   4.884 132.306  0.00  0.00    +0.000 A 
ATOM     19  C   UNL     1      -3.386   3.807 133.292  0.00  0.00    +0.000 C 
ATOM     20  S   UNL     1      -2.747   1.828 132.970  0.00  0.00    +0.000 S 
ATOM     21  C   UNL     1      -4.369   0.212 133.866  0.00  0.00    +0.000 C 
ATOM     22  C   UNL     1      -5.057  -0.910 132.891  0.00  0.00    +0.000 C 
ATOM     23  N   UNL     1      -5.868  -0.506 131.763  0.00  0.00    +0.000 N 
ATOM     24  C   UNL     1      -5.851   1.174 130.783  0.00  0.00    +0.000 C 
ATOM     25  O   UNL     1      -6.847   1.887 130.539  0.00  0.00    +0.000 OA
ATOM     26  C   UNL     1      -4.668   1.928 130.328  0.00  0.00    +0.000 C 
ATOM     27  N   UNL     1      -4.023   1.830 128.957  0.00  0.00    +0.000 N 
ATOM     28  C   UNL     1      -4.486   2.139 127.719  0.00  0.00    +0.000 C 
ATOM     29  O   UNL     1      -4.240   1.613 126.659  0.00  0.00    +0.000 OA
ATOM     30  C   UNL     1      -5.643   2.953 127.871  0.00  0.00    +0.000 C 
ATOM     31  N   UNL     1      -5.732   4.873 127.149  0.00  0.00    +0.000 N 
ATOM     32  C   UNL     1      -6.123   4.803 125.758  0.00  0.00    +0.000 C 
ATOM     33  O   UNL     1      -6.365   5.890 125.287  0.00  0.00    +0.000 OA
ATOM     34  H   UNL     1      -8.922   3.311 128.770  0.00  0.00    +0.000 HD
ATOM     35  H   UNL     1      -9.203   0.543 127.265  0.00  0.00    +0.000 HD
ATOM     36  H   UNL     1      -6.792  -1.005 131.988  0.00  0.00    +0.000 HD
ATOM     37  H   UNL     1      -3.185   1.310 128.881  0.00  0.00    +0.000 HD
ATOM     38  H   UNL     1      -6.242   5.501 127.825  0.00  0.00    +0.000 HD
ENDROOT
BRANCH  22  39
ATOM     39  C   UNL     1      -5.747  -1.694 133.859  0.00  0.00    +0.000 C 
ATOM     40  O   UNL     1      -6.951  -1.590 134.023  0.00  0.00    +0.000 OA
ATOM     41  N   UNL     1      -4.745  -2.552 134.287  0.00  0.00    +0.000 N 
ATOM     42  C   UNL     1      -3.411  -2.294 134.905  0.00  0.00    +0.000 C 
ATOM     43  C   UNL     1      -2.576  -3.378 134.343  0.00  0.00    +0.000 C 
ATOM     44  C   UNL     1      -3.555  -4.523 134.467  0.00  0.00    +0.000 C 
ATOM     45  C   UNL     1      -4.943  -3.961 134.194  0.00  0.00    +0.000 C 
BRANCH  45  46
ATOM     46  C   UNL     1      -5.843  -4.304 135.351  0.00  0.00    +0.000 C 
ATOM     47  O   UNL     1      -6.324  -5.441 135.386  0.00  0.00    +0.000 OA
ATOM     48  N   UNL     1      -6.129  -3.309 136.268  0.00  0.00    +0.000 N 
ATOM     49  H   UNL     1      -5.868  -2.338 136.101  0.00  0.00    +0.000 HD
BRANCH  48  50
ATOM     50  C   UNL     1      -6.908  -3.559 137.508  0.00  0.00    +0.000 C 
BRANCH  50  51
ATOM     51  C   UNL     1      -8.420  -3.808 137.183  0.00  0.00    +0.000 C 
ATOM     52  O   UNL     1      -9.127  -2.883 136.783  0.00  0.00    +0.000 OA
ATOM     53  N   UNL     1      -8.922  -5.086 137.360  0.00  0.00    +0.000 N 
ATOM     54  H   UNL     1      -8.332  -5.831 137.683  0.00  0.00    +0.000 HD
BRANCH  53  55
ATOM     55  C   UNL     1     -10.325  -5.419 137.095  0.00  0.00    +0.000 C 
BRANCH  55  56
ATOM     56  C   UNL     1     -11.323  -4.874 138.140  0.00  0.00    +0.000 C 
ATOM     57  N   UNL     1     -11.923  -3.664 137.881  0.00  0.00    +0.000 N 
ATOM     58  O   UNL     1     -11.580  -5.491 139.171  0.00  0.00    +0.000 OA
ATOM     59  H   UNL     1     -11.777  -3.091 137.071  0.00  0.00    +0.000 HD
ATOM     60  H   UNL     1     -12.583  -3.281 138.550  0.00  0.00    +0.000 HD
ENDBRANCH  55  56
ENDBRANCH  53  55
ENDBRANCH  50  51
BRANCH  50  61
ATOM     61  C   UNL     1      -6.783  -2.362 138.457  0.00  0.00    +0.000 C 
BRANCH  61  62
ATOM     62  C   UNL     1      -6.223  -1.130 137.762  0.00  0.00    +0.000 C 
BRANCH  62  63
ATOM     63  C   UNL     1      -5.108  -0.446 138.474  0.00  0.00    +0.000 C 
BRANCH  63  64
ATOM     64  N   UNL     1      -4.230   0.314 137.583  0.00  0.00    +0.000 N 
ATOM     65  C   UNL     1      -4.150   1.673 137.638  0.00  0.00    +0.000 C 
ATOM     66  N   UNL     1      -4.816   2.393 138.478  0.00  0.00    +0.000 NA
ATOM     67  N   UNL     1      -3.323   2.308 136.773  0.00  0.00    +0.000 N 
ATOM     68  H   UNL     1      -3.727  -0.228 136.883  0.00  0.00    +0.000 HD
ATOM     69  H   UNL     1      -5.414   1.825 139.083  0.00  0.00    +0.000 HD
ATOM     70  H   UNL     1      -2.736   1.871 136.085  0.00  0.00    +0.000 HD
ATOM     71  H   UNL     1      -3.237   3.322 136.833  0.00  0.00    +0.000 HD
ENDBRANCH  63  64
ENDBRANCH  62  63
ENDBRANCH  61  62
ENDBRANCH  50  61
ENDBRANCH  48  50
ENDBRANCH  45  46
ENDBRANCH  22  39
BRANCH   1  72
ATOM     72  C   UNL     1      -5.821   3.101 124.312  0.00  0.00    +0.000 C 
ATOM     73  C   UNL     1      -4.383   3.978 124.306  0.00  0.00    +0.000 C 
BRANCH  72  75
ATOM     74  C   UNL     1      -7.285   3.421 121.663  0.00  0.00    +0.000 C 
ATOM     75  C   UNL     1      -6.343   3.732 122.858  0.00  0.00    +0.000 C 
ENDBRANCH  72  75
ENDBRANCH   1  72
BRANCH  26  76
ATOM     76  C   UNL     1      -5.172   3.050 131.258  0.00  0.00    +0.000 C 
BRANCH  76  77
ATOM     77  C   UNL     1      -6.002   3.794 132.349  0.00  0.00    +0.000 C 
ATOM     78  N   UNL     1      -6.869   4.579 131.851  0.00  0.00    +0.000 N 
ATOM     79  O   UNL     1      -6.187   3.544 133.520  0.00  0.00    +0.000 OA
ATOM     80  H   UNL     1      -7.083   3.971 131.121  0.00  0.00    +0.000 HD
ATOM     81  H   UNL     1      -7.668   5.127 131.945  0.00  0.00    +0.000 HD
ENDBRANCH  76  77
ENDBRANCH  26  76
BRANCH   5  82
ATOM     82  C   UNL     1      -6.613   0.097 128.632  0.00  0.00    +0.000 C 
BRANCH  82  83
ATOM     83  C   UNL     1      -6.893  -1.271 128.408  0.00  0.00    +0.000 A 
ATOM     84  C   UNL     1      -8.107  -2.039 129.659  0.00  0.00    +0.000 A 
ATOM     85  C   UNL     1      -7.449  -3.408 130.545  0.00  0.00    +0.000 A 
ATOM     86  C   UNL     1      -5.670  -3.772 130.300  0.00  0.00    +0.000 A 
ATOM     87  C   UNL     1      -4.641  -3.258 128.810  0.00  0.00    +0.000 A 
ATOM     88  C   UNL     1      -5.234  -1.944 127.984  0.00  0.00    +0.000 A 
BRANCH  86  89
ATOM     89  O   UNL     1      -5.342  -5.130 131.461  0.00  0.00    +0.000 OA
ATOM     90  H   UNL     1      -4.745  -5.143 132.283  0.00  0.00    +0.000 HD
ENDBRANCH  86  89
ENDBRANCH  82  83
ENDBRANCH   5  82
BRANCH  30  91
ATOM     91  C   UNL     1      -7.316   1.812 127.441  0.00  0.00    +0.000 C 
BRANCH  91  92
ATOM     92  C   UNL     1      -7.682   0.083 126.076  0.00  0.00    +0.000 C 
BRANCH  92  93
ATOM     93  C   UNL     1      -6.468  -0.355 124.918  0.00  0.00    +0.000 C 
ATOM     94  N   UNL     1      -7.169  -0.184 123.380  0.00  0.00    +0.000 N 
ATOM     95  O   UNL     1      -5.431  -0.929 125.163  0.00  0.00    +0.000 OA
ATOM     96  H   UNL     1      -8.243  -0.494 123.112  0.00  0.00    +0.000 HD
ATOM     97  H   UNL     1      -6.820  -0.657 122.561  0.00  0.00    +0.000 HD
ENDBRANCH  92  93
ENDBRANCH  91  92
ENDBRANCH  30  91
TORSDOF 20
ENDMDL
MODEL 4
REMARK VINA RESULT:     -10.0      3.439      7.379
REMARK  Name = CHEMBL4126100
REMARK  22 active torsions:
REMARK  status: ('A' for Active; 'I' for Inactive)
REMARK    1  A    between atoms: C_1  and  C_2
REMARK    2  A    between atoms: C_2  and  C_3
REMARK    3  A    between atoms: C_3  and  C_4
REMARK    4  A    between atoms: C_3  and  C_5
REMARK    5  A    between atoms: C_9  and  C_10
REMARK    6  A    between atoms: C_10  and  C_11
REMARK    7  A    between atoms: C_14  and  O_15
REMARK    8  A    between atoms: C_34  and  C_35
REMARK    9  A    between atoms: C_41  and  C_42
REMARK   10  A    between atoms: N_44  and  C_45
REMARK   11  A    between atoms: C_45  and  C_46
REMARK   12  A    between atoms: C_45  and  C_53
REMARK   13  A    between atoms: C_46  and  C_47
REMARK   14  A    between atoms: C_47  and  C_48
REMARK   15  A    between atoms: C_48  and  N_49
REMARK   16  A    between atoms: N_55  and  C_56
REMARK   17  A    between atoms: C_56  and  C_57
REMARK   18  A    between atoms: C_63  and  C_64
REMARK   19  A    between atoms: C_64  and  C_65
REMARK   20  A    between atoms: C_71  and  C_72
REMARK   21  A    between atoms: C_72  and  C_73
REMARK   22  A    between atoms: C_73  and  C_74
REMARK                            x       y       z     vdW  Elec       q    Type
REMARK                         _______ _______ _______ _____ _____    ______ ____
ROOT
ATOM      1  C   UNL     1      -7.858   4.922 129.856  0.00  0.00    +0.000 C 
ATOM      2  N   UNL     1      -5.801   4.106 129.714  0.00  0.00    +0.000 N 
ATOM      3  C   UNL     1      -4.559   3.173 130.695  0.00  0.00    +0.000 C 
ATOM      4  O   UNL     1      -3.955   2.565 129.735  0.00  0.00    +0.000 OA
ATOM      5  C   UNL     1      -5.496   3.416 132.471  0.00  0.00    +0.000 C 
ATOM      6  N   UNL     1      -6.322   5.261 132.301  0.00  0.00    +0.000 N 
ATOM      7  C   UNL     1      -6.806   6.003 130.572  0.00  0.00    +0.000 C 
ATOM      8  O   UNL     1      -7.181   7.185 130.517  0.00  0.00    +0.000 OA
ATOM      9  C   UNL     1      -6.754   4.753 128.720  0.00  0.00    +0.000 C 
ATOM     10  C   UNL     1      -6.173   2.661 128.770  0.00  0.00    +0.000 C 
ATOM     11  S   UNL     1      -7.809   1.231 127.986  0.00  0.00    +0.000 S 
ATOM     12  C   UNL     1      -7.204  -0.164 128.322  0.00  0.00    +0.000 C 
ATOM     13  C   UNL     1      -7.610  -1.351 127.809  0.00  0.00    +0.000 A 
ATOM     14  C   UNL     1      -8.416  -0.893 126.800  0.00  0.00    +0.000 A 
ATOM     15  C   UNL     1      -9.260  -1.732 126.343  0.00  0.00    +0.000 A 
ATOM     16  C   UNL     1      -8.953  -3.017 126.644  0.00  0.00    +0.000 A 
ATOM     17  C   UNL     1      -7.956  -3.448 127.528  0.00  0.00    +0.000 A 
ATOM     18  C   UNL     1      -7.378  -2.589 128.353  0.00  0.00    +0.000 A 
ATOM     19  C   UNL     1      -6.586  -3.098 129.542  0.00  0.00    +0.000 C 
ATOM     20  S   UNL     1      -7.465  -3.050 131.454  0.00  0.00    +0.000 S 
ATOM     21  C   UNL     1      -5.766  -2.772 133.208  0.00  0.00    +0.000 C 
ATOM     22  C   UNL     1      -5.832  -1.503 134.242  0.00  0.00    +0.000 C 
ATOM     23  N   UNL     1      -5.748  -0.146 133.747  0.00  0.00    +0.000 N 
ATOM     24  C   UNL     1      -6.158   0.537 131.973  0.00  0.00    +0.000 C 
ATOM     25  O   UNL     1      -5.406   1.245 131.271  0.00  0.00    +0.000 OA
ATOM     26  C   UNL     1      -7.324   0.199 131.136  0.00  0.00    +0.000 C 
ATOM     27  N   UNL     1      -8.626   0.979 131.065  0.00  0.00    +0.000 N 
ATOM     28  C   UNL     1      -8.900   2.239 130.642  0.00  0.00    +0.000 C 
ATOM     29  O   UNL     1      -9.736   3.014 131.044  0.00  0.00    +0.000 OA
ATOM     30  C   UNL     1      -7.786   2.703 129.887  0.00  0.00    +0.000 C 
ATOM     31  N   UNL     1      -7.946   3.214 127.905  0.00  0.00    +0.000 N 
ATOM     32  C   UNL     1      -8.396   4.587 127.840  0.00  0.00    +0.000 C 
ATOM     33  O   UNL     1      -8.362   5.035 126.717  0.00  0.00    +0.000 OA
ATOM     34  H   UNL     1      -4.542   3.766 129.736  0.00  0.00    +0.000 HD
ATOM     35  H   UNL     1      -5.381   5.361 132.335  0.00  0.00    +0.000 HD
ATOM     36  H   UNL     1      -4.902   0.219 134.298  0.00  0.00    +0.000 HD
ATOM     37  H   UNL     1      -9.407   0.609 131.546  0.00  0.00    +0.000 HD
ATOM     38  H   UNL     1      -7.094   2.896 127.370  0.00  0.00    +0.000 HD
ENDROOT
BRANCH  22  39
ATOM     39  C   UNL     1      -4.792  -1.862 135.148  0.00  0.00    +0.000 C 
ATOM     40  O   UNL     1      -3.623  -1.877 134.802  0.00  0.00    +0.000 OA
ATOM     41  N   UNL     1      -5.489  -1.966 136.342  0.00  0.00    +0.000 N 
ATOM     42  C   UNL     1      -6.644  -2.820 136.749  0.00  0.00    +0.000 C 
ATOM     43  C   UNL     1      -7.397  -1.935 137.665  0.00  0.00    +0.000 C 
ATOM     44  C   UNL     1      -6.237  -1.349 138.438  0.00  0.00    +0.000 C 
ATOM     45  C   UNL     1      -5.083  -1.179 137.460  0.00  0.00    +0.000 C 
BRANCH  45  46
ATOM     46  C   UNL     1      -3.872  -1.883 138.011  0.00  0.00    +0.000 C 
ATOM     47  O   UNL     1      -3.167  -1.267 138.816  0.00  0.00    +0.000 OA
ATOM     48  N   UNL     1      -3.584  -3.150 137.534  0.00  0.00    +0.000 N 
ATOM     49  H   UNL     1      -4.079  -3.544 136.735  0.00  0.00    +0.000 HD
BRANCH  48  50
ATOM     50  C   UNL     1      -2.487  -3.984 138.085  0.00  0.00    +0.000 C 
BRANCH  50  51
ATOM     51  C   UNL     1      -1.100  -3.552 137.499  0.00  0.00    +0.000 C 
ATOM     52  O   UNL     1      -0.083  -4.181 137.788  0.00  0.00    +0.000 OA
ATOM     53  N   UNL     1      -1.064  -2.454 136.655  0.00  0.00    +0.000 N 
ATOM     54  H   UNL     1      -1.903  -1.954 136.426  0.00  0.00    +0.000 HD
BRANCH  53  55
ATOM     55  C   UNL     1       0.185  -1.963 136.064  0.00  0.00    +0.000 C 
BRANCH  55  56
ATOM     56  C   UNL     1       0.456  -2.463 134.628  0.00  0.00    +0.000 C 
ATOM     57  N   UNL     1       1.277  -3.557 134.476  0.00  0.00    +0.000 N 
ATOM     58  O   UNL     1      -0.040  -1.913 133.648  0.00  0.00    +0.000 OA
ATOM     59  H   UNL     1       1.723  -4.069 135.214  0.00  0.00    +0.000 HD
ATOM     60  H   UNL     1       1.473  -3.908 133.545  0.00  0.00    +0.000 HD
ENDBRANCH  55  56
ENDBRANCH  53  55
ENDBRANCH  50  51
BRANCH  50  61
ATOM     61  C   UNL     1      -2.736  -5.461 137.759  0.00  0.00    +0.000 C 
BRANCH  61  62
ATOM     62  C   UNL     1      -3.742  -5.642 136.633  0.00  0.00    +0.000 C 
BRANCH  62  63
ATOM     63  C   UNL     1      -3.288  -6.499 135.502  0.00  0.00    +0.000 C 
BRANCH  63  64
ATOM     64  N   UNL     1      -3.578  -5.924 134.187  0.00  0.00    +0.000 N 
ATOM     65  C   UNL     1      -2.765  -4.995 133.611  0.00  0.00    +0.000 C 
ATOM     66  N   UNL     1      -1.679  -4.561 134.159  0.00  0.00    +0.000 NA
ATOM     67  N   UNL     1      -3.104  -4.501 132.397  0.00  0.00    +0.000 N 
ATOM     68  H   UNL     1      -4.452  -6.219 133.753  0.00  0.00    +0.000 HD
ATOM     69  H   UNL     1      -1.512  -4.988 135.074  0.00  0.00    +0.000 HD
ATOM     70  H   UNL     1      -3.908  -4.764 131.853  0.00  0.00    +0.000 HD
ATOM     71  H   UNL     1      -2.482  -3.828 131.950  0.00  0.00    +0.000 HD
ENDBRANCH  63  64
ENDBRANCH  62  63
ENDBRANCH  61  62
ENDBRANCH  50  61
ENDBRANCH  48  50
ENDBRANCH  45  46
ENDBRANCH  22  39
BRANCH   1  72
ATOM     72  C   UNL     1      -9.594   5.732 129.367  0.00  0.00    +0.000 C 
ATOM     73  C   UNL     1      -9.763   7.405 129.268  0.00  0.00    +0.000 C 
BRANCH  72  75
ATOM     74  C   UNL     1     -12.364   6.290 130.500  0.00  0.00    +0.000 C 
ATOM     75  C   UNL     1     -11.100   5.507 130.052  0.00  0.00    +0.000 C 
ENDBRANCH  72  75
ENDBRANCH   1  72
BRANCH  26  76
ATOM     76  C   UNL     1      -6.296  -0.367 130.136  0.00  0.00    +0.000 C 
BRANCH  76  77
ATOM     77  C   UNL     1      -4.936  -0.836 129.533  0.00  0.00    +0.000 C 
ATOM     78  N   UNL     1      -4.452   0.005 128.711  0.00  0.00    +0.000 N 
ATOM     79  O   UNL     1      -4.135  -1.660 129.915  0.00  0.00    +0.000 OA
ATOM     80  H   UNL     1      -4.742   0.772 129.237  0.00  0.00    +0.000 HD
ATOM     81  H   UNL     1      -3.702   0.344 128.191  0.00  0.00    +0.000 HD
ENDBRANCH  76  77
ENDBRANCH  26  76
BRANCH   5  82
ATOM     82  C   UNL     1      -6.810   2.816 132.839  0.00  0.00    +0.000 C 
BRANCH  82  83
ATOM     83  C   UNL     1      -6.576   2.748 134.232  0.00  0.00    +0.000 A 
ATOM     84  C   UNL     1      -7.525   4.049 135.250  0.00  0.00    +0.000 A 
ATOM     85  C   UNL     1      -6.490   5.110 136.196  0.00  0.00    +0.000 A 
ATOM     86  C   UNL     1      -4.684   4.957 135.926  0.00  0.00    +0.000 A 
ATOM     87  C   UNL     1      -3.803   3.445 135.235  0.00  0.00    +0.000 A 
ATOM     88  C   UNL     1      -4.762   2.452 134.310  0.00  0.00    +0.000 A 
BRANCH  86  89
ATOM     89  O   UNL     1      -3.979   6.280 136.952  0.00  0.00    +0.000 OA
ATOM     90  H   UNL     1      -4.298   6.638 137.848  0.00  0.00    +0.000 HD
ENDBRANCH  86  89
ENDBRANCH  82  83
ENDBRANCH   5  82
BRANCH  30  91
ATOM     91  C   UNL     1      -6.738   4.073 131.030  0.00  0.00    +0.000 C 
BRANCH  91  92
ATOM     92  C   UNL     1      -7.326   5.475 132.666  0.00  0.00    +0.000 C 
BRANCH  92  93
ATOM     93  C   UNL     1      -9.008   5.766 132.968  0.00  0.00    +0.000 C 
ATOM     94  N   UNL     1      -9.669   4.304 133.525  0.00  0.00    +0.000 N 
ATOM     95  O   UNL     1      -9.637   6.731 132.596  0.00  0.00    +0.000 OA
ATOM     96  H   UNL     1      -9.416   3.267 133.100  0.00  0.00    +0.000 HD
ATOM     97  H   UNL     1     -10.653   4.091 133.476  0.00  0.00    +0.000 HD
ENDBRANCH  92  93
ENDBRANCH  91  92
ENDBRANCH  30  91
TORSDOF 20
ENDMDL
MODEL 5
REMARK VINA RESULT:      -9.8      4.081     10.367
REMARK  Name = CHEMBL4126100
REMARK  22 active torsions:
REMARK  status: ('A' for Active; 'I' for Inactive)
REMARK    1  A    between atoms: C_1  and  C_2
REMARK    2  A    between atoms: C_2  and  C_3
REMARK    3  A    between atoms: C_3  and  C_4
REMARK    4  A    between atoms: C_3  and  C_5
REMARK    5  A    between atoms: C_9  and  C_10
REMARK    6  A    between atoms: C_10  and  C_11
REMARK    7  A    between atoms: C_14  and  O_15
REMARK    8  A    between atoms: C_34  and  C_35
REMARK    9  A    between atoms: C_41  and  C_42
REMARK   10  A    between atoms: N_44  and  C_45
REMARK   11  A    between atoms: C_45  and  C_46
REMARK   12  A    between atoms: C_45  and  C_53
REMARK   13  A    between atoms: C_46  and  C_47
REMARK   14  A    between atoms: C_47  and  C_48
REMARK   15  A    between atoms: C_48  and  N_49
REMARK   16  A    between atoms: N_55  and  C_56
REMARK   17  A    between atoms: C_56  and  C_57
REMARK   18  A    between atoms: C_63  and  C_64
REMARK   19  A    between atoms: C_64  and  C_65
REMARK   20  A    between atoms: C_71  and  C_72
REMARK   21  A    between atoms: C_72  and  C_73
REMARK   22  A    between atoms: C_73  and  C_74
REMARK                            x       y       z     vdW  Elec       q    Type
REMARK                         _______ _______ _______ _____ _____    ______ ____
ROOT
ATOM      1  C   UNL     1      -6.458  -2.403 130.914  0.00  0.00    +0.000 C 
ATOM      2  N   UNL     1      -7.963  -0.836 131.363  0.00  0.00    +0.000 N 
ATOM      3  C   UNL     1      -8.118   0.822 132.138  0.00  0.00    +0.000 C 
ATOM      4  O   UNL     1      -9.089   1.287 131.434  0.00  0.00    +0.000 OA
ATOM      5  C   UNL     1      -6.314   0.773 133.054  0.00  0.00    +0.000 C 
ATOM      6  N   UNL     1      -6.099  -1.187 133.530  0.00  0.00    +0.000 N 
ATOM      7  C   UNL     1      -6.963  -2.586 132.496  0.00  0.00    +0.000 C 
ATOM      8  O   UNL     1      -6.905  -3.753 132.912  0.00  0.00    +0.000 OA
ATOM      9  C   UNL     1      -7.989  -2.131 130.562  0.00  0.00    +0.000 C 
ATOM     10  C   UNL     1      -8.058  -0.117 129.753  0.00  0.00    +0.000 C 
ATOM     11  S   UNL     1      -7.103   0.067 127.657  0.00  0.00    +0.000 S 
ATOM     12  C   UNL     1      -7.118   1.608 127.432  0.00  0.00    +0.000 C 
ATOM     13  C   UNL     1      -6.953   2.240 126.244  0.00  0.00    +0.000 A 
ATOM     14  C   UNL     1      -7.068   1.165 125.403  0.00  0.00    +0.000 A 
ATOM     15  C   UNL     1      -6.593   1.326 124.231  0.00  0.00    +0.000 A 
ATOM     16  C   UNL     1      -6.425   2.629 123.898  0.00  0.00    +0.000 A 
ATOM     17  C   UNL     1      -6.537   3.728 124.758  0.00  0.00    +0.000 A 
ATOM     18  C   UNL     1      -6.580   3.549 126.069  0.00  0.00    +0.000 A 
ATOM     19  C   UNL     1      -6.331   4.719 127.001  0.00  0.00    +0.000 C 
ATOM     20  S   UNL     1      -4.454   4.903 127.934  0.00  0.00    +0.000 S 
ATOM     21  C   UNL     1      -4.649   6.018 130.117  0.00  0.00    +0.000 C 
ATOM     22  C   UNL     1      -4.140   5.273 131.484  0.00  0.00    +0.000 C 
ATOM     23  N   UNL     1      -4.738   4.025 131.908  0.00  0.00    +0.000 N 
ATOM     24  C   UNL     1      -5.676   2.695 130.846  0.00  0.00    +0.000 C 
ATOM     25  O   UNL     1      -6.804   2.221 131.098  0.00  0.00    +0.000 OA
ATOM     26  C   UNL     1      -5.283   2.171 129.524  0.00  0.00    +0.000 C 
ATOM     27  N   UNL     1      -4.476   0.910 129.271  0.00  0.00    +0.000 N 
ATOM     28  C   UNL     1      -4.743  -0.398 129.521  0.00  0.00    +0.000 C 
ATOM     29  O   UNL     1      -3.983  -1.289 129.817  0.00  0.00    +0.000 OA
ATOM     30  C   UNL     1      -6.137  -0.521 129.779  0.00  0.00    +0.000 C 
ATOM     31  N   UNL     1      -7.370  -1.664 128.600  0.00  0.00    +0.000 N 
ATOM     32  C   UNL     1      -7.293  -3.028 129.075  0.00  0.00    +0.000 C 
ATOM     33  O   UNL     1      -8.111  -3.749 128.552  0.00  0.00    +0.000 OA
ATOM     34  H   UNL     1      -8.840   0.025 131.798  0.00  0.00    +0.000 HD
ATOM     35  H   UNL     1      -6.799  -0.830 134.059  0.00  0.00    +0.000 HD
ATOM     36  H   UNL     1      -5.078   4.288 132.892  0.00  0.00    +0.000 HD
ATOM     37  H   UNL     1      -3.522   1.017 129.032  0.00  0.00    +0.000 HD
ATOM     38  H   UNL     1      -8.302  -1.188 128.466  0.00  0.00    +0.000 HD
ENDROOT
BRANCH  22  39
ATOM     39  C   UNL     1      -4.282   6.339 132.418  0.00  0.00    +0.000 C 
ATOM     40  O   UNL     1      -5.352   6.580 132.951  0.00  0.00    +0.000 OA
ATOM     41  N   UNL     1      -2.967   6.752 132.570  0.00  0.00    +0.000 N 
ATOM     42  C   UNL     1      -1.962   7.255 131.587  0.00  0.00    +0.000 C 
ATOM     43  C   UNL     1      -0.692   6.710 132.113  0.00  0.00    +0.000 C 
ATOM     44  C   UNL     1      -0.905   6.982 133.585  0.00  0.00    +0.000 C 
ATOM     45  C   UNL     1      -2.385   6.769 133.872  0.00  0.00    +0.000 C 
BRANCH  45  46
ATOM     46  C   UNL     1      -2.936   8.009 134.527  0.00  0.00    +0.000 C 
ATOM     47  O   UNL     1      -3.931   7.883 135.246  0.00  0.00    +0.000 OA
ATOM     48  N   UNL     1      -2.336   9.220 134.231  0.00  0.00    +0.000 N 
ATOM     49  H   UNL     1      -1.643   9.305 133.489  0.00  0.00    +0.000 HD
BRANCH  48  50
ATOM     50  C   UNL     1      -2.717  10.488 134.903  0.00  0.00    +0.000 C 
BRANCH  50  51
ATOM     51  C   UNL     1      -2.241  11.730 134.075  0.00  0.00    +0.000 C 
ATOM     52  O   UNL     1      -3.060  12.422 133.471  0.00  0.00    +0.000 OA
ATOM     53  N   UNL     1      -0.886  12.015 134.051  0.00  0.00    +0.000 N 
ATOM     54  H   UNL     1      -0.230  11.445 134.552  0.00  0.00    +0.000 HD
BRANCH  53  55
ATOM     55  C   UNL     1      -0.338  13.148 133.297  0.00  0.00    +0.000 C 
BRANCH  55  56
ATOM     56  C   UNL     1       0.343  12.765 131.966  0.00  0.00    +0.000 C 
ATOM     57  N   UNL     1      -0.216  13.238 130.801  0.00  0.00    +0.000 N 
ATOM     58  O   UNL     1       1.351  12.062 131.935  0.00  0.00    +0.000 OA
ATOM     59  H   UNL     1      -1.033  13.814 130.728  0.00  0.00    +0.000 HD
ATOM     60  H   UNL     1       0.211  13.002 129.912  0.00  0.00    +0.000 HD
ENDBRANCH  55  56
ENDBRANCH  53  55
ENDBRANCH  50  51
BRANCH  50  61
ATOM     61  C   UNL     1      -2.098  10.547 136.304  0.00  0.00    +0.000 C 
BRANCH  61  62
ATOM     62  C   UNL     1      -3.074  11.072 137.345  0.00  0.00    +0.000 C 
BRANCH  62  63
ATOM     63  C   UNL     1      -4.375  10.351 137.422  0.00  0.00    +0.000 C 
BRANCH  63  64
ATOM     64  N   UNL     1      -4.247   8.972 137.896  0.00  0.00    +0.000 N 
ATOM     65  C   UNL     1      -5.335   8.216 138.215  0.00  0.00    +0.000 C 
ATOM     66  N   UNL     1      -6.552   8.638 138.112  0.00  0.00    +0.000 NA
ATOM     67  N   UNL     1      -5.137   6.951 138.657  0.00  0.00    +0.000 N 
ATOM     68  H   UNL     1      -3.296   8.631 138.025  0.00  0.00    +0.000 HD
ATOM     69  H   UNL     1      -6.597   9.603 137.776  0.00  0.00    +0.000 HD
ATOM     70  H   UNL     1      -4.249   6.493 138.765  0.00  0.00    +0.000 HD
ATOM     71  H   UNL     1      -5.950   6.372 138.867  0.00  0.00    +0.000 HD
ENDBRANCH  63  64
ENDBRANCH  62  63
ENDBRANCH  61  62
ENDBRANCH  50  61
ENDBRANCH  48  50
ENDBRANCH  45  46
ENDBRANCH  22  39
BRANCH   1  72
ATOM     72  C   UNL     1      -5.598  -4.023 130.177  0.00  0.00    +0.000 C 
ATOM     73  C   UNL     1      -5.778  -5.513 130.942  0.00  0.00    +0.000 C 
BRANCH  72  75
ATOM     74  C   UNL     1      -2.939  -3.968 128.697  0.00  0.00    +0.000 C 
ATOM     75  C   UNL     1      -3.997  -4.290 129.787  0.00  0.00    +0.000 C 
ENDBRANCH  72  75
ENDBRANCH   1  72
BRANCH  26  76
ATOM     76  C   UNL     1      -6.605   2.782 129.019  0.00  0.00    +0.000 C 
BRANCH  76  77
ATOM     77  C   UNL     1      -7.908   3.638 128.977  0.00  0.00    +0.000 C 
ATOM     78  N   UNL     1      -8.954   2.945 129.182  0.00  0.00    +0.000 N 
ATOM     79  O   UNL     1      -8.083   4.831 129.096  0.00  0.00    +0.000 OA
ATOM     80  H   UNL     1      -8.521   2.386 129.852  0.00  0.00    +0.000 HD
ATOM     81  H   UNL     1      -9.901   2.886 129.401  0.00  0.00    +0.000 HD
ENDBRANCH  76  77
ENDBRANCH  26  76
BRANCH   5  82
ATOM     82  C   UNL     1      -4.996   0.793 132.358  0.00  0.00    +0.000 C 
BRANCH  82  83
ATOM     83  C   UNL     1      -4.198   0.901 133.520  0.00  0.00    +0.000 A 
ATOM     84  C   UNL     1      -5.188   1.079 135.138  0.00  0.00    +0.000 A 
ATOM     85  C   UNL     1      -4.829   2.548 136.036  0.00  0.00    +0.000 A 
ATOM     86  C   UNL     1      -3.735   3.770 135.218  0.00  0.00    +0.000 A 
ATOM     87  C   UNL     1      -2.505   3.393 133.844  0.00  0.00    +0.000 A 
ATOM     88  C   UNL     1      -2.852   2.026 132.965  0.00  0.00    +0.000 A 
BRANCH  86  89
ATOM     89  O   UNL     1      -3.717   5.174 136.371  0.00  0.00    +0.000 OA
ATOM     90  H   UNL     1      -4.025   6.131 136.223  0.00  0.00    +0.000 HD
ENDBRANCH  86  89
ENDBRANCH  82  83
ENDBRANCH   5  82
BRANCH  30  91
ATOM     91  C   UNL     1      -6.411  -0.806 131.810  0.00  0.00    +0.000 C 
BRANCH  91  92
ATOM     92  C   UNL     1      -5.181  -1.775 133.403  0.00  0.00    +0.000 C 
BRANCH  92  93
ATOM     93  C   UNL     1      -3.686  -2.540 132.971  0.00  0.00    +0.000 C 
ATOM     94  N   UNL     1      -3.781  -4.148 133.511  0.00  0.00    +0.000 N 
ATOM     95  O   UNL     1      -2.680  -1.973 132.610  0.00  0.00    +0.000 OA
ATOM     96  H   UNL     1      -4.231  -4.475 134.516  0.00  0.00    +0.000 HD
ATOM     97  H   UNL     1      -2.969  -4.720 133.680  0.00  0.00    +0.000 HD
ENDBRANCH  92  93
ENDBRANCH  91  92
ENDBRANCH  30  91
TORSDOF 20
ENDMDL
MODEL 6
REMARK VINA RESULT:      -9.8      3.845     11.486
REMARK  Name = CHEMBL4126100
REMARK  22 active torsions:
REMARK  status: ('A' for Active; 'I' for Inactive)
REMARK    1  A    between atoms: C_1  and  C_2
REMARK    2  A    between atoms: C_2  and  C_3
REMARK    3  A    between atoms: C_3  and  C_4
REMARK    4  A    between atoms: C_3  and  C_5
REMARK    5  A    between atoms: C_9  and  C_10
REMARK    6  A    between atoms: C_10  and  C_11
REMARK    7  A    between atoms: C_14  and  O_15
REMARK    8  A    between atoms: C_34  and  C_35
REMARK    9  A    between atoms: C_41  and  C_42
REMARK   10  A    between atoms: N_44  and  C_45
REMARK   11  A    between atoms: C_45  and  C_46
REMARK   12  A    between atoms: C_45  and  C_53
REMARK   13  A    between atoms: C_46  and  C_47
REMARK   14  A    between atoms: C_47  and  C_48
REMARK   15  A    between atoms: C_48  and  N_49
REMARK   16  A    between atoms: N_55  and  C_56
REMARK   17  A    between atoms: C_56  and  C_57
REMARK   18  A    between atoms: C_63  and  C_64
REMARK   19  A    between atoms: C_64  and  C_65
REMARK   20  A    between atoms: C_71  and  C_72
REMARK   21  A    between atoms: C_72  and  C_73
REMARK   22  A    between atoms: C_73  and  C_74
REMARK                            x       y       z     vdW  Elec       q    Type
REMARK                         _______ _______ _______ _____ _____    ______ ____
ROOT
ATOM      1  C   UNL     1      -4.268   4.766 135.513  0.00  0.00    +0.000 C 
ATOM      2  N   UNL     1      -6.270   3.924 135.064  0.00  0.00    +0.000 N 
ATOM      3  C   UNL     1      -7.398   3.582 133.655  0.00  0.00    +0.000 C 
ATOM      4  O   UNL     1      -8.005   2.549 134.125  0.00  0.00    +0.000 OA
ATOM      5  C   UNL     1      -6.393   4.727 132.323  0.00  0.00    +0.000 C 
ATOM      6  N   UNL     1      -5.702   6.253 133.467  0.00  0.00    +0.000 N 
ATOM      7  C   UNL     1      -5.355   6.026 135.365  0.00  0.00    +0.000 C 
ATOM      8  O   UNL     1      -5.063   7.026 136.038  0.00  0.00    +0.000 OA
ATOM      9  C   UNL     1      -5.412   4.005 136.319  0.00  0.00    +0.000 C 
ATOM     10  C   UNL     1      -5.849   2.214 135.171  0.00  0.00    +0.000 C 
ATOM     11  S   UNL     1      -4.160   0.639 135.246  0.00  0.00    +0.000 S 
ATOM     12  C   UNL     1      -4.653  -0.409 134.204  0.00  0.00    +0.000 C 
ATOM     13  C   UNL     1      -4.193  -1.678 134.075  0.00  0.00    +0.000 A 
ATOM     14  C   UNL     1      -3.470  -1.772 135.234  0.00  0.00    +0.000 A 
ATOM     15  C   UNL     1      -2.595  -2.699 135.267  0.00  0.00    +0.000 A 
ATOM     16  C   UNL     1      -2.800  -3.660 134.334  0.00  0.00    +0.000 A 
ATOM     17  C   UNL     1      -3.721  -3.613 133.280  0.00  0.00    +0.000 A 
ATOM     18  C   UNL     1      -4.314  -2.473 132.962  0.00  0.00    +0.000 A 
ATOM     19  C   UNL     1      -5.012  -2.331 131.623  0.00  0.00    +0.000 C 
ATOM     20  S   UNL     1      -4.046  -1.286 130.073  0.00  0.00    +0.000 S 
ATOM     21  C   UNL     1      -5.672  -0.208 128.577  0.00  0.00    +0.000 C 
ATOM     22  C   UNL     1      -5.641   1.412 128.337  0.00  0.00    +0.000 C 
ATOM     23  N   UNL     1      -5.840   2.324 129.443  0.00  0.00    +0.000 N 
ATOM     24  C   UNL     1      -5.564   2.020 131.344  0.00  0.00    +0.000 C 
ATOM     25  O   UNL     1      -6.395   2.246 132.248  0.00  0.00    +0.000 OA
ATOM     26  C   UNL     1      -4.420   1.341 131.980  0.00  0.00    +0.000 C 
ATOM     27  N   UNL     1      -3.179   2.018 132.535  0.00  0.00    +0.000 N 
ATOM     28  C   UNL     1      -3.011   2.895 133.558  0.00  0.00    +0.000 C 
ATOM     29  O   UNL     1      -2.211   3.794 133.669  0.00  0.00    +0.000 OA
ATOM     30  C   UNL     1      -4.189   2.872 134.356  0.00  0.00    +0.000 C 
ATOM     31  N   UNL     1      -4.161   2.306 136.330  0.00  0.00    +0.000 N 
ATOM     32  C   UNL     1      -3.808   3.468 137.116  0.00  0.00    +0.000 C 
ATOM     33  O   UNL     1      -3.927   3.279 138.304  0.00  0.00    +0.000 OA
ATOM     34  H   UNL     1      -7.501   3.602 134.777  0.00  0.00    +0.000 HD
ATOM     35  H   UNL     1      -6.646   6.326 133.416  0.00  0.00    +0.000 HD
ATOM     36  H   UNL     1      -6.681   2.890 129.090  0.00  0.00    +0.000 HD
ATOM     37  H   UNL     1      -2.351   1.972 131.995  0.00  0.00    +0.000 HD
ATOM     38  H   UNL     1      -5.015   1.732 136.564  0.00  0.00    +0.000 HD
ENDROOT
BRANCH  22  39
ATOM     39  C   UNL     1      -6.608   1.531 127.298  0.00  0.00    +0.000 C 
ATOM     40  O   UNL     1      -7.589   0.807 127.255  0.00  0.00    +0.000 OA
ATOM     41  N   UNL     1      -6.168   2.668 126.638  0.00  0.00    +0.000 N 
ATOM     42  C   UNL     1      -4.871   2.994 125.973  0.00  0.00    +0.000 C 
ATOM     43  C   UNL     1      -4.715   4.437 126.253  0.00  0.00    +0.000 C 
ATOM     44  C   UNL     1      -6.135   4.887 125.996  0.00  0.00    +0.000 C 
ATOM     45  C   UNL     1      -7.054   3.774 126.481  0.00  0.00    +0.000 C 
BRANCH  45  46
ATOM     46  C   UNL     1      -7.974   3.378 125.357  0.00  0.00    +0.000 C 
ATOM     47  O   UNL     1      -8.967   4.083 125.154  0.00  0.00    +0.000 OA
ATOM     48  N   UNL     1      -7.688   2.217 124.662  0.00  0.00    +0.000 N 
ATOM     49  H   UNL     1      -6.971   1.567 124.983  0.00  0.00    +0.000 HD
BRANCH  48  50
ATOM     50  C   UNL     1      -8.454   1.788 123.465  0.00  0.00    +0.000 C 
BRANCH  50  51
ATOM     51  C   UNL     1      -8.552   0.227 123.385  0.00  0.00    +0.000 C 
ATOM     52  O   UNL     1      -9.321  -0.305 122.586  0.00  0.00    +0.000 OA
ATOM     53  N   UNL     1      -7.751  -0.519 124.235  0.00  0.00    +0.000 N 
ATOM     54  H   UNL     1      -7.126  -0.071 124.878  0.00  0.00    +0.000 HD
BRANCH  53  55
ATOM     55  C   UNL     1      -7.776  -1.985 124.246  0.00  0.00    +0.000 C 
BRANCH  55  56
ATOM     56  C   UNL     1      -9.156  -2.601 124.564  0.00  0.00    +0.000 C 
ATOM     57  N   UNL     1      -9.762  -3.353 123.583  0.00  0.00    +0.000 N 
ATOM     58  O   UNL     1      -9.704  -2.433 125.651  0.00  0.00    +0.000 OA
ATOM     59  H   UNL     1      -9.393  -3.544 122.671  0.00  0.00    +0.000 HD
ATOM     60  H   UNL     1     -10.669  -3.770 123.764  0.00  0.00    +0.000 HD
ENDBRANCH  55  56
ENDBRANCH  53  55
ENDBRANCH  50  51
BRANCH  50  61
ATOM     61  C   UNL     1      -7.780   2.319 122.194  0.00  0.00    +0.000 C 
BRANCH  61  62
ATOM     62  C   UNL     1      -6.277   2.476 122.360  0.00  0.00    +0.000 C 
BRANCH  62  63
ATOM     63  C   UNL     1      -5.739   3.832 122.059  0.00  0.00    +0.000 C 
BRANCH  63  64
ATOM     64  N   UNL     1      -5.929   4.235 120.665  0.00  0.00    +0.000 N 
ATOM     65  C   UNL     1      -5.278   5.306 120.129  0.00  0.00    +0.000 C 
ATOM     66  N   UNL     1      -4.440   6.034 120.789  0.00  0.00    +0.000 NA
ATOM     67  N   UNL     1      -5.513   5.624 118.834  0.00  0.00    +0.000 N 
ATOM     68  H   UNL     1      -6.617   3.702 120.136  0.00  0.00    +0.000 HD
ATOM     69  H   UNL     1      -4.334   5.719 121.757  0.00  0.00    +0.000 HD
ATOM     70  H   UNL     1      -6.123   5.134 118.204  0.00  0.00    +0.000 HD
ATOM     71  H   UNL     1      -5.005   6.406 118.421  0.00  0.00    +0.000 HD
ENDBRANCH  63  64
ENDBRANCH  62  63
ENDBRANCH  61  62
ENDBRANCH  50  61
ENDBRANCH  48  50
ENDBRANCH  45  46
ENDBRANCH  22  39
BRANCH   1  72
ATOM     72  C   UNL     1      -2.617   5.270 136.475  0.00  0.00    +0.000 C 
ATOM     73  C   UNL     1      -2.696   6.098 137.940  0.00  0.00    +0.000 C 
BRANCH  72  75
ATOM     74  C   UNL     1      -0.327   7.273 136.349  0.00  0.00    +0.000 C 
ATOM     75  C   UNL     1      -1.293   6.130 135.932  0.00  0.00    +0.000 C 
ENDBRANCH  72  75
ENDBRANCH   1  72
BRANCH  26  76
ATOM     76  C   UNL     1      -5.455   0.311 132.474  0.00  0.00    +0.000 C 
BRANCH  76  77
ATOM     77  C   UNL     1      -6.827  -0.376 132.754  0.00  0.00    +0.000 C 
ATOM     78  N   UNL     1      -7.469  -0.637 131.687  0.00  0.00    +0.000 N 
ATOM     79  O   UNL     1      -7.241  -0.966 133.727  0.00  0.00    +0.000 OA
ATOM     80  H   UNL     1      -6.664  -0.885 131.197  0.00  0.00    +0.000 HD
ATOM     81  H   UNL     1      -8.183  -1.108 131.223  0.00  0.00    +0.000 HD
ENDBRANCH  76  77
ENDBRANCH  26  76
BRANCH   5  82
ATOM     82  C   UNL     1      -5.025   4.441 131.804  0.00  0.00    +0.000 C 
BRANCH  82  83
ATOM     83  C   UNL     1      -5.207   5.029 130.530  0.00  0.00    +0.000 A 
ATOM     84  C   UNL     1      -3.586   5.441 129.618  0.00  0.00    +0.000 A 
ATOM     85  C   UNL     1      -3.409   7.142 129.208  0.00  0.00    +0.000 A 
ATOM     86  C   UNL     1      -4.675   8.287 129.874  0.00  0.00    +0.000 A 
ATOM     87  C   UNL     1      -6.412   7.807 130.415  0.00  0.00    +0.000 A 
ATOM     88  C   UNL     1      -6.585   6.209 130.838  0.00  0.00    +0.000 A 
BRANCH  86  89
ATOM     89  O   UNL     1      -4.084   9.928 129.365  0.00  0.00    +0.000 OA
ATOM     90  H   UNL     1      -3.212  10.397 129.593  0.00  0.00    +0.000 HD
ENDBRANCH  86  89
ENDBRANCH  82  83
ENDBRANCH   5  82
BRANCH  30  91
ATOM     91  C   UNL     1      -5.270   4.597 133.989  0.00  0.00    +0.000 C 
BRANCH  91  92
ATOM     92  C   UNL     1      -4.702   6.648 133.311  0.00  0.00    +0.000 C 
BRANCH  92  93
ATOM     93  C   UNL     1      -3.024   7.076 133.220  0.00  0.00    +0.000 C 
ATOM     94  N   UNL     1      -2.833   8.511 134.107  0.00  0.00    +0.000 N 
ATOM     95  O   UNL     1      -2.214   6.604 132.455  0.00  0.00    +0.000 OA
ATOM     96  H   UNL     1      -3.570   9.394 134.093  0.00  0.00    +0.000 HD
ATOM     97  H   UNL     1      -2.061   9.145 133.970  0.00  0.00    +0.000 HD
ENDBRANCH  92  93
ENDBRANCH  91  92
ENDBRANCH  30  91
TORSDOF 20
ENDMDL
MODEL 7
REMARK VINA RESULT:      -9.8      3.549      7.549
REMARK  Name = CHEMBL4126100
REMARK  22 active torsions:
REMARK  status: ('A' for Active; 'I' for Inactive)
REMARK    1  A    between atoms: C_1  and  C_2
REMARK    2  A    between atoms: C_2  and  C_3
REMARK    3  A    between atoms: C_3  and  C_4
REMARK    4  A    between atoms: C_3  and  C_5
REMARK    5  A    between atoms: C_9  and  C_10
REMARK    6  A    between atoms: C_10  and  C_11
REMARK    7  A    between atoms: C_14  and  O_15
REMARK    8  A    between atoms: C_34  and  C_35
REMARK    9  A    between atoms: C_41  and  C_42
REMARK   10  A    between atoms: N_44  and  C_45
REMARK   11  A    between atoms: C_45  and  C_46
REMARK   12  A    between atoms: C_45  and  C_53
REMARK   13  A    between atoms: C_46  and  C_47
REMARK   14  A    between atoms: C_47  and  C_48
REMARK   15  A    between atoms: C_48  and  N_49
REMARK   16  A    between atoms: N_55  and  C_56
REMARK   17  A    between atoms: C_56  and  C_57
REMARK   18  A    between atoms: C_63  and  C_64
REMARK   19  A    between atoms: C_64  and  C_65
REMARK   20  A    between atoms: C_71  and  C_72
REMARK   21  A    between atoms: C_72  and  C_73
REMARK   22  A    between atoms: C_73  and  C_74
REMARK                            x       y       z     vdW  Elec       q    Type
REMARK                         _______ _______ _______ _____ _____    ______ ____
ROOT
ATOM      1  C   UNL     1      -8.025   5.054 129.707  0.00  0.00    +0.000 C 
ATOM      2  N   UNL     1      -5.972   4.308 129.324  0.00  0.00    +0.000 N 
ATOM      3  C   UNL     1      -4.622   3.352 130.124  0.00  0.00    +0.000 C 
ATOM      4  O   UNL     1      -4.097   2.822 129.075  0.00  0.00    +0.000 OA
ATOM      5  C   UNL     1      -5.395   3.457 131.991  0.00  0.00    +0.000 C 
ATOM      6  N   UNL     1      -6.275   5.284 132.016  0.00  0.00    +0.000 N 
ATOM      7  C   UNL     1      -6.935   6.118 130.391  0.00  0.00    +0.000 C 
ATOM      8  O   UNL     1      -7.341   7.289 130.448  0.00  0.00    +0.000 OA
ATOM      9  C   UNL     1      -7.029   4.988 128.465  0.00  0.00    +0.000 C 
ATOM     10  C   UNL     1      -6.398   2.914 128.327  0.00  0.00    +0.000 C 
ATOM     11  S   UNL     1      -8.068   1.490 127.606  0.00  0.00    +0.000 S 
ATOM     12  C   UNL     1      -7.402   0.094 127.795  0.00  0.00    +0.000 C 
ATOM     13  C   UNL     1      -7.827  -1.070 127.245  0.00  0.00    +0.000 A 
ATOM     14  C   UNL     1      -8.734  -0.574 126.347  0.00  0.00    +0.000 A 
ATOM     15  C   UNL     1      -9.598  -1.407 125.916  0.00  0.00    +0.000 A 
ATOM     16  C   UNL     1      -9.234  -2.699 126.104  0.00  0.00    +0.000 A 
ATOM     17  C   UNL     1      -8.149  -3.155 126.863  0.00  0.00    +0.000 A 
ATOM     18  C   UNL     1      -7.517  -2.333 127.684  0.00  0.00    +0.000 A 
ATOM     19  C   UNL     1      -6.605  -2.892 128.760  0.00  0.00    +0.000 C 
ATOM     20  S   UNL     1      -7.301  -2.988 130.744  0.00  0.00    +0.000 S 
ATOM     21  C   UNL     1      -5.452  -2.770 132.348  0.00  0.00    +0.000 C 
ATOM     22  C   UNL     1      -5.450  -1.570 133.464  0.00  0.00    +0.000 C 
ATOM     23  N   UNL     1      -5.444  -0.183 133.051  0.00  0.00    +0.000 N 
ATOM     24  C   UNL     1      -6.034   0.596 131.370  0.00  0.00    +0.000 C 
ATOM     25  O   UNL     1      -5.368   1.368 130.650  0.00  0.00    +0.000 OA
ATOM     26  C   UNL     1      -7.266   0.278 130.625  0.00  0.00    +0.000 C 
ATOM     27  N   UNL     1      -8.585   1.023 130.725  0.00  0.00    +0.000 N 
ATOM     28  C   UNL     1      -8.927   2.298 130.411  0.00  0.00    +0.000 C 
ATOM     29  O   UNL     1      -9.739   3.023 130.937  0.00  0.00    +0.000 OA
ATOM     30  C   UNL     1      -7.900   2.840 129.588  0.00  0.00    +0.000 C 
ATOM     31  N   UNL     1      -8.256   3.469 127.666  0.00  0.00    +0.000 N 
ATOM     32  C   UNL     1      -8.742   4.829 127.732  0.00  0.00    +0.000 C 
ATOM     33  O   UNL     1      -8.823   5.347 126.641  0.00  0.00    +0.000 OA
ATOM     34  H   UNL     1      -4.709   4.004 129.207  0.00  0.00    +0.000 HD
ATOM     35  H   UNL     1      -5.337   5.409 131.971  0.00  0.00    +0.000 HD
ATOM     36  H   UNL     1      -4.558   0.171 133.544  0.00  0.00    +0.000 HD
ATOM     37  H   UNL     1      -9.310   0.602 131.251  0.00  0.00    +0.000 HD
ATOM     38  H   UNL     1      -7.451   3.210 127.035  0.00  0.00    +0.000 HD
ENDROOT
BRANCH  22  39
ATOM     39  C   UNL     1      -4.322  -1.955 134.244  0.00  0.00    +0.000 C 
ATOM     40  O   UNL     1      -3.209  -2.043 133.755  0.00  0.00    +0.000 OA
ATOM     41  N   UNL     1      -4.866  -1.985 135.520  0.00  0.00    +0.000 N 
ATOM     42  C   UNL     1      -5.999  -2.763 136.101  0.00  0.00    +0.000 C 
ATOM     43  C   UNL     1      -6.585  -1.811 137.070  0.00  0.00    +0.000 C 
ATOM     44  C   UNL     1      -5.310  -1.263 137.669  0.00  0.00    +0.000 C 
ATOM     45  C   UNL     1      -4.283  -1.185 136.547  0.00  0.00    +0.000 C 
BRANCH  45  46
ATOM     46  C   UNL     1      -3.047  -1.935 136.968  0.00  0.00    +0.000 C 
ATOM     47  O   UNL     1      -3.200  -2.994 137.583  0.00  0.00    +0.000 OA
ATOM     48  N   UNL     1      -1.817  -1.361 136.700  0.00  0.00    +0.000 N 
ATOM     49  H   UNL     1      -1.737  -0.402 136.364  0.00  0.00    +0.000 HD
BRANCH  48  50
ATOM     50  C   UNL     1      -0.532  -2.058 136.964  0.00  0.00    +0.000 C 
BRANCH  50  51
ATOM     51  C   UNL     1       0.310  -1.299 138.045  0.00  0.00    +0.000 C 
ATOM     52  O   UNL     1       0.342  -1.710 139.204  0.00  0.00    +0.000 OA
ATOM     53  N   UNL     1       1.006  -0.168 137.651  0.00  0.00    +0.000 N 
ATOM     54  H   UNL     1       0.973   0.152 136.702  0.00  0.00    +0.000 HD
BRANCH  53  55
ATOM     55  C   UNL     1       1.814   0.619 138.590  0.00  0.00    +0.000 C 
BRANCH  55  56
ATOM     56  C   UNL     1       1.034   1.718 139.343  0.00  0.00    +0.000 C 
ATOM     57  N   UNL     1       0.313   1.344 140.453  0.00  0.00    +0.000 N 
ATOM     58  O   UNL     1       1.050   2.890 138.974  0.00  0.00    +0.000 OA
ATOM     59  H   UNL     1       0.241   0.417 140.828  0.00  0.00    +0.000 HD
ATOM     60  H   UNL     1      -0.209   2.045 140.969  0.00  0.00    +0.000 HD
ENDBRANCH  55  56
ENDBRANCH  53  55
ENDBRANCH  50  51
BRANCH  50  61
ATOM     61  C   UNL     1       0.283  -2.163 135.669  0.00  0.00    +0.000 C 
BRANCH  61  62
ATOM     62  C   UNL     1       0.592  -3.605 135.297  0.00  0.00    +0.000 C 
BRANCH  62  63
ATOM     63  C   UNL     1      -0.498  -4.583 135.569  0.00  0.00    +0.000 C 
BRANCH  63  64
ATOM     64  N   UNL     1      -1.429  -4.740 134.450  0.00  0.00    +0.000 N 
ATOM     65  C   UNL     1      -2.691  -5.224 134.624  0.00  0.00    +0.000 C 
ATOM     66  N   UNL     1      -3.171  -5.563 135.774  0.00  0.00    +0.000 NA
ATOM     67  N   UNL     1      -3.490  -5.351 133.539  0.00  0.00    +0.000 N 
ATOM     68  H   UNL     1      -1.058  -4.519 133.527  0.00  0.00    +0.000 HD
ATOM     69  H   UNL     1      -2.492  -5.436 136.528  0.00  0.00    +0.000 HD
ATOM     70  H   UNL     1      -3.251  -5.107 132.594  0.00  0.00    +0.000 HD
ATOM     71  H   UNL     1      -4.445  -5.683 133.670  0.00  0.00    +0.000 HD
ENDBRANCH  63  64
ENDBRANCH  62  63
ENDBRANCH  61  62
ENDBRANCH  50  61
ENDBRANCH  48  50
ENDBRANCH  45  46
ENDBRANCH  22  39
BRANCH   1  72
ATOM     72  C   UNL     1      -9.818   5.842 129.433  0.00  0.00    +0.000 C 
ATOM     73  C   UNL     1     -10.017   7.513 129.351  0.00  0.00    +0.000 C 
BRANCH  72  75
ATOM     74  C   UNL     1     -12.371   6.382 131.001  0.00  0.00    +0.000 C 
ATOM     75  C   UNL     1     -11.225   5.604 130.299  0.00  0.00    +0.000 C 
ENDBRANCH  72  75
ENDBRANCH   1  72
BRANCH  26  76
ATOM     76  C   UNL     1      -6.323  -0.195 129.500  0.00  0.00    +0.000 C 
BRANCH  76  77
ATOM     77  C   UNL     1      -5.019  -0.617 128.755  0.00  0.00    +0.000 C 
ATOM     78  N   UNL     1      -4.630   0.258 127.919  0.00  0.00    +0.000 N 
ATOM     79  O   UNL     1      -4.172  -1.438 129.031  0.00  0.00    +0.000 OA
ATOM     80  H   UNL     1      -4.881   1.002 128.496  0.00  0.00    +0.000 HD
ATOM     81  H   UNL     1      -3.940   0.629 127.342  0.00  0.00    +0.000 HD
ENDBRANCH  76  77
ENDBRANCH  26  76
BRANCH   5  82
ATOM     82  C   UNL     1      -6.654   2.797 132.438  0.00  0.00    +0.000 C 
BRANCH  82  83
ATOM     83  C   UNL     1      -6.270   2.606 133.786  0.00  0.00    +0.000 A 
ATOM     84  C   UNL     1      -7.265   3.640 135.039  0.00  0.00    +0.000 A 
ATOM     85  C   UNL     1      -6.280   4.721 136.016  0.00  0.00    +0.000 A 
ATOM     86  C   UNL     1      -4.507   4.851 135.570  0.00  0.00    +0.000 A 
ATOM     87  C   UNL     1      -3.518   3.562 134.620  0.00  0.00    +0.000 A 
ATOM     88  C   UNL     1      -4.434   2.557 133.666  0.00  0.00    +0.000 A 
BRANCH  86  89
ATOM     89  O   UNL     1      -3.873   6.135 136.688  0.00  0.00    +0.000 OA
ATOM     90  H   UNL     1      -3.551   6.050 137.648  0.00  0.00    +0.000 HD
ENDBRANCH  86  89
ENDBRANCH  82  83
ENDBRANCH   5  82
BRANCH  30  91
ATOM     91  C   UNL     1      -6.780   4.166 130.715  0.00  0.00    +0.000 C 
BRANCH  91  92
ATOM     92  C   UNL     1      -7.216   5.373 132.543  0.00  0.00    +0.000 C 
BRANCH  92  93
ATOM     93  C   UNL     1      -8.865   5.686 132.979  0.00  0.00    +0.000 C 
ATOM     94  N   UNL     1      -9.536   4.204 133.466  0.00  0.00    +0.000 N 
ATOM     95  O   UNL     1      -9.484   6.694 132.724  0.00  0.00    +0.000 OA
ATOM     96  H   UNL     1      -9.345   3.196 132.948  0.00  0.00    +0.000 HD
ATOM     97  H   UNL     1     -10.527   4.023 133.468  0.00  0.00    +0.000 HD
ENDBRANCH  92  93
ENDBRANCH  91  92
ENDBRANCH  30  91
TORSDOF 20
ENDMDL
MODEL 8
REMARK VINA RESULT:      -9.7      3.528      9.689
REMARK  Name = CHEMBL4126100
REMARK  22 active torsions:
REMARK  status: ('A' for Active; 'I' for Inactive)
REMARK    1  A    between atoms: C_1  and  C_2
REMARK    2  A    between atoms: C_2  and  C_3
REMARK    3  A    between atoms: C_3  and  C_4
REMARK    4  A    between atoms: C_3  and  C_5
REMARK    5  A    between atoms: C_9  and  C_10
REMARK    6  A    between atoms: C_10  and  C_11
REMARK    7  A    between atoms: C_14  and  O_15
REMARK    8  A    between atoms: C_34  and  C_35
REMARK    9  A    between atoms: C_41  and  C_42
REMARK   10  A    between atoms: N_44  and  C_45
REMARK   11  A    between atoms: C_45  and  C_46
REMARK   12  A    between atoms: C_45  and  C_53
REMARK   13  A    between atoms: C_46  and  C_47
REMARK   14  A    between atoms: C_47  and  C_48
REMARK   15  A    between atoms: C_48  and  N_49
REMARK   16  A    between atoms: N_55  and  C_56
REMARK   17  A    between atoms: C_56  and  C_57
REMARK   18  A    between atoms: C_63  and  C_64
REMARK   19  A    between atoms: C_64  and  C_65
REMARK   20  A    between atoms: C_71  and  C_72
REMARK   21  A    between atoms: C_72  and  C_73
REMARK   22  A    between atoms: C_73  and  C_74
REMARK                            x       y       z     vdW  Elec       q    Type
REMARK                         _______ _______ _______ _____ _____    ______ ____
ROOT
ATOM      1  C   UNL     1      -4.256   5.043 133.889  0.00  0.00    +0.000 C 
ATOM      2  N   UNL     1      -6.140   3.875 133.831  0.00  0.00    +0.000 N 
ATOM      3  C   UNL     1      -7.076   2.717 132.755  0.00  0.00    +0.000 C 
ATOM      4  O   UNL     1      -7.672   2.028 133.664  0.00  0.00    +0.000 OA
ATOM      5  C   UNL     1      -5.994   3.090 131.086  0.00  0.00    +0.000 C 
ATOM      6  N   UNL     1      -5.530   5.056 131.276  0.00  0.00    +0.000 N 
ATOM      7  C   UNL     1      -5.391   5.905 133.017  0.00  0.00    +0.000 C 
ATOM      8  O   UNL     1      -5.238   7.135 133.067  0.00  0.00    +0.000 OA
ATOM      9  C   UNL     1      -5.439   4.701 134.900  0.00  0.00    +0.000 C 
ATOM     10  C   UNL     1      -5.634   2.538 134.867  0.00  0.00    +0.000 C 
ATOM     11  S   UNL     1      -3.875   1.439 135.885  0.00  0.00    +0.000 S 
ATOM     12  C   UNL     1      -4.182  -0.048 135.538  0.00  0.00    +0.000 C 
ATOM     13  C   UNL     1      -3.637  -1.134 136.139  0.00  0.00    +0.000 A 
ATOM     14  C   UNL     1      -3.048  -0.521 137.213  0.00  0.00    +0.000 A 
ATOM     15  C   UNL     1      -2.130  -1.186 137.795  0.00  0.00    +0.000 A 
ATOM     16  C   UNL     1      -2.169  -2.511 137.512  0.00  0.00    +0.000 A 
ATOM     17  C   UNL     1      -2.964  -3.130 136.539  0.00  0.00    +0.000 A 
ATOM     18  C   UNL     1      -3.582  -2.404 135.622  0.00  0.00    +0.000 A 
ATOM     19  C   UNL     1      -4.128  -3.069 134.372  0.00  0.00    +0.000 C 
ATOM     20  S   UNL     1      -3.054  -2.900 132.571  0.00  0.00    +0.000 S 
ATOM     21  C   UNL     1      -4.558  -2.962 130.627  0.00  0.00    +0.000 C 
ATOM     22  C   UNL     1      -4.594  -1.721 129.559  0.00  0.00    +0.000 C 
ATOM     23  N   UNL     1      -4.973  -0.392 129.988  0.00  0.00    +0.000 N 
ATOM     24  C   UNL     1      -4.900   0.386 131.769  0.00  0.00    +0.000 C 
ATOM     25  O   UNL     1      -5.841   0.961 132.353  0.00  0.00    +0.000 OA
ATOM     26  C   UNL     1      -3.798   0.277 132.743  0.00  0.00    +0.000 C 
ATOM     27  N   UNL     1      -2.672   1.279 132.928  0.00  0.00    +0.000 N 
ATOM     28  C   UNL     1      -2.674   2.575 133.330  0.00  0.00    +0.000 C 
ATOM     29  O   UNL     1      -1.947   3.480 132.995  0.00  0.00    +0.000 OA
ATOM     30  C   UNL     1      -3.933   2.846 133.937  0.00  0.00    +0.000 C 
ATOM     31  N   UNL     1      -4.099   3.415 135.903  0.00  0.00    +0.000 N 
ATOM     32  C   UNL     1      -3.907   4.847 135.964  0.00  0.00    +0.000 C 
ATOM     33  O   UNL     1      -4.152   5.302 137.058  0.00  0.00    +0.000 OA
ATOM     34  H   UNL     1      -7.309   3.315 133.682  0.00  0.00    +0.000 HD
ATOM     35  H   UNL     1      -6.464   4.986 131.132  0.00  0.00    +0.000 HD
ATOM     36  H   UNL     1      -5.799  -0.195 129.331  0.00  0.00    +0.000 HD
ATOM     37  H   UNL     1      -1.786   1.046 132.553  0.00  0.00    +0.000 HD
ATOM     38  H   UNL     1      -4.939   2.960 136.351  0.00  0.00    +0.000 HD
ENDROOT
BRANCH  22  39
ATOM     39  C   UNL     1      -5.441  -2.277 128.557  0.00  0.00    +0.000 C 
ATOM     40  O   UNL     1      -4.990  -2.925 127.628  0.00  0.00    +0.000 OA
ATOM     41  N   UNL     1      -6.698  -2.002 129.074  0.00  0.00    +0.000 N 
ATOM     42  C   UNL     1      -7.362  -0.718 129.447  0.00  0.00    +0.000 C 
ATOM     43  C   UNL     1      -8.177  -1.102 130.620  0.00  0.00    +0.000 C 
ATOM     44  C   UNL     1      -8.717  -2.421 130.116  0.00  0.00    +0.000 C 
ATOM     45  C   UNL     1      -7.614  -3.073 129.293  0.00  0.00    +0.000 C 
BRANCH  45  46
ATOM     46  C   UNL     1      -8.158  -3.404 127.929  0.00  0.00    +0.000 C 
ATOM     47  O   UNL     1      -8.734  -4.488 127.788  0.00  0.00    +0.000 OA
ATOM     48  N   UNL     1      -7.924  -2.508 126.902  0.00  0.00    +0.000 N 
ATOM     49  H   UNL     1      -7.285  -1.722 127.015  0.00  0.00    +0.000 HD
BRANCH  48  50
ATOM     50  C   UNL     1      -8.508  -2.671 125.546  0.00  0.00    +0.000 C 
BRANCH  50  51
ATOM     51  C   UNL     1      -7.387  -2.758 124.455  0.00  0.00    +0.000 C 
ATOM     52  O   UNL     1      -7.676  -2.668 123.263  0.00  0.00    +0.000 OA
ATOM     53  N   UNL     1      -6.081  -2.937 124.879  0.00  0.00    +0.000 N 
ATOM     54  H   UNL     1      -5.860  -3.005 125.855  0.00  0.00    +0.000 HD
BRANCH  53  55
ATOM     55  C   UNL     1      -4.961  -3.043 123.937  0.00  0.00    +0.000 C 
BRANCH  55  56
ATOM     56  C   UNL     1      -4.441  -4.479 123.716  0.00  0.00    +0.000 C 
ATOM     57  N   UNL     1      -3.120  -4.635 123.365  0.00  0.00    +0.000 N 
ATOM     58  O   UNL     1      -5.172  -5.459 123.847  0.00  0.00    +0.000 OA
ATOM     59  H   UNL     1      -2.451  -3.898 123.236  0.00  0.00    +0.000 HD
ATOM     60  H   UNL     1      -2.750  -5.567 123.213  0.00  0.00    +0.000 HD
ENDBRANCH  55  56
ENDBRANCH  53  55
ENDBRANCH  50  51
BRANCH  50  61
ATOM     61  C   UNL     1      -9.433  -1.490 125.228  0.00  0.00    +0.000 C 
BRANCH  61  62
ATOM     62  C   UNL     1      -8.719  -0.151 125.336  0.00  0.00    +0.000 C 
BRANCH  62  63
ATOM     63  C   UNL     1      -9.217   0.914 124.423  0.00  0.00    +0.000 C 
BRANCH  63  64
ATOM     64  N   UNL     1      -8.166   1.825 123.966  0.00  0.00    +0.000 N 
ATOM     65  C   UNL     1      -8.148   3.141 124.320  0.00  0.00    +0.000 C 
ATOM     66  N   UNL     1      -9.031   3.684 125.091  0.00  0.00    +0.000 NA
ATOM     67  N   UNL     1      -7.148   3.924 123.849  0.00  0.00    +0.000 N 
ATOM     68  H   UNL     1      -7.482   1.430 123.323  0.00  0.00    +0.000 HD
ATOM     69  H   UNL     1      -9.745   3.014 125.389  0.00  0.00    +0.000 HD
ATOM     70  H   UNL     1      -6.390   3.627 123.260  0.00  0.00    +0.000 HD
ATOM     71  H   UNL     1      -7.114   4.901 124.137  0.00  0.00    +0.000 HD
ENDBRANCH  63  64
ENDBRANCH  62  63
ENDBRANCH  61  62
ENDBRANCH  50  61
ENDBRANCH  48  50
ENDBRANCH  45  46
ENDBRANCH  22  39
BRANCH   1  72
ATOM     72  C   UNL     1      -2.758   6.159 134.537  0.00  0.00    +0.000 C 
ATOM     73  C   UNL     1      -2.994   7.788 134.893  0.00  0.00    +0.000 C 
BRANCH  72  75
ATOM     74  C   UNL     1      -0.008   7.332 133.967  0.00  0.00    +0.000 C 
ATOM     75  C   UNL     1      -1.252   6.409 133.863  0.00  0.00    +0.000 C 
ENDBRANCH  72  75
ENDBRANCH   1  72
BRANCH  26  76
ATOM     76  C   UNL     1      -4.822  -0.445 133.643  0.00  0.00    +0.000 C 
BRANCH  76  77
ATOM     77  C   UNL     1      -6.171  -1.040 134.150  0.00  0.00    +0.000 C 
ATOM     78  N   UNL     1      -6.602  -1.975 133.404  0.00  0.00    +0.000 N 
ATOM     79  O   UNL     1      -6.703  -1.000 135.237  0.00  0.00    +0.000 OA
ATOM     80  H   UNL     1      -5.711  -2.334 133.243  0.00  0.00    +0.000 HD
ATOM     81  H   UNL     1      -7.194  -2.734 133.255  0.00  0.00    +0.000 HD
ENDBRANCH  76  77
ENDBRANCH  26  76
BRANCH   5  82
ATOM     82  C   UNL     1      -4.561   2.728 130.892  0.00  0.00    +0.000 C 
BRANCH  82  83
ATOM     83  C   UNL     1      -4.662   2.386 129.524  0.00  0.00    +0.000 A 
ATOM     84  C   UNL     1      -3.256   3.074 128.438  0.00  0.00    +0.000 A 
ATOM     85  C   UNL     1      -3.807   4.113 127.131  0.00  0.00    +0.000 A 
ATOM     86  C   UNL     1      -5.587   4.545 127.114  0.00  0.00    +0.000 A 
ATOM     87  C   UNL     1      -6.962   3.561 127.939  0.00  0.00    +0.000 A 
ATOM     88  C   UNL     1      -6.460   2.600 129.199  0.00  0.00    +0.000 A 
BRANCH  86  89
ATOM     89  O   UNL     1      -5.736   5.716 125.732  0.00  0.00    +0.000 OA
ATOM     90  H   UNL     1      -5.005   6.149 125.174  0.00  0.00    +0.000 HD
ENDBRANCH  86  89
ENDBRANCH  82  83
ENDBRANCH   5  82
BRANCH  30  91
ATOM     91  C   UNL     1      -5.065   3.985 132.631  0.00  0.00    +0.000 C 
BRANCH  91  92
ATOM     92  C   UNL     1      -4.545   5.345 130.937  0.00  0.00    +0.000 C 
BRANCH  92  93
ATOM     93  C   UNL     1      -2.939   5.988 130.828  0.00  0.00    +0.000 C 
ATOM     94  N   UNL     1      -3.068   7.671 131.012  0.00  0.00    +0.000 N 
ATOM     95  O   UNL     1      -1.964   5.392 130.427  0.00  0.00    +0.000 OA
ATOM     96  H   UNL     1      -3.893   8.320 130.544  0.00  0.00    +0.000 HD
ATOM     97  H   UNL     1      -2.365   8.316 130.686  0.00  0.00    +0.000 HD
ENDBRANCH  92  93
ENDBRANCH  91  92
ENDBRANCH  30  91
TORSDOF 20
ENDMDL
MODEL 9
REMARK VINA RESULT:      -9.6      1.136      1.920
REMARK  Name = CHEMBL4126100
REMARK  22 active torsions:
REMARK  status: ('A' for Active; 'I' for Inactive)
REMARK    1  A    between atoms: C_1  and  C_2
REMARK    2  A    between atoms: C_2  and  C_3
REMARK    3  A    between atoms: C_3  and  C_4
REMARK    4  A    between atoms: C_3  and  C_5
REMARK    5  A    between atoms: C_9  and  C_10
REMARK    6  A    between atoms: C_10  and  C_11
REMARK    7  A    between atoms: C_14  and  O_15
REMARK    8  A    between atoms: C_34  and  C_35
REMARK    9  A    between atoms: C_41  and  C_42
REMARK   10  A    between atoms: N_44  and  C_45
REMARK   11  A    between atoms: C_45  and  C_46
REMARK   12  A    between atoms: C_45  and  C_53
REMARK   13  A    between atoms: C_46  and  C_47
REMARK   14  A    between atoms: C_47  and  C_48
REMARK   15  A    between atoms: C_48  and  N_49
REMARK   16  A    between atoms: N_55  and  C_56
REMARK   17  A    between atoms: C_56  and  C_57
REMARK   18  A    between atoms: C_63  and  C_64
REMARK   19  A    between atoms: C_64  and  C_65
REMARK   20  A    between atoms: C_71  and  C_72
REMARK   21  A    between atoms: C_72  and  C_73
REMARK   22  A    between atoms: C_73  and  C_74
REMARK                            x       y       z     vdW  Elec       q    Type
REMARK                         _______ _______ _______ _____ _____    ______ ____
ROOT
ATOM      1  C   UNL     1      -6.796   2.863 126.018  0.00  0.00    +0.000 C 
ATOM      2  N   UNL     1      -8.053   3.257 127.802  0.00  0.00    +0.000 N 
ATOM      3  C   UNL     1      -8.627   2.462 129.355  0.00  0.00    +0.000 C 
ATOM      4  O   UNL     1      -8.745   3.511 130.091  0.00  0.00    +0.000 OA
ATOM      5  C   UNL     1      -8.074   0.589 128.826  0.00  0.00    +0.000 C 
ATOM      6  N   UNL     1      -8.391   0.570 126.823  0.00  0.00    +0.000 N 
ATOM      7  C   UNL     1      -8.306   2.196 125.763  0.00  0.00    +0.000 C 
ATOM      8  O   UNL     1      -8.640   2.145 124.570  0.00  0.00    +0.000 OA
ATOM      9  C   UNL     1      -7.563   4.112 126.642  0.00  0.00    +0.000 C 
ATOM     10  C   UNL     1      -6.899   4.240 128.706  0.00  0.00    +0.000 C 
ATOM     11  S   UNL     1      -4.706   4.936 128.927  0.00  0.00    +0.000 S 
ATOM     12  C   UNL     1      -4.461   4.742 130.452  0.00  0.00    +0.000 C 
ATOM     13  C   UNL     1      -3.442   5.279 131.168  0.00  0.00    +0.000 A 
ATOM     14  C   UNL     1      -2.969   6.173 130.245  0.00  0.00    +0.000 A 
ATOM     15  C   UNL     1      -1.780   6.590 130.438  0.00  0.00    +0.000 A 
ATOM     16  C   UNL     1      -1.345   6.396 131.706  0.00  0.00    +0.000 A 
ATOM     17  C   UNL     1      -1.985   5.642 132.698  0.00  0.00    +0.000 A 
ATOM     18  C   UNL     1      -2.983   4.832 132.382  0.00  0.00    +0.000 A 
ATOM     19  C   UNL     1      -3.426   3.760 133.359  0.00  0.00    +0.000 C 
ATOM     20  S   UNL     1      -2.821   1.770 133.038  0.00  0.00    +0.000 S 
ATOM     21  C   UNL     1      -4.484   0.183 133.910  0.00  0.00    +0.000 C 
ATOM     22  C   UNL     1      -5.181  -0.923 132.923  0.00  0.00    +0.000 C 
ATOM     23  N   UNL     1      -5.972  -0.500 131.787  0.00  0.00    +0.000 N 
ATOM     24  C   UNL     1      -5.912   1.182 130.813  0.00  0.00    +0.000 C 
ATOM     25  O   UNL     1      -6.891   1.914 130.559  0.00  0.00    +0.000 OA
ATOM     26  C   UNL     1      -4.709   1.914 130.375  0.00  0.00    +0.000 C 
ATOM     27  N   UNL     1      -4.050   1.809 129.011  0.00  0.00    +0.000 N 
ATOM     28  C   UNL     1      -4.492   2.130 127.768  0.00  0.00    +0.000 C 
ATOM     29  O   UNL     1      -4.244   1.602 126.709  0.00  0.00    +0.000 OA
ATOM     30  C   UNL     1      -5.636   2.965 127.909  0.00  0.00    +0.000 C 
ATOM     31  N   UNL     1      -5.679   4.889 127.192  0.00  0.00    +0.000 N 
ATOM     32  C   UNL     1      -6.056   4.830 125.797  0.00  0.00    +0.000 C 
ATOM     33  O   UNL     1      -6.272   5.924 125.327  0.00  0.00    +0.000 OA
ATOM     34  H   UNL     1      -8.917   3.382 128.771  0.00  0.00    +0.000 HD
ATOM     35  H   UNL     1      -9.233   0.625 127.254  0.00  0.00    +0.000 HD
ATOM     36  H   UNL     1      -6.907  -0.983 132.000  0.00  0.00    +0.000 HD
ATOM     37  H   UNL     1      -3.221   1.273 128.943  0.00  0.00    +0.000 HD
ATOM     38  H   UNL     1      -6.186   5.525 127.865  0.00  0.00    +0.000 HD
ENDROOT
BRANCH  22  39
ATOM     39  C   UNL     1      -5.898  -1.697 133.881  0.00  0.00    +0.000 C 
ATOM     40  O   UNL     1      -7.088  -1.521 134.081  0.00  0.00    +0.000 OA
ATOM     41  N   UNL     1      -4.944  -2.634 134.250  0.00  0.00    +0.000 N 
ATOM     42  C   UNL     1      -3.581  -2.487 134.839  0.00  0.00    +0.000 C 
ATOM     43  C   UNL     1      -2.834  -3.601 134.215  0.00  0.00    +0.000 C 
ATOM     44  C   UNL     1      -3.883  -4.684 134.325  0.00  0.00    +0.000 C 
ATOM     45  C   UNL     1      -5.238  -4.023 134.110  0.00  0.00    +0.000 C 
BRANCH  45  46
ATOM     46  C   UNL     1      -6.129  -4.350 135.279  0.00  0.00    +0.000 C 
ATOM     47  O   UNL     1      -6.994  -5.216 135.115  0.00  0.00    +0.000 OA
ATOM     48  N   UNL     1      -5.970  -3.618 136.442  0.00  0.00    +0.000 N 
ATOM     49  H   UNL     1      -5.378  -2.789 136.473  0.00  0.00    +0.000 HD
BRANCH  48  50
ATOM     50  C   UNL     1      -6.710  -3.927 137.691  0.00  0.00    +0.000 C 
BRANCH  50  51
ATOM     51  C   UNL     1      -7.814  -2.853 137.974  0.00  0.00    +0.000 C 
ATOM     52  O   UNL     1      -7.689  -1.709 137.539  0.00  0.00    +0.000 OA
ATOM     53  N   UNL     1      -8.918  -3.235 138.717  0.00  0.00    +0.000 N 
ATOM     54  H   UNL     1      -9.008  -4.173 139.061  0.00  0.00    +0.000 HD
BRANCH  53  55
ATOM     55  C   UNL     1     -10.001  -2.302 139.045  0.00  0.00    +0.000 C 
BRANCH  55  56
ATOM     56  C   UNL     1     -11.280  -2.479 138.197  0.00  0.00    +0.000 C 
ATOM     57  N   UNL     1     -11.505  -3.711 137.629  0.00  0.00    +0.000 N 
ATOM     58  O   UNL     1     -12.076  -1.558 138.029  0.00  0.00    +0.000 OA
ATOM     59  H   UNL     1     -10.915  -4.518 137.710  0.00  0.00    +0.000 HD
ATOM     60  H   UNL     1     -12.337  -3.857 137.066  0.00  0.00    +0.000 HD
ENDBRANCH  55  56
ENDBRANCH  53  55
ENDBRANCH  50  51
BRANCH  50  61
ATOM     61  C   UNL     1      -5.739  -3.979 138.877  0.00  0.00    +0.000 C 
BRANCH  61  62
ATOM     62  C   UNL     1      -6.032  -5.141 139.813  0.00  0.00    +0.000 C 
BRANCH  62  63
ATOM     63  C   UNL     1      -6.025  -4.809 141.265  0.00  0.00    +0.000 C 
BRANCH  63  64
ATOM     64  N   UNL     1      -6.306  -3.398 141.538  0.00  0.00    +0.000 N 
ATOM     65  C   UNL     1      -7.550  -2.965 141.887  0.00  0.00    +0.000 C 
ATOM     66  N   UNL     1      -8.567  -3.751 142.021  0.00  0.00    +0.000 NA
ATOM     67  N   UNL     1      -7.736  -1.643 142.113  0.00  0.00    +0.000 N 
ATOM     68  H   UNL     1      -5.530  -2.753 141.397  0.00  0.00    +0.000 HD
ATOM     69  H   UNL     1      -8.328  -4.726 141.824  0.00  0.00    +0.000 HD
ATOM     70  H   UNL     1      -7.031  -0.928 142.063  0.00  0.00    +0.000 HD
ATOM     71  H   UNL     1      -8.658  -1.320 142.405  0.00  0.00    +0.000 HD
ENDBRANCH  63  64
ENDBRANCH  62  63
ENDBRANCH  61  62
ENDBRANCH  50  61
ENDBRANCH  48  50
ENDBRANCH  45  46
ENDBRANCH  22  39
BRANCH   1  72
ATOM     72  C   UNL     1      -5.769   3.127 124.350  0.00  0.00    +0.000 C 
ATOM     73  C   UNL     1      -4.314   3.976 124.363  0.00  0.00    +0.000 C 
BRANCH  72  75
ATOM     74  C   UNL     1      -5.832   3.895 121.404  0.00  0.00    +0.000 C 
ATOM     75  C   UNL     1      -6.262   3.773 122.891  0.00  0.00    +0.000 C 
ENDBRANCH  72  75
ENDBRANCH   1  72
BRANCH  26  76
ATOM     76  C   UNL     1      -5.202   3.043 131.302  0.00  0.00    +0.000 C 
BRANCH  76  77
ATOM     77  C   UNL     1      -6.030   3.798 132.387  0.00  0.00    +0.000 C 
ATOM     78  N   UNL     1      -6.868   4.611 131.883  0.00  0.00    +0.000 N 
ATOM     79  O   UNL     1      -6.239   3.543 133.553  0.00  0.00    +0.000 OA
ATOM     80  H   UNL     1      -7.087   4.015 131.144  0.00  0.00    +0.000 HD
ATOM     81  H   UNL     1      -7.654   5.178 131.971  0.00  0.00    +0.000 HD
ENDBRANCH  76  77
ENDBRANCH  26  76
BRANCH   5  82
ATOM     82  C   UNL     1      -6.668   0.126 128.650  0.00  0.00    +0.000 C 
BRANCH  82  83
ATOM     83  C   UNL     1      -6.972  -1.234 128.407  0.00  0.00    +0.000 A 
ATOM     84  C   UNL     1      -8.154  -2.014 129.681  0.00  0.00    +0.000 A 
ATOM     85  C   UNL     1      -7.483  -3.408 130.517  0.00  0.00    +0.000 A 
ATOM     86  C   UNL     1      -5.718  -3.787 130.205  0.00  0.00    +0.000 A 
ATOM     87  C   UNL     1      -4.732  -3.255 128.693  0.00  0.00    +0.000 A 
ATOM     88  C   UNL     1      -5.336  -1.917 127.914  0.00  0.00    +0.000 A 
BRANCH  86  89
ATOM     89  O   UNL     1      -5.368  -5.174 131.326  0.00  0.00    +0.000 OA
ATOM     90  H   UNL     1      -4.951  -5.162 132.253  0.00  0.00    +0.000 HD
ENDBRANCH  86  89
ENDBRANCH  82  83
ENDBRANCH   5  82
BRANCH  30  91
ATOM     91  C   UNL     1      -7.324   1.858 127.456  0.00  0.00    +0.000 C 
BRANCH  91  92
ATOM     92  C   UNL     1      -7.710   0.146 126.074  0.00  0.00    +0.000 C 
BRANCH  92  93
ATOM     93  C   UNL     1      -6.499  -0.295 124.913  0.00  0.00    +0.000 C 
ATOM     94  N   UNL     1      -7.213  -0.152 123.379  0.00  0.00    +0.000 N 
ATOM     95  O   UNL     1      -5.455  -0.854 125.158  0.00  0.00    +0.000 OA
ATOM     96  H   UNL     1      -8.285  -0.476 123.122  0.00  0.00    +0.000 HD
ATOM     97  H   UNL     1      -6.865  -0.632 122.563  0.00  0.00    +0.000 HD
ENDBRANCH  92  93
ENDBRANCH  91  92
ENDBRANCH  30  91
TORSDOF 20
ENDMDL
