MODEL 1
REMARK VINA RESULT:      -9.1      0.000      0.000
REMARK  Name = CHEMBL520595
REMARK  6 active torsions:
REMARK  status: ('A' for Active; 'I' for Inactive)
REMARK    1  A    between atoms: C_2  and  C_3
REMARK    2  A    between atoms: C_6  and  C_7
REMARK    3  A    between atoms: N_15  and  C_16
REMARK    4  A    between atoms: N_15  and  C_23
REMARK    5  A    between atoms: C_16  and  C_17
REMARK    6  A    between atoms: C_23  and  C_24
REMARK                            x       y       z     vdW  Elec       q    Type
REMARK                         _______ _______ _______ _____ _____    ______ ____
ROOT
ATOM      1  O   UNL     1      -8.563   2.190 126.623  0.00  0.00    +0.000 OA
ATOM      2  C   UNL     1      -7.718   1.586 125.957  0.00  0.00    +0.000 C 
ATOM      3  N   UNL     1      -7.005   0.443 126.348  0.00  0.00    +0.000 N 
ENDROOT
BRANCH   2   4
ATOM      4  C   UNL     1      -7.490   2.221 124.660  0.00  0.00    +0.000 A 
ATOM      5  C   UNL     1      -8.377   1.965 123.611  0.00  0.00    +0.000 A 
ATOM      6  C   UNL     1      -8.113   2.505 122.362  0.00  0.00    +0.000 A 
ATOM      7  C   UNL     1      -6.967   3.278 122.199  0.00  0.00    +0.000 A 
ATOM      8  N   UNL     1      -6.068   3.488 123.192  0.00  0.00    +0.000 NA
ATOM      9  C   UNL     1      -6.334   2.926 124.387  0.00  0.00    +0.000 A 
BRANCH   7  10
ATOM     10  C   UNL     1      -6.678   3.958 120.944  0.00  0.00    +0.000 A 
ATOM     11  C   UNL     1      -5.457   4.619 120.745  0.00  0.00    +0.000 A 
ATOM     12  C   UNL     1      -5.234   5.350 119.579  0.00  0.00    +0.000 A 
ATOM     13  C   UNL     1      -6.201   5.369 118.573  0.00  0.00    +0.000 A 
ATOM     14  C   UNL     1      -7.407   4.693 118.747  0.00  0.00    +0.000 A 
ATOM     15  C   UNL     1      -7.646   4.000 119.929  0.00  0.00    +0.000 A 
ENDBRANCH   7  10
ENDBRANCH   2   4
BRANCH   3  16
ATOM     16  C   UNL     1      -7.198  -0.157 127.675  0.00  0.00    +0.000 C 
BRANCH  16  17
ATOM     17  C   UNL     1      -7.858  -1.495 127.754  0.00  0.00    +0.000 A 
ATOM     18  C   UNL     1      -8.596  -1.979 126.664  0.00  0.00    +0.000 A 
ATOM     19  C   UNL     1      -9.162  -3.245 126.718  0.00  0.00    +0.000 A 
ATOM     20  C   UNL     1      -8.948  -4.047 127.839  0.00  0.00    +0.000 A 
ATOM     21  C   UNL     1      -8.198  -3.577 128.918  0.00  0.00    +0.000 A 
ATOM     22  C   UNL     1      -7.656  -2.299 128.880  0.00  0.00    +0.000 A 
ENDBRANCH  16  17
ENDBRANCH   3  16
BRANCH   3  23
ATOM     23  C   UNL     1      -5.964  -0.182 125.501  0.00  0.00    +0.000 C 
BRANCH  23  24
ATOM     24  C   UNL     1      -6.370  -1.409 124.668  0.00  0.00    +0.000 C 
ATOM     25  C   UNL     1      -5.396  -2.561 124.795  0.00  0.00    +0.000 C 
ATOM     26  C   UNL     1      -5.529  -3.233 123.454  0.00  0.00    +0.000 C 
ATOM     27  C   UNL     1      -5.758  -2.070 122.514  0.00  0.00    +0.000 C 
ATOM     28  O   UNL     1      -6.415  -1.049 123.274  0.00  0.00    +0.000 OA
ENDBRANCH  23  24
ENDBRANCH   3  23
TORSDOF 6
ENDMDL
MODEL 2
REMARK VINA RESULT:      -9.0      1.709      2.309
REMARK  Name = CHEMBL520595
REMARK  6 active torsions:
REMARK  status: ('A' for Active; 'I' for Inactive)
REMARK    1  A    between atoms: C_2  and  C_3
REMARK    2  A    between atoms: C_6  and  C_7
REMARK    3  A    between atoms: N_15  and  C_16
REMARK    4  A    between atoms: N_15  and  C_23
REMARK    5  A    between atoms: C_16  and  C_17
REMARK    6  A    between atoms: C_23  and  C_24
REMARK                            x       y       z     vdW  Elec       q    Type
REMARK                         _______ _______ _______ _____ _____    ______ ____
ROOT
ATOM      1  O   UNL     1      -8.364   2.538 127.432  0.00  0.00    +0.000 OA
ATOM      2  C   UNL     1      -8.114   1.617 126.649  0.00  0.00    +0.000 C 
ATOM      3  N   UNL     1      -7.959   0.261 126.972  0.00  0.00    +0.000 N 
ENDROOT
BRANCH   2   4
ATOM      4  C   UNL     1      -7.955   2.097 125.277  0.00  0.00    +0.000 A 
ATOM      5  C   UNL     1      -6.697   2.527 124.848  0.00  0.00    +0.000 A 
ATOM      6  C   UNL     1      -6.566   3.056 123.574  0.00  0.00    +0.000 A 
ATOM      7  C   UNL     1      -7.699   3.146 122.771  0.00  0.00    +0.000 A 
ATOM      8  N   UNL     1      -8.936   2.786 123.193  0.00  0.00    +0.000 NA
ATOM      9  C   UNL     1      -9.039   2.303 124.446  0.00  0.00    +0.000 A 
BRANCH   7  10
ATOM     10  C   UNL     1      -7.621   3.597 121.388  0.00  0.00    +0.000 A 
ATOM     11  C   UNL     1      -6.393   3.950 120.811  0.00  0.00    +0.000 A 
ATOM     12  C   UNL     1      -6.345   4.475 119.520  0.00  0.00    +0.000 A 
ATOM     13  C   UNL     1      -7.516   4.585 118.770  0.00  0.00    +0.000 A 
ATOM     14  C   UNL     1      -8.740   4.211 119.321  0.00  0.00    +0.000 A 
ATOM     15  C   UNL     1      -8.791   3.729 120.625  0.00  0.00    +0.000 A 
ENDBRANCH   7  10
ENDBRANCH   2   4
BRANCH   3  16
ATOM     16  C   UNL     1      -8.064  -0.206 128.361  0.00  0.00    +0.000 C 
BRANCH  16  17
ATOM     17  C   UNL     1      -7.215  -1.361 128.782  0.00  0.00    +0.000 A 
ATOM     18  C   UNL     1      -5.821  -1.218 128.852  0.00  0.00    +0.000 A 
ATOM     19  C   UNL     1      -5.039  -2.275 129.297  0.00  0.00    +0.000 A 
ATOM     20  C   UNL     1      -5.651  -3.455 129.719  0.00  0.00    +0.000 A 
ATOM     21  C   UNL     1      -7.039  -3.593 129.670  0.00  0.00    +0.000 A 
ATOM     22  C   UNL     1      -7.823  -2.550 129.197  0.00  0.00    +0.000 A 
ENDBRANCH  16  17
ENDBRANCH   3  16
BRANCH   3  23
ATOM     23  C   UNL     1      -7.600  -0.767 125.970  0.00  0.00    +0.000 C 
BRANCH  23  24
ATOM     24  C   UNL     1      -8.752  -1.516 125.280  0.00  0.00    +0.000 C 
ATOM     25  C   UNL     1      -8.605  -3.022 125.347  0.00  0.00    +0.000 C 
ATOM     26  C   UNL     1      -9.295  -3.460 124.082  0.00  0.00    +0.000 C 
ATOM     27  C   UNL     1      -8.954  -2.352 123.109  0.00  0.00    +0.000 C 
ATOM     28  O   UNL     1      -8.789  -1.159 123.884  0.00  0.00    +0.000 OA
ENDBRANCH  23  24
ENDBRANCH   3  23
TORSDOF 6
ENDMDL
MODEL 3
REMARK VINA RESULT:      -8.7      8.210     10.610
REMARK  Name = CHEMBL520595
REMARK  6 active torsions:
REMARK  status: ('A' for Active; 'I' for Inactive)
REMARK    1  A    between atoms: C_2  and  C_3
REMARK    2  A    between atoms: C_6  and  C_7
REMARK    3  A    between atoms: N_15  and  C_16
REMARK    4  A    between atoms: N_15  and  C_23
REMARK    5  A    between atoms: C_16  and  C_17
REMARK    6  A    between atoms: C_23  and  C_24
REMARK                            x       y       z     vdW  Elec       q    Type
REMARK                         _______ _______ _______ _____ _____    ______ ____
ROOT
ATOM      1  O   UNL     1      -9.203   5.510 128.695  0.00  0.00    +0.000 OA
ATOM      2  C   UNL     1      -9.121   5.563 129.925  0.00  0.00    +0.000 C 
ATOM      3  N   UNL     1     -10.186   5.546 130.838  0.00  0.00    +0.000 N 
ENDROOT
BRANCH   2   4
ATOM      4  C   UNL     1      -7.734   5.685 130.373  0.00  0.00    +0.000 A 
ATOM      5  C   UNL     1      -7.279   6.916 130.850  0.00  0.00    +0.000 A 
ATOM      6  C   UNL     1      -5.944   7.049 131.198  0.00  0.00    +0.000 A 
ATOM      7  C   UNL     1      -5.105   5.948 131.053  0.00  0.00    +0.000 A 
ATOM      8  N   UNL     1      -5.519   4.764 130.539  0.00  0.00    +0.000 NA
ATOM      9  C   UNL     1      -6.815   4.673 130.180  0.00  0.00    +0.000 A 
BRANCH   7  10
ATOM     10  C   UNL     1      -3.716   5.984 131.492  0.00  0.00    +0.000 A 
ATOM     11  C   UNL     1      -2.994   4.801 131.701  0.00  0.00    +0.000 A 
ATOM     12  C   UNL     1      -1.699   4.847 132.217  0.00  0.00    +0.000 A 
ATOM     13  C   UNL     1      -1.092   6.078 132.461  0.00  0.00    +0.000 A 
ATOM     14  C   UNL     1      -1.788   7.263 132.231  0.00  0.00    +0.000 A 
ATOM     15  C   UNL     1      -3.095   7.214 131.758  0.00  0.00    +0.000 A 
ENDBRANCH   7  10
ENDBRANCH   2   4
BRANCH   3  16
ATOM     16  C   UNL     1     -11.580   5.481 130.378  0.00  0.00    +0.000 C 
BRANCH  16  17
ATOM     17  C   UNL     1     -12.151   6.677 129.688  0.00  0.00    +0.000 A 
ATOM     18  C   UNL     1     -12.866   6.521 128.491  0.00  0.00    +0.000 A 
ATOM     19  C   UNL     1     -13.442   7.627 127.881  0.00  0.00    +0.000 A 
ATOM     20  C   UNL     1     -13.349   8.877 128.491  0.00  0.00    +0.000 A 
ATOM     21  C   UNL     1     -12.656   9.032 129.693  0.00  0.00    +0.000 A 
ATOM     22  C   UNL     1     -12.051   7.935 130.290  0.00  0.00    +0.000 A 
ENDBRANCH  16  17
ENDBRANCH   3  16
BRANCH   3  23
ATOM     23  C   UNL     1      -9.993   5.674 132.299  0.00  0.00    +0.000 C 
BRANCH  23  24
ATOM     24  C   UNL     1      -9.639   4.399 133.082  0.00  0.00    +0.000 C 
ATOM     25  C   UNL     1      -8.268   4.458 133.722  0.00  0.00    +0.000 C 
ATOM     26  C   UNL     1      -7.863   3.007 133.726  0.00  0.00    +0.000 C 
ATOM     27  C   UNL     1      -8.468   2.483 132.443  0.00  0.00    +0.000 C 
ATOM     28  O   UNL     1      -9.637   3.270 132.187  0.00  0.00    +0.000 OA
ENDBRANCH  23  24
ENDBRANCH   3  23
TORSDOF 6
ENDMDL
MODEL 4
REMARK VINA RESULT:      -8.6      4.798      7.132
REMARK  Name = CHEMBL520595
REMARK  6 active torsions:
REMARK  status: ('A' for Active; 'I' for Inactive)
REMARK    1  A    between atoms: C_2  and  C_3
REMARK    2  A    between atoms: C_6  and  C_7
REMARK    3  A    between atoms: N_15  and  C_16
REMARK    4  A    between atoms: N_15  and  C_23
REMARK    5  A    between atoms: C_16  and  C_17
REMARK    6  A    between atoms: C_23  and  C_24
REMARK                            x       y       z     vdW  Elec       q    Type
REMARK                         _______ _______ _______ _____ _____    ______ ____
ROOT
ATOM      1  O   UNL     1      -7.155   1.625 130.229  0.00  0.00    +0.000 OA
ATOM      2  C   UNL     1      -7.915   1.817 129.276  0.00  0.00    +0.000 C 
ATOM      3  N   UNL     1      -8.016   1.036 128.115  0.00  0.00    +0.000 N 
ENDROOT
BRANCH   2   4
ATOM      4  C   UNL     1      -8.728   3.018 129.460  0.00  0.00    +0.000 A 
ATOM      5  C   UNL     1      -8.196   4.260 129.108  0.00  0.00    +0.000 A 
ATOM      6  C   UNL     1      -8.937   5.404 129.358  0.00  0.00    +0.000 A 
ATOM      7  C   UNL     1     -10.185   5.271 129.959  0.00  0.00    +0.000 A 
ATOM      8  N   UNL     1     -10.691   4.078 130.357  0.00  0.00    +0.000 NA
ATOM      9  C   UNL     1      -9.936   2.986 130.129  0.00  0.00    +0.000 A 
BRANCH   7  10
ATOM     10  C   UNL     1     -11.062   6.416 130.160  0.00  0.00    +0.000 A 
ATOM     11  C   UNL     1     -11.936   6.474 131.254  0.00  0.00    +0.000 A 
ATOM     12  C   UNL     1     -12.840   7.529 131.380  0.00  0.00    +0.000 A 
ATOM     13  C   UNL     1     -12.829   8.569 130.451  0.00  0.00    +0.000 A 
ATOM     14  C   UNL     1     -11.946   8.538 129.374  0.00  0.00    +0.000 A 
ATOM     15  C   UNL     1     -11.075   7.463 129.226  0.00  0.00    +0.000 A 
ENDBRANCH   7  10
ENDBRANCH   2   4
BRANCH   3  16
ATOM     16  C   UNL     1      -7.156  -0.138 127.912  0.00  0.00    +0.000 C 
BRANCH  16  17
ATOM     17  C   UNL     1      -7.790  -1.490 127.940  0.00  0.00    +0.000 A 
ATOM     18  C   UNL     1      -8.191  -2.102 126.743  0.00  0.00    +0.000 A 
ATOM     19  C   UNL     1      -8.729  -3.381 126.766  0.00  0.00    +0.000 A 
ATOM     20  C   UNL     1      -8.820  -4.068 127.976  0.00  0.00    +0.000 A 
ATOM     21  C   UNL     1      -8.403  -3.470 129.167  0.00  0.00    +0.000 A 
ATOM     22  C   UNL     1      -7.893  -2.179 129.152  0.00  0.00    +0.000 A 
ENDBRANCH  16  17
ENDBRANCH   3  16
BRANCH   3  23
ATOM     23  C   UNL     1      -8.919   1.377 126.993  0.00  0.00    +0.000 C 
BRANCH  23  24
ATOM     24  C   UNL     1      -8.276   1.645 125.623  0.00  0.00    +0.000 C 
ATOM     25  C   UNL     1      -8.134   3.121 125.313  0.00  0.00    +0.000 C 
ATOM     26  C   UNL     1      -8.238   3.136 123.811  0.00  0.00    +0.000 C 
ATOM     27  C   UNL     1      -9.235   2.033 123.529  0.00  0.00    +0.000 C 
ATOM     28  O   UNL     1      -9.099   1.076 124.586  0.00  0.00    +0.000 OA
ENDBRANCH  23  24
ENDBRANCH   3  23
TORSDOF 6
ENDMDL
MODEL 5
REMARK VINA RESULT:      -8.6      6.598     10.516
REMARK  Name = CHEMBL520595
REMARK  6 active torsions:
REMARK  status: ('A' for Active; 'I' for Inactive)
REMARK    1  A    between atoms: C_2  and  C_3
REMARK    2  A    between atoms: C_6  and  C_7
REMARK    3  A    between atoms: N_15  and  C_16
REMARK    4  A    between atoms: N_15  and  C_23
REMARK    5  A    between atoms: C_16  and  C_17
REMARK    6  A    between atoms: C_23  and  C_24
REMARK                            x       y       z     vdW  Elec       q    Type
REMARK                         _______ _______ _______ _____ _____    ______ ____
ROOT
ATOM      1  O   UNL     1     -11.558   4.154 130.093  0.00  0.00    +0.000 OA
ATOM      2  C   UNL     1     -10.569   4.096 130.829  0.00  0.00    +0.000 C 
ATOM      3  N   UNL     1     -10.079   5.118 131.655  0.00  0.00    +0.000 N 
ENDROOT
BRANCH   2   4
ATOM      4  C   UNL     1      -9.894   2.803 130.734  0.00  0.00    +0.000 A 
ATOM      5  C   UNL     1     -10.017   1.892 131.786  0.00  0.00    +0.000 A 
ATOM      6  C   UNL     1      -9.313   0.700 131.728  0.00  0.00    +0.000 A 
ATOM      7  C   UNL     1      -8.501   0.459 130.624  0.00  0.00    +0.000 A 
ATOM      8  N   UNL     1      -8.327   1.356 129.622  0.00  0.00    +0.000 NA
ATOM      9  C   UNL     1      -9.001   2.519 129.720  0.00  0.00    +0.000 A 
BRANCH   7  10
ATOM     10  C   UNL     1      -7.810  -0.811 130.447  0.00  0.00    +0.000 A 
ATOM     11  C   UNL     1      -7.529  -1.309 129.167  0.00  0.00    +0.000 A 
ATOM     12  C   UNL     1      -6.958  -2.572 129.012  0.00  0.00    +0.000 A 
ATOM     13  C   UNL     1      -6.599  -3.316 130.135  0.00  0.00    +0.000 A 
ATOM     14  C   UNL     1      -6.848  -2.821 131.413  0.00  0.00    +0.000 A 
ATOM     15  C   UNL     1      -7.458  -1.581 131.567  0.00  0.00    +0.000 A 
ENDBRANCH   7  10
ENDBRANCH   2   4
BRANCH   3  16
ATOM     16  C   UNL     1     -10.728   6.435 131.703  0.00  0.00    +0.000 C 
BRANCH  16  17
ATOM     17  C   UNL     1     -11.086   7.091 130.410  0.00  0.00    +0.000 A 
ATOM     18  C   UNL     1     -12.428   7.369 130.111  0.00  0.00    +0.000 A 
ATOM     19  C   UNL     1     -12.754   8.028 128.934  0.00  0.00    +0.000 A 
ATOM     20  C   UNL     1     -11.737   8.455 128.080  0.00  0.00    +0.000 A 
ATOM     21  C   UNL     1     -10.399   8.199 128.383  0.00  0.00    +0.000 A 
ATOM     22  C   UNL     1     -10.071   7.512 129.545  0.00  0.00    +0.000 A 
ENDBRANCH  16  17
ENDBRANCH   3  16
BRANCH   3  23
ATOM     23  C   UNL     1      -8.846   4.977 132.462  0.00  0.00    +0.000 C 
BRANCH  23  24
ATOM     24  C   UNL     1      -7.791   6.089 132.345  0.00  0.00    +0.000 C 
ATOM     25  C   UNL     1      -7.127   6.137 130.985  0.00  0.00    +0.000 C 
ATOM     26  C   UNL     1      -5.760   6.670 131.324  0.00  0.00    +0.000 C 
ATOM     27  C   UNL     1      -5.480   6.052 132.676  0.00  0.00    +0.000 C 
ATOM     28  O   UNL     1      -6.748   5.867 133.315  0.00  0.00    +0.000 OA
ENDBRANCH  23  24
ENDBRANCH   3  23
TORSDOF 6
ENDMDL
MODEL 6
REMARK VINA RESULT:      -8.4      2.623      8.644
REMARK  Name = CHEMBL520595
REMARK  6 active torsions:
REMARK  status: ('A' for Active; 'I' for Inactive)
REMARK    1  A    between atoms: C_2  and  C_3
REMARK    2  A    between atoms: C_6  and  C_7
REMARK    3  A    between atoms: N_15  and  C_16
REMARK    4  A    between atoms: N_15  and  C_23
REMARK    5  A    between atoms: C_16  and  C_17
REMARK    6  A    between atoms: C_23  and  C_24
REMARK                            x       y       z     vdW  Elec       q    Type
REMARK                         _______ _______ _______ _____ _____    ______ ____
ROOT
ATOM      1  O   UNL     1      -7.848   1.085 124.254  0.00  0.00    +0.000 OA
ATOM      2  C   UNL     1      -7.161   1.524 125.181  0.00  0.00    +0.000 C 
ATOM      3  N   UNL     1      -6.763   2.856 125.371  0.00  0.00    +0.000 N 
ENDROOT
BRANCH   2   4
ATOM      4  C   UNL     1      -6.748   0.466 126.101  0.00  0.00    +0.000 A 
ATOM      5  C   UNL     1      -5.692  -0.375 125.742  0.00  0.00    +0.000 A 
ATOM      6  C   UNL     1      -5.356  -1.427 126.580  0.00  0.00    +0.000 A 
ATOM      7  C   UNL     1      -6.090  -1.609 127.748  0.00  0.00    +0.000 A 
ATOM      8  N   UNL     1      -7.153  -0.836 128.082  0.00  0.00    +0.000 NA
ATOM      9  C   UNL     1      -7.476   0.160 127.234  0.00  0.00    +0.000 A 
BRANCH   7  10
ATOM     10  C   UNL     1      -5.732  -2.629 128.724  0.00  0.00    +0.000 A 
ATOM     11  C   UNL     1      -6.710  -3.251 129.512  0.00  0.00    +0.000 A 
ATOM     12  C   UNL     1      -6.342  -4.151 130.511  0.00  0.00    +0.000 A 
ATOM     13  C   UNL     1      -5.000  -4.490 130.683  0.00  0.00    +0.000 A 
ATOM     14  C   UNL     1      -4.020  -3.900 129.888  0.00  0.00    +0.000 A 
ATOM     15  C   UNL     1      -4.384  -2.969 128.921  0.00  0.00    +0.000 A 
ENDBRANCH   7  10
ENDBRANCH   2   4
BRANCH   3  16
ATOM     16  C   UNL     1      -7.135   3.904 124.411  0.00  0.00    +0.000 C 
BRANCH  16  17
ATOM     17  C   UNL     1      -6.436   3.931 123.091  0.00  0.00    +0.000 A 
ATOM     18  C   UNL     1      -7.081   3.440 121.946  0.00  0.00    +0.000 A 
ATOM     19  C   UNL     1      -6.452   3.515 120.711  0.00  0.00    +0.000 A 
ATOM     20  C   UNL     1      -5.202   4.127 120.611  0.00  0.00    +0.000 A 
ATOM     21  C   UNL     1      -4.566   4.634 121.745  0.00  0.00    +0.000 A 
ATOM     22  C   UNL     1      -5.179   4.533 122.987  0.00  0.00    +0.000 A 
ENDBRANCH  16  17
ENDBRANCH   3  16
BRANCH   3  23
ATOM     23  C   UNL     1      -5.887   3.281 126.485  0.00  0.00    +0.000 C 
BRANCH  23  24
ATOM     24  C   UNL     1      -4.417   3.584 126.154  0.00  0.00    +0.000 C 
ATOM     25  C   UNL     1      -3.476   2.465 126.552  0.00  0.00    +0.000 C 
ATOM     26  C   UNL     1      -2.206   3.217 126.852  0.00  0.00    +0.000 C 
ATOM     27  C   UNL     1      -2.712   4.510 127.453  0.00  0.00    +0.000 C 
ATOM     28  O   UNL     1      -3.995   4.761 126.870  0.00  0.00    +0.000 OA
ENDBRANCH  23  24
ENDBRANCH   3  23
TORSDOF 6
ENDMDL
MODEL 7
REMARK VINA RESULT:      -8.3      3.799      6.199
REMARK  Name = CHEMBL520595
REMARK  6 active torsions:
REMARK  status: ('A' for Active; 'I' for Inactive)
REMARK    1  A    between atoms: C_2  and  C_3
REMARK    2  A    between atoms: C_6  and  C_7
REMARK    3  A    between atoms: N_15  and  C_16
REMARK    4  A    between atoms: N_15  and  C_23
REMARK    5  A    between atoms: C_16  and  C_17
REMARK    6  A    between atoms: C_23  and  C_24
REMARK                            x       y       z     vdW  Elec       q    Type
REMARK                         _______ _______ _______ _____ _____    ______ ____
ROOT
ATOM      1  O   UNL     1      -9.039   1.767 127.079  0.00  0.00    +0.000 OA
ATOM      2  C   UNL     1      -8.117   1.943 126.277  0.00  0.00    +0.000 C 
ATOM      3  N   UNL     1      -8.074   1.511 124.943  0.00  0.00    +0.000 N 
ENDROOT
BRANCH   2   4
ATOM      4  C   UNL     1      -6.996   2.658 126.884  0.00  0.00    +0.000 A 
ATOM      5  C   UNL     1      -5.953   1.927 127.457  0.00  0.00    +0.000 A 
ATOM      6  C   UNL     1      -4.931   2.606 128.102  0.00  0.00    +0.000 A 
ATOM      7  C   UNL     1      -4.988   3.995 128.160  0.00  0.00    +0.000 A 
ATOM      8  N   UNL     1      -6.022   4.716 127.659  0.00  0.00    +0.000 NA
ATOM      9  C   UNL     1      -7.016   4.027 127.064  0.00  0.00    +0.000 A 
BRANCH   7  10
ATOM     10  C   UNL     1      -3.903   4.781 128.732  0.00  0.00    +0.000 A 
ATOM     11  C   UNL     1      -3.523   4.621 130.072  0.00  0.00    +0.000 A 
ATOM     12  C   UNL     1      -2.552   5.449 130.633  0.00  0.00    +0.000 A 
ATOM     13  C   UNL     1      -1.902   6.395 129.841  0.00  0.00    +0.000 A 
ATOM     14  C   UNL     1      -2.250   6.545 128.500  0.00  0.00    +0.000 A 
ATOM     15  C   UNL     1      -3.251   5.749 127.953  0.00  0.00    +0.000 A 
ENDBRANCH   7  10
ENDBRANCH   2   4
BRANCH   3  16
ATOM     16  C   UNL     1      -9.181   0.743 124.356  0.00  0.00    +0.000 C 
BRANCH  16  17
ATOM     17  C   UNL     1      -9.090  -0.747 124.370  0.00  0.00    +0.000 A 
ATOM     18  C   UNL     1      -8.989  -1.456 123.163  0.00  0.00    +0.000 A 
ATOM     19  C   UNL     1      -8.849  -2.836 123.180  0.00  0.00    +0.000 A 
ATOM     20  C   UNL     1      -8.758  -3.504 124.401  0.00  0.00    +0.000 A 
ATOM     21  C   UNL     1      -8.838  -2.801 125.604  0.00  0.00    +0.000 A 
ATOM     22  C   UNL     1      -9.009  -1.423 125.591  0.00  0.00    +0.000 A 
ENDBRANCH  16  17
ENDBRANCH   3  16
BRANCH   3  23
ATOM     23  C   UNL     1      -6.897   1.718 124.070  0.00  0.00    +0.000 C 
BRANCH  23  24
ATOM     24  C   UNL     1      -6.876   2.983 123.197  0.00  0.00    +0.000 C 
ATOM     25  C   UNL     1      -6.443   2.713 121.771  0.00  0.00    +0.000 C 
ATOM     26  C   UNL     1      -5.792   4.016 121.390  0.00  0.00    +0.000 C 
ATOM     27  C   UNL     1      -5.145   4.463 122.682  0.00  0.00    +0.000 C 
ATOM     28  O   UNL     1      -5.942   3.932 123.747  0.00  0.00    +0.000 OA
ENDBRANCH  23  24
ENDBRANCH   3  23
TORSDOF 6
ENDMDL
MODEL 8
REMARK VINA RESULT:      -8.3      4.661      7.949
REMARK  Name = CHEMBL520595
REMARK  6 active torsions:
REMARK  status: ('A' for Active; 'I' for Inactive)
REMARK    1  A    between atoms: C_2  and  C_3
REMARK    2  A    between atoms: C_6  and  C_7
REMARK    3  A    between atoms: N_15  and  C_16
REMARK    4  A    between atoms: N_15  and  C_23
REMARK    5  A    between atoms: C_16  and  C_17
REMARK    6  A    between atoms: C_23  and  C_24
REMARK                            x       y       z     vdW  Elec       q    Type
REMARK                         _______ _______ _______ _____ _____    ______ ____
ROOT
ATOM      1  O   UNL     1      -6.006  -4.587 130.787  0.00  0.00    +0.000 OA
ATOM      2  C   UNL     1      -6.270  -3.390 130.647  0.00  0.00    +0.000 C 
ATOM      3  N   UNL     1      -6.114  -2.380 131.607  0.00  0.00    +0.000 N 
ENDROOT
BRANCH   2   4
ATOM      4  C   UNL     1      -6.822  -3.105 129.323  0.00  0.00    +0.000 A 
ATOM      5  C   UNL     1      -8.120  -3.525 129.023  0.00  0.00    +0.000 A 
ATOM      6  C   UNL     1      -8.611  -3.324 127.742  0.00  0.00    +0.000 A 
ATOM      7  C   UNL     1      -7.786  -2.717 126.800  0.00  0.00    +0.000 A 
ATOM      8  N   UNL     1      -6.506  -2.356 127.060  0.00  0.00    +0.000 NA
ATOM      9  C   UNL     1      -6.045  -2.591 128.305  0.00  0.00    +0.000 A 
BRANCH   7  10
ATOM     10  C   UNL     1      -8.267  -2.384 125.466  0.00  0.00    +0.000 A 
ATOM     11  C   UNL     1      -8.967  -3.322 124.695  0.00  0.00    +0.000 A 
ATOM     12  C   UNL     1      -9.334  -3.023 123.383  0.00  0.00    +0.000 A 
ATOM     13  C   UNL     1      -9.065  -1.760 122.856  0.00  0.00    +0.000 A 
ATOM     14  C   UNL     1      -8.395  -0.809 123.621  0.00  0.00    +0.000 A 
ATOM     15  C   UNL     1      -7.991  -1.123 124.915  0.00  0.00    +0.000 A 
ENDBRANCH   7  10
ENDBRANCH   2   4
BRANCH   3  16
ATOM     16  C   UNL     1      -5.612  -2.683 132.955  0.00  0.00    +0.000 C 
BRANCH  16  17
ATOM     17  C   UNL     1      -6.360  -3.679 133.778  0.00  0.00    +0.000 A 
ATOM     18  C   UNL     1      -5.707  -4.823 134.260  0.00  0.00    +0.000 A 
ATOM     19  C   UNL     1      -6.389  -5.720 135.070  0.00  0.00    +0.000 A 
ATOM     20  C   UNL     1      -7.706  -5.449 135.441  0.00  0.00    +0.000 A 
ATOM     21  C   UNL     1      -8.353  -4.301 134.980  0.00  0.00    +0.000 A 
ATOM     22  C   UNL     1      -7.684  -3.417 134.144  0.00  0.00    +0.000 A 
ENDBRANCH  16  17
ENDBRANCH   3  16
BRANCH   3  23
ATOM     23  C   UNL     1      -6.514  -0.975 131.368  0.00  0.00    +0.000 C 
BRANCH  23  24
ATOM     24  C   UNL     1      -7.762  -0.459 132.101  0.00  0.00    +0.000 C 
ATOM     25  C   UNL     1      -8.842   0.033 131.161  0.00  0.00    +0.000 C 
ATOM     26  C   UNL     1      -9.515   1.098 131.987  0.00  0.00    +0.000 C 
ATOM     27  C   UNL     1      -8.367   1.695 132.770  0.00  0.00    +0.000 C 
ATOM     28  O   UNL     1      -7.400   0.653 132.944  0.00  0.00    +0.000 OA
ENDBRANCH  23  24
ENDBRANCH   3  23
TORSDOF 6
ENDMDL
MODEL 9
REMARK VINA RESULT:      -8.1      5.549     10.189
REMARK  Name = CHEMBL520595
REMARK  6 active torsions:
REMARK  status: ('A' for Active; 'I' for Inactive)
REMARK    1  A    between atoms: C_2  and  C_3
REMARK    2  A    between atoms: C_6  and  C_7
REMARK    3  A    between atoms: N_15  and  C_16
REMARK    4  A    between atoms: N_15  and  C_23
REMARK    5  A    between atoms: C_16  and  C_17
REMARK    6  A    between atoms: C_23  and  C_24
REMARK                            x       y       z     vdW  Elec       q    Type
REMARK                         _______ _______ _______ _____ _____    ______ ____
ROOT
ATOM      1  O   UNL     1      -9.461   3.550 133.615  0.00  0.00    +0.000 OA
ATOM      2  C   UNL     1      -8.737   3.494 132.617  0.00  0.00    +0.000 C 
ATOM      3  N   UNL     1      -8.321   4.573 131.823  0.00  0.00    +0.000 N 
ENDROOT
BRANCH   2   4
ATOM      4  C   UNL     1      -8.354   2.120 132.299  0.00  0.00    +0.000 A 
ATOM      5  C   UNL     1      -9.329   1.229 131.845  0.00  0.00    +0.000 A 
ATOM      6  C   UNL     1      -8.979  -0.093 131.620  0.00  0.00    +0.000 A 
ATOM      7  C   UNL     1      -7.666  -0.485 131.863  0.00  0.00    +0.000 A 
ATOM      8  N   UNL     1      -6.722   0.354 132.357  0.00  0.00    +0.000 NA
ATOM      9  C   UNL     1      -7.098   1.626 132.595  0.00  0.00    +0.000 A 
BRANCH   7  10
ATOM     10  C   UNL     1      -7.201  -1.831 131.555  0.00  0.00    +0.000 A 
ATOM     11  C   UNL     1      -6.540  -2.606 132.519  0.00  0.00    +0.000 A 
ATOM     12  C   UNL     1      -6.013  -3.851 132.181  0.00  0.00    +0.000 A 
ATOM     13  C   UNL     1      -6.204  -4.362 130.897  0.00  0.00    +0.000 A 
ATOM     14  C   UNL     1      -6.883  -3.615 129.938  0.00  0.00    +0.000 A 
ATOM     15  C   UNL     1      -7.370  -2.353 130.264  0.00  0.00    +0.000 A 
ENDBRANCH   7  10
ENDBRANCH   2   4
BRANCH   3  16
ATOM     16  C   UNL     1      -8.757   5.945 132.116  0.00  0.00    +0.000 C 
BRANCH  16  17
ATOM     17  C   UNL     1      -9.947   6.477 131.387  0.00  0.00    +0.000 A 
ATOM     18  C   UNL     1     -11.228   6.346 131.945  0.00  0.00    +0.000 A 
ATOM     19  C   UNL     1     -12.326   6.890 131.293  0.00  0.00    +0.000 A 
ATOM     20  C   UNL     1     -12.139   7.608 130.111  0.00  0.00    +0.000 A 
ATOM     21  C   UNL     1     -10.864   7.757 129.564  0.00  0.00    +0.000 A 
ATOM     22  C   UNL     1      -9.767   7.189 130.197  0.00  0.00    +0.000 A 
ENDBRANCH  16  17
ENDBRANCH   3  16
BRANCH   3  23
ATOM     23  C   UNL     1      -7.497   4.403 130.605  0.00  0.00    +0.000 C 
BRANCH  23  24
ATOM     24  C   UNL     1      -8.204   3.900 129.336  0.00  0.00    +0.000 C 
ATOM     25  C   UNL     1      -7.681   2.563 128.856  0.00  0.00    +0.000 C 
ATOM     26  C   UNL     1      -7.901   2.657 127.369  0.00  0.00    +0.000 C 
ATOM     27  C   UNL     1      -7.643   4.119 127.080  0.00  0.00    +0.000 C 
ATOM     28  O   UNL     1      -7.996   4.842 128.265  0.00  0.00    +0.000 OA
ENDBRANCH  23  24
ENDBRANCH   3  23
TORSDOF 6
ENDMDL
