MODEL 1
REMARK VINA RESULT:      -7.5      0.000      0.000
REMARK  Name = CHEMBL469005
REMARK  10 active torsions:
REMARK  status: ('A' for Active; 'I' for Inactive)
REMARK    1  A    between atoms: C_1  and  O_2
REMARK    2  A    between atoms: O_2  and  C_3
REMARK    3  A    between atoms: C_3  and  C_4
REMARK    4  A    between atoms: C_7  and  C_8
REMARK    5  A    between atoms: C_11  and  C_12
REMARK    6  A    between atoms: C_15  and  C_16
REMARK    7  A    between atoms: C_19  and  C_20
REMARK    8  A    between atoms: N_23  and  C_24
REMARK    9  A    between atoms: C_27  and  O_28
REMARK   10  A    between atoms: O_28  and  C_29
REMARK                            x       y       z     vdW  Elec       q    Type
REMARK                         _______ _______ _______ _____ _____    ______ ____
ROOT
ATOM      1  C   UNL     1      -9.044   4.949 129.961  0.00  0.00    +0.000 A 
ATOM      2  N   UNL     1      -9.141   5.711 128.885  0.00  0.00    +0.000 NA
ATOM      3  N   UNL     1      -8.607   5.016 127.806  0.00  0.00    +0.000 NA
ATOM      4  C   UNL     1      -8.177   3.841 128.231  0.00  0.00    +0.000 A 
ATOM      5  N   UNL     1      -8.397   3.782 129.594  0.00  0.00    +0.000 N 
ENDROOT
BRANCH   4   6
ATOM      6  C   UNL     1      -7.716   2.688 127.449  0.00  0.00    +0.000 A 
ATOM      7  C   UNL     1      -8.587   1.650 127.110  0.00  0.00    +0.000 A 
ATOM      8  N   UNL     1      -8.203   0.510 126.473  0.00  0.00    +0.000 NA
ATOM      9  C   UNL     1      -6.886   0.424 126.162  0.00  0.00    +0.000 A 
ATOM     10  C   UNL     1      -6.020   1.463 126.513  0.00  0.00    +0.000 A 
ATOM     11  N   UNL     1      -6.398   2.599 127.171  0.00  0.00    +0.000 NA
BRANCH   9  12
ATOM     12  C   UNL     1      -6.426  -0.832 125.532  0.00  0.00    +0.000 A 
ATOM     13  C   UNL     1      -5.873  -1.868 126.310  0.00  0.00    +0.000 A 
ATOM     14  C   UNL     1      -5.262  -2.983 125.715  0.00  0.00    +0.000 A 
ATOM     15  C   UNL     1      -5.318  -3.159 124.332  0.00  0.00    +0.000 A 
ATOM     16  C   UNL     1      -6.013  -2.225 123.559  0.00  0.00    +0.000 A 
ATOM     17  C   UNL     1      -6.493  -1.030 124.132  0.00  0.00    +0.000 A 
ATOM     18  C   UNL     1      -6.999   0.064 123.226  0.00  0.00    +0.000 C 
BRANCH  15  19
ATOM     19  C   UNL     1      -4.630  -4.254 123.713  0.00  0.00    +0.000 C 
ATOM     20  N   UNL     1      -4.102  -5.160 123.204  0.00  0.00    +0.000 NA
ENDBRANCH  15  19
ENDBRANCH   9  12
ENDBRANCH   4   6
BRANCH   5  21
ATOM     21  C   UNL     1      -8.097   2.710 130.438  0.00  0.00    +0.000 A 
ATOM     22  C   UNL     1      -9.099   1.803 130.746  0.00  0.00    +0.000 A 
ATOM     23  C   UNL     1      -8.810   0.781 131.632  0.00  0.00    +0.000 A 
ATOM     24  C   UNL     1      -7.587   0.782 132.285  0.00  0.00    +0.000 A 
ATOM     25  N   UNL     1      -6.581   1.620 131.931  0.00  0.00    +0.000 NA
ATOM     26  C   UNL     1      -6.829   2.529 130.960  0.00  0.00    +0.000 A 
BRANCH  24  27
ATOM     27  O   UNL     1      -7.295  -0.031 133.351  0.00  0.00    +0.000 OA
ATOM     28  C   UNL     1      -7.139  -1.419 133.062  0.00  0.00    +0.000 C 
ENDBRANCH  24  27
ENDBRANCH   5  21
BRANCH   1  29
ATOM     29  C   UNL     1      -9.374   5.295 131.392  0.00  0.00    +0.000 C 
BRANCH  29  31
ATOM     30  C   UNL     1     -11.444   6.413 131.657  0.00  0.00    +0.000 C 
ATOM     31  O   UNL     1     -10.039   6.566 131.437  0.00  0.00    +0.000 OA
ENDBRANCH  29  31
ENDBRANCH   1  29
TORSDOF 7
ENDMDL
MODEL 2
REMARK VINA RESULT:      -7.4      4.047      7.658
REMARK  Name = CHEMBL469005
REMARK  10 active torsions:
REMARK  status: ('A' for Active; 'I' for Inactive)
REMARK    1  A    between atoms: C_1  and  O_2
REMARK    2  A    between atoms: O_2  and  C_3
REMARK    3  A    between atoms: C_3  and  C_4
REMARK    4  A    between atoms: C_7  and  C_8
REMARK    5  A    between atoms: C_11  and  C_12
REMARK    6  A    between atoms: C_15  and  C_16
REMARK    7  A    between atoms: C_19  and  C_20
REMARK    8  A    between atoms: N_23  and  C_24
REMARK    9  A    between atoms: C_27  and  O_28
REMARK   10  A    between atoms: O_28  and  C_29
REMARK                            x       y       z     vdW  Elec       q    Type
REMARK                         _______ _______ _______ _____ _____    ______ ____
ROOT
ATOM      1  C   UNL     1      -6.217   3.523 122.454  0.00  0.00    +0.000 A 
ATOM      2  N   UNL     1      -5.596   4.536 123.035  0.00  0.00    +0.000 NA
ATOM      3  N   UNL     1      -5.769   4.426 124.410  0.00  0.00    +0.000 NA
ATOM      4  C   UNL     1      -6.504   3.355 124.659  0.00  0.00    +0.000 A 
ATOM      5  N   UNL     1      -6.840   2.787 123.445  0.00  0.00    +0.000 N 
ENDROOT
BRANCH   4   6
ATOM      6  C   UNL     1      -6.794   2.715 125.946  0.00  0.00    +0.000 A 
ATOM      7  C   UNL     1      -5.802   2.036 126.657  0.00  0.00    +0.000 A 
ATOM      8  N   UNL     1      -6.027   1.339 127.805  0.00  0.00    +0.000 NA
ATOM      9  C   UNL     1      -7.306   1.337 128.251  0.00  0.00    +0.000 A 
ATOM     10  C   UNL     1      -8.296   2.010 127.528  0.00  0.00    +0.000 A 
ATOM     11  N   UNL     1      -8.077   2.693 126.366  0.00  0.00    +0.000 NA
BRANCH   9  12
ATOM     12  C   UNL     1      -7.595   0.531 129.456  0.00  0.00    +0.000 A 
ATOM     13  C   UNL     1      -7.704   1.140 130.722  0.00  0.00    +0.000 A 
ATOM     14  C   UNL     1      -7.789   0.377 131.897  0.00  0.00    +0.000 A 
ATOM     15  C   UNL     1      -7.913  -1.011 131.824  0.00  0.00    +0.000 A 
ATOM     16  C   UNL     1      -7.978  -1.620 130.567  0.00  0.00    +0.000 A 
ATOM     17  C   UNL     1      -7.739  -0.876 129.394  0.00  0.00    +0.000 A 
ATOM     18  C   UNL     1      -7.558  -1.609 128.088  0.00  0.00    +0.000 C 
BRANCH  15  19
ATOM     19  C   UNL     1      -7.922  -1.800 133.020  0.00  0.00    +0.000 C 
ATOM     20  N   UNL     1      -7.933  -2.412 134.013  0.00  0.00    +0.000 NA
ENDBRANCH  15  19
ENDBRANCH   9  12
ENDBRANCH   4   6
BRANCH   5  21
ATOM     21  C   UNL     1      -7.603   1.632 123.253  0.00  0.00    +0.000 A 
ATOM     22  C   UNL     1      -8.962   1.762 123.015  0.00  0.00    +0.000 A 
ATOM     23  C   UNL     1      -9.720   0.612 122.889  0.00  0.00    +0.000 A 
ATOM     24  C   UNL     1      -9.128  -0.616 123.144  0.00  0.00    +0.000 A 
ATOM     25  N   UNL     1      -7.787  -0.751 123.301  0.00  0.00    +0.000 NA
ATOM     26  C   UNL     1      -7.033   0.372 123.283  0.00  0.00    +0.000 A 
BRANCH  24  27
ATOM     27  O   UNL     1      -9.833  -1.783 123.288  0.00  0.00    +0.000 OA
ATOM     28  C   UNL     1      -9.062  -2.982 123.353  0.00  0.00    +0.000 C 
ENDBRANCH  24  27
ENDBRANCH   5  21
BRANCH   1  29
ATOM     29  C   UNL     1      -6.419   3.263 120.981  0.00  0.00    +0.000 C 
BRANCH  29  31
ATOM     30  C   UNL     1      -7.275   4.443 119.114  0.00  0.00    +0.000 C 
ATOM     31  O   UNL     1      -7.478   4.098 120.488  0.00  0.00    +0.000 OA
ENDBRANCH  29  31
ENDBRANCH   1  29
TORSDOF 7
ENDMDL
MODEL 3
REMARK VINA RESULT:      -7.0      3.855      7.862
REMARK  Name = CHEMBL469005
REMARK  10 active torsions:
REMARK  status: ('A' for Active; 'I' for Inactive)
REMARK    1  A    between atoms: C_1  and  O_2
REMARK    2  A    between atoms: O_2  and  C_3
REMARK    3  A    between atoms: C_3  and  C_4
REMARK    4  A    between atoms: C_7  and  C_8
REMARK    5  A    between atoms: C_11  and  C_12
REMARK    6  A    between atoms: C_15  and  C_16
REMARK    7  A    between atoms: C_19  and  C_20
REMARK    8  A    between atoms: N_23  and  C_24
REMARK    9  A    between atoms: C_27  and  O_28
REMARK   10  A    between atoms: O_28  and  C_29
REMARK                            x       y       z     vdW  Elec       q    Type
REMARK                         _______ _______ _______ _____ _____    ______ ____
ROOT
ATOM      1  C   UNL     1      -8.937  -1.739 123.435  0.00  0.00    +0.000 A 
ATOM      2  N   UNL     1      -8.919  -3.049 123.254  0.00  0.00    +0.000 NA
ATOM      3  N   UNL     1      -8.431  -3.645 124.411  0.00  0.00    +0.000 NA
ATOM      4  C   UNL     1      -8.143  -2.697 125.286  0.00  0.00    +0.000 A 
ATOM      5  N   UNL     1      -8.409  -1.480 124.688  0.00  0.00    +0.000 N 
ENDROOT
BRANCH   4   6
ATOM      6  C   UNL     1      -7.786  -2.826 126.703  0.00  0.00    +0.000 A 
ATOM      7  C   UNL     1      -6.530  -2.434 127.172  0.00  0.00    +0.000 A 
ATOM      8  N   UNL     1      -6.102  -2.617 128.451  0.00  0.00    +0.000 NA
ATOM      9  C   UNL     1      -6.985  -3.214 129.288  0.00  0.00    +0.000 A 
ATOM     10  C   UNL     1      -8.236  -3.612 128.809  0.00  0.00    +0.000 A 
ATOM     11  N   UNL     1      -8.661  -3.448 127.521  0.00  0.00    +0.000 NA
BRANCH   9  12
ATOM     12  C   UNL     1      -6.523  -3.489 130.665  0.00  0.00    +0.000 A 
ATOM     13  C   UNL     1      -5.764  -4.640 130.954  0.00  0.00    +0.000 A 
ATOM     14  C   UNL     1      -5.478  -5.015 132.277  0.00  0.00    +0.000 A 
ATOM     15  C   UNL     1      -5.820  -4.172 133.334  0.00  0.00    +0.000 A 
ATOM     16  C   UNL     1      -6.424  -2.943 133.052  0.00  0.00    +0.000 A 
ATOM     17  C   UNL     1      -6.850  -2.633 131.744  0.00  0.00    +0.000 A 
ATOM     18  C   UNL     1      -7.725  -1.425 131.527  0.00  0.00    +0.000 C 
BRANCH  15  19
ATOM     19  C   UNL     1      -5.601  -4.584 134.689  0.00  0.00    +0.000 C 
ATOM     20  N   UNL     1      -5.459  -4.919 135.797  0.00  0.00    +0.000 NA
ENDBRANCH  15  19
ENDBRANCH   9  12
ENDBRANCH   4   6
BRANCH   5  21
ATOM     21  C   UNL     1      -8.252  -0.218 125.267  0.00  0.00    +0.000 A 
ATOM     22  C   UNL     1      -7.077   0.479 125.037  0.00  0.00    +0.000 A 
ATOM     23  C   UNL     1      -6.903   1.700 125.666  0.00  0.00    +0.000 A 
ATOM     24  C   UNL     1      -7.837   2.111 126.605  0.00  0.00    +0.000 A 
ATOM     25  N   UNL     1      -9.019   1.470 126.775  0.00  0.00    +0.000 NA
ATOM     26  C   UNL     1      -9.240   0.350 126.049  0.00  0.00    +0.000 A 
BRANCH  24  27
ATOM     27  O   UNL     1      -7.641   3.169 127.456  0.00  0.00    +0.000 OA
ATOM     28  C   UNL     1      -6.367   3.806 127.389  0.00  0.00    +0.000 C 
ENDBRANCH  24  27
ENDBRANCH   5  21
BRANCH   1  29
ATOM     29  C   UNL     1      -9.270  -0.656 122.439  0.00  0.00    +0.000 C 
BRANCH  29  31
ATOM     30  C   UNL     1     -10.605   1.249 122.883  0.00  0.00    +0.000 C 
ATOM     31  O   UNL     1     -10.597  -0.168 122.687  0.00  0.00    +0.000 OA
ENDBRANCH  29  31
ENDBRANCH   1  29
TORSDOF 7
ENDMDL
MODEL 4
REMARK VINA RESULT:      -7.0      4.102      7.467
REMARK  Name = CHEMBL469005
REMARK  10 active torsions:
REMARK  status: ('A' for Active; 'I' for Inactive)
REMARK    1  A    between atoms: C_1  and  O_2
REMARK    2  A    between atoms: O_2  and  C_3
REMARK    3  A    between atoms: C_3  and  C_4
REMARK    4  A    between atoms: C_7  and  C_8
REMARK    5  A    between atoms: C_11  and  C_12
REMARK    6  A    between atoms: C_15  and  C_16
REMARK    7  A    between atoms: C_19  and  C_20
REMARK    8  A    between atoms: N_23  and  C_24
REMARK    9  A    between atoms: C_27  and  O_28
REMARK   10  A    between atoms: O_28  and  C_29
REMARK                            x       y       z     vdW  Elec       q    Type
REMARK                         _______ _______ _______ _____ _____    ______ ____
ROOT
ATOM      1  C   UNL     1      -8.200   1.428 124.835  0.00  0.00    +0.000 A 
ATOM      2  N   UNL     1      -8.754   2.276 125.685  0.00  0.00    +0.000 NA
ATOM      3  N   UNL     1      -8.758   1.693 126.947  0.00  0.00    +0.000 NA
ATOM      4  C   UNL     1      -8.218   0.489 126.857  0.00  0.00    +0.000 A 
ATOM      5  N   UNL     1      -7.895   0.272 125.532  0.00  0.00    +0.000 N 
ENDROOT
BRANCH   4   6
ATOM      6  C   UNL     1      -7.827  -0.429 127.933  0.00  0.00    +0.000 A 
ATOM      7  C   UNL     1      -6.941  -0.031 128.937  0.00  0.00    +0.000 A 
ATOM      8  N   UNL     1      -6.463  -0.861 129.905  0.00  0.00    +0.000 NA
ATOM      9  C   UNL     1      -6.906  -2.140 129.855  0.00  0.00    +0.000 A 
ATOM     10  C   UNL     1      -7.785  -2.533 128.842  0.00  0.00    +0.000 A 
ATOM     11  N   UNL     1      -8.250  -1.709 127.858  0.00  0.00    +0.000 NA
BRANCH   9  12
ATOM     12  C   UNL     1      -6.350  -3.082 130.851  0.00  0.00    +0.000 A 
ATOM     13  C   UNL     1      -6.997  -3.291 132.084  0.00  0.00    +0.000 A 
ATOM     14  C   UNL     1      -6.391  -4.031 133.112  0.00  0.00    +0.000 A 
ATOM     15  C   UNL     1      -5.189  -4.700 132.880  0.00  0.00    +0.000 A 
ATOM     16  C   UNL     1      -4.618  -4.642 131.605  0.00  0.00    +0.000 A 
ATOM     17  C   UNL     1      -5.140  -3.779 130.621  0.00  0.00    +0.000 A 
ATOM     18  C   UNL     1      -4.349  -3.547 129.358  0.00  0.00    +0.000 C 
BRANCH  15  19
ATOM     19  C   UNL     1      -4.528  -5.392 133.947  0.00  0.00    +0.000 C 
ATOM     20  N   UNL     1      -3.993  -5.925 134.836  0.00  0.00    +0.000 NA
ENDBRANCH  15  19
ENDBRANCH   9  12
ENDBRANCH   4   6
BRANCH   5  21
ATOM     21  C   UNL     1      -7.294  -0.872 125.000  0.00  0.00    +0.000 A 
ATOM     22  C   UNL     1      -8.101  -1.853 124.447  0.00  0.00    +0.000 A 
ATOM     23  C   UNL     1      -7.504  -3.011 123.981  0.00  0.00    +0.000 A 
ATOM     24  C   UNL     1      -6.150  -3.209 124.211  0.00  0.00    +0.000 A 
ATOM     25  N   UNL     1      -5.348  -2.222 124.682  0.00  0.00    +0.000 NA
ATOM     26  C   UNL     1      -5.922  -1.040 125.005  0.00  0.00    +0.000 A 
BRANCH  24  27
ATOM     27  O   UNL     1      -5.515  -4.408 124.015  0.00  0.00    +0.000 OA
ATOM     28  C   UNL     1      -4.158  -4.340 123.581  0.00  0.00    +0.000 C 
ENDBRANCH  24  27
ENDBRANCH   5  21
BRANCH   1  29
ATOM     29  C   UNL     1      -8.070   1.547 123.336  0.00  0.00    +0.000 C 
BRANCH  29  31
ATOM     30  C   UNL     1     -10.159   0.754 122.553  0.00  0.00    +0.000 C 
ATOM     31  O   UNL     1      -9.340   1.906 122.773  0.00  0.00    +0.000 OA
ENDBRANCH  29  31
ENDBRANCH   1  29
TORSDOF 7
ENDMDL
MODEL 5
REMARK VINA RESULT:      -6.9      4.220      8.148
REMARK  Name = CHEMBL469005
REMARK  10 active torsions:
REMARK  status: ('A' for Active; 'I' for Inactive)
REMARK    1  A    between atoms: C_1  and  O_2
REMARK    2  A    between atoms: O_2  and  C_3
REMARK    3  A    between atoms: C_3  and  C_4
REMARK    4  A    between atoms: C_7  and  C_8
REMARK    5  A    between atoms: C_11  and  C_12
REMARK    6  A    between atoms: C_15  and  C_16
REMARK    7  A    between atoms: C_19  and  C_20
REMARK    8  A    between atoms: N_23  and  C_24
REMARK    9  A    between atoms: C_27  and  O_28
REMARK   10  A    between atoms: O_28  and  C_29
REMARK                            x       y       z     vdW  Elec       q    Type
REMARK                         _______ _______ _______ _____ _____    ______ ____
ROOT
ATOM      1  C   UNL     1      -7.248   0.863 123.670  0.00  0.00    +0.000 A 
ATOM      2  N   UNL     1      -7.142   1.995 122.995  0.00  0.00    +0.000 NA
ATOM      3  N   UNL     1      -6.577   2.953 123.828  0.00  0.00    +0.000 NA
ATOM      4  C   UNL     1      -6.353   2.405 125.011  0.00  0.00    +0.000 A 
ATOM      5  N   UNL     1      -6.804   1.100 124.960  0.00  0.00    +0.000 N 
ENDROOT
BRANCH   4   6
ATOM      6  C   UNL     1      -5.604   2.944 126.150  0.00  0.00    +0.000 A 
ATOM      7  C   UNL     1      -6.208   3.799 127.076  0.00  0.00    +0.000 A 
ATOM      8  N   UNL     1      -5.546   4.410 128.096  0.00  0.00    +0.000 NA
ATOM      9  C   UNL     1      -4.222   4.137 128.185  0.00  0.00    +0.000 A 
ATOM     10  C   UNL     1      -3.622   3.288 127.251  0.00  0.00    +0.000 A 
ATOM     11  N   UNL     1      -4.279   2.690 126.214  0.00  0.00    +0.000 NA
BRANCH   9  12
ATOM     12  C   UNL     1      -3.462   4.840 129.242  0.00  0.00    +0.000 A 
ATOM     13  C   UNL     1      -2.762   6.028 128.956  0.00  0.00    +0.000 A 
ATOM     14  C   UNL     1      -1.888   6.605 129.891  0.00  0.00    +0.000 A 
ATOM     15  C   UNL     1      -1.803   6.088 131.184  0.00  0.00    +0.000 A 
ATOM     16  C   UNL     1      -2.621   5.010 131.537  0.00  0.00    +0.000 A 
ATOM     17  C   UNL     1      -3.382   4.335 130.562  0.00  0.00    +0.000 A 
ATOM     18  C   UNL     1      -4.040   3.027 130.924  0.00  0.00    +0.000 C 
BRANCH  15  19
ATOM     19  C   UNL     1      -0.856   6.624 132.117  0.00  0.00    +0.000 C 
ATOM     20  N   UNL     1      -0.112   7.080 132.890  0.00  0.00    +0.000 NA
ENDBRANCH  15  19
ENDBRANCH   9  12
ENDBRANCH   4   6
BRANCH   5  21
ATOM     21  C   UNL     1      -6.750   0.162 125.994  0.00  0.00    +0.000 A 
ATOM     22  C   UNL     1      -5.617  -0.626 126.120  0.00  0.00    +0.000 A 
ATOM     23  C   UNL     1      -5.598  -1.596 127.107  0.00  0.00    +0.000 A 
ATOM     24  C   UNL     1      -6.753  -1.839 127.834  0.00  0.00    +0.000 A 
ATOM     25  N   UNL     1      -7.834  -1.022 127.765  0.00  0.00    +0.000 NA
ATOM     26  C   UNL     1      -7.789   0.012 126.894  0.00  0.00    +0.000 A 
BRANCH  24  27
ATOM     27  O   UNL     1      -6.920  -2.926 128.653  0.00  0.00    +0.000 OA
ATOM     28  C   UNL     1      -8.261  -3.236 129.027  0.00  0.00    +0.000 C 
ENDBRANCH  24  27
ENDBRANCH   5  21
BRANCH   1  29
ATOM     29  C   UNL     1      -7.901  -0.429 123.246  0.00  0.00    +0.000 C 
BRANCH  29  31
ATOM     30  C   UNL     1      -7.046  -2.620 123.522  0.00  0.00    +0.000 C 
ATOM     31  O   UNL     1      -6.891  -1.368 122.847  0.00  0.00    +0.000 OA
ENDBRANCH  29  31
ENDBRANCH   1  29
TORSDOF 7
ENDMDL
MODEL 6
REMARK VINA RESULT:      -6.9      3.524      6.955
REMARK  Name = CHEMBL469005
REMARK  10 active torsions:
REMARK  status: ('A' for Active; 'I' for Inactive)
REMARK    1  A    between atoms: C_1  and  O_2
REMARK    2  A    between atoms: O_2  and  C_3
REMARK    3  A    between atoms: C_3  and  C_4
REMARK    4  A    between atoms: C_7  and  C_8
REMARK    5  A    between atoms: C_11  and  C_12
REMARK    6  A    between atoms: C_15  and  C_16
REMARK    7  A    between atoms: C_19  and  C_20
REMARK    8  A    between atoms: N_23  and  C_24
REMARK    9  A    between atoms: C_27  and  O_28
REMARK   10  A    between atoms: O_28  and  C_29
REMARK                            x       y       z     vdW  Elec       q    Type
REMARK                         _______ _______ _______ _____ _____    ______ ____
ROOT
ATOM      1  C   UNL     1      -7.466   0.544 123.789  0.00  0.00    +0.000 A 
ATOM      2  N   UNL     1      -7.073  -0.512 123.097  0.00  0.00    +0.000 NA
ATOM      3  N   UNL     1      -6.584  -1.463 123.985  0.00  0.00    +0.000 NA
ATOM      4  C   UNL     1      -6.669  -0.977 125.212  0.00  0.00    +0.000 A 
ATOM      5  N   UNL     1      -7.181   0.304 125.121  0.00  0.00    +0.000 N 
ENDROOT
BRANCH   4   6
ATOM      6  C   UNL     1      -6.463  -1.663 126.492  0.00  0.00    +0.000 A 
ATOM      7  C   UNL     1      -7.481  -2.416 127.083  0.00  0.00    +0.000 A 
ATOM      8  N   UNL     1      -7.388  -2.994 128.311  0.00  0.00    +0.000 NA
ATOM      9  C   UNL     1      -6.214  -2.807 128.962  0.00  0.00    +0.000 A 
ATOM     10  C   UNL     1      -5.204  -2.045 128.369  0.00  0.00    +0.000 A 
ATOM     11  N   UNL     1      -5.302  -1.446 127.146  0.00  0.00    +0.000 NA
BRANCH   9  12
ATOM     12  C   UNL     1      -6.109  -3.365 130.328  0.00  0.00    +0.000 A 
ATOM     13  C   UNL     1      -5.359  -4.532 130.574  0.00  0.00    +0.000 A 
ATOM     14  C   UNL     1      -5.401  -5.178 131.819  0.00  0.00    +0.000 A 
ATOM     15  C   UNL     1      -6.077  -4.595 132.890  0.00  0.00    +0.000 A 
ATOM     16  C   UNL     1      -6.685  -3.350 132.710  0.00  0.00    +0.000 A 
ATOM     17  C   UNL     1      -6.777  -2.773 131.426  0.00  0.00    +0.000 A 
ATOM     18  C   UNL     1      -7.662  -1.568 131.228  0.00  0.00    +0.000 C 
BRANCH  15  19
ATOM     19  C   UNL     1      -6.188  -5.288 134.140  0.00  0.00    +0.000 C 
ATOM     20  N   UNL     1      -6.305  -5.872 135.143  0.00  0.00    +0.000 NA
ENDBRANCH  15  19
ENDBRANCH   9  12
ENDBRANCH   4   6
BRANCH   5  21
ATOM     21  C   UNL     1      -7.441   1.171 126.186  0.00  0.00    +0.000 A 
ATOM     22  C   UNL     1      -6.431   2.014 126.621  0.00  0.00    +0.000 A 
ATOM     23  C   UNL     1      -6.676   2.823 127.716  0.00  0.00    +0.000 A 
ATOM     24  C   UNL     1      -7.861   2.662 128.419  0.00  0.00    +0.000 A 
ATOM     25  N   UNL     1      -8.878   1.896 127.953  0.00  0.00    +0.000 NA
ATOM     26  C   UNL     1      -8.678   1.214 126.801  0.00  0.00    +0.000 A 
BRANCH  24  27
ATOM     27  O   UNL     1      -8.098   3.229 129.645  0.00  0.00    +0.000 OA
ATOM     28  C   UNL     1      -9.464   3.314 130.047  0.00  0.00    +0.000 C 
ENDBRANCH  24  27
ENDBRANCH   5  21
BRANCH   1  29
ATOM     29  C   UNL     1      -7.958   1.875 123.277  0.00  0.00    +0.000 C 
BRANCH  29  31
ATOM     30  C   UNL     1      -6.301   3.568 123.244  0.00  0.00    +0.000 C 
ATOM     31  O   UNL     1      -6.921   2.507 122.511  0.00  0.00    +0.000 OA
ENDBRANCH  29  31
ENDBRANCH   1  29
TORSDOF 7
ENDMDL
MODEL 7
REMARK VINA RESULT:      -6.9      4.430      8.255
REMARK  Name = CHEMBL469005
REMARK  10 active torsions:
REMARK  status: ('A' for Active; 'I' for Inactive)
REMARK    1  A    between atoms: C_1  and  O_2
REMARK    2  A    between atoms: O_2  and  C_3
REMARK    3  A    between atoms: C_3  and  C_4
REMARK    4  A    between atoms: C_7  and  C_8
REMARK    5  A    between atoms: C_11  and  C_12
REMARK    6  A    between atoms: C_15  and  C_16
REMARK    7  A    between atoms: C_19  and  C_20
REMARK    8  A    between atoms: N_23  and  C_24
REMARK    9  A    between atoms: C_27  and  O_28
REMARK   10  A    between atoms: O_28  and  C_29
REMARK                            x       y       z     vdW  Elec       q    Type
REMARK                         _______ _______ _______ _____ _____    ______ ____
ROOT
ATOM      1  C   UNL     1      -6.929   1.632 123.866  0.00  0.00    +0.000 A 
ATOM      2  N   UNL     1      -6.730   2.812 123.303  0.00  0.00    +0.000 NA
ATOM      3  N   UNL     1      -6.103   3.639 124.228  0.00  0.00    +0.000 NA
ATOM      4  C   UNL     1      -5.935   2.964 125.353  0.00  0.00    +0.000 A 
ATOM      5  N   UNL     1      -6.484   1.709 125.174  0.00  0.00    +0.000 N 
ENDROOT
BRANCH   4   6
ATOM      6  C   UNL     1      -5.161   3.332 126.542  0.00  0.00    +0.000 A 
ATOM      7  C   UNL     1      -5.728   4.089 127.571  0.00  0.00    +0.000 A 
ATOM      8  N   UNL     1      -5.039   4.546 128.652  0.00  0.00    +0.000 NA
ATOM      9  C   UNL     1      -3.725   4.216 128.694  0.00  0.00    +0.000 A 
ATOM     10  C   UNL     1      -3.162   3.467 127.658  0.00  0.00    +0.000 A 
ATOM     11  N   UNL     1      -3.846   3.024 126.561  0.00  0.00    +0.000 NA
BRANCH   9  12
ATOM     12  C   UNL     1      -2.934   4.756 129.821  0.00  0.00    +0.000 A 
ATOM     13  C   UNL     1      -2.886   4.082 131.057  0.00  0.00    +0.000 A 
ATOM     14  C   UNL     1      -2.300   4.670 132.189  0.00  0.00    +0.000 A 
ATOM     15  C   UNL     1      -1.620   5.883 132.077  0.00  0.00    +0.000 A 
ATOM     16  C   UNL     1      -1.511   6.484 130.819  0.00  0.00    +0.000 A 
ATOM     17  C   UNL     1      -2.227   5.978 129.715  0.00  0.00    +0.000 A 
ATOM     18  C   UNL     1      -2.294   6.796 128.450  0.00  0.00    +0.000 C 
BRANCH  15  19
ATOM     19  C   UNL     1      -1.088   6.525 133.242  0.00  0.00    +0.000 C 
ATOM     20  N   UNL     1      -0.621   7.039 134.179  0.00  0.00    +0.000 NA
ENDBRANCH  15  19
ENDBRANCH   9  12
ENDBRANCH   4   6
BRANCH   5  21
ATOM     21  C   UNL     1      -6.514   0.675 126.113  0.00  0.00    +0.000 A 
ATOM     22  C   UNL     1      -5.463  -0.227 126.144  0.00  0.00    +0.000 A 
ATOM     23  C   UNL     1      -5.531  -1.285 127.034  0.00  0.00    +0.000 A 
ATOM     24  C   UNL     1      -6.699  -1.485 127.754  0.00  0.00    +0.000 A 
ATOM     25  N   UNL     1      -7.695  -0.564 127.781  0.00  0.00    +0.000 NA
ATOM     26  C   UNL     1      -7.556   0.540 127.012  0.00  0.00    +0.000 A 
BRANCH  24  27
ATOM     27  O   UNL     1      -6.964  -2.624 128.469  0.00  0.00    +0.000 OA
ATOM     28  C   UNL     1      -8.278  -3.163 128.333  0.00  0.00    +0.000 C 
ENDBRANCH  24  27
ENDBRANCH   5  21
BRANCH   1  29
ATOM     29  C   UNL     1      -7.674   0.441 123.316  0.00  0.00    +0.000 C 
BRANCH  29  31
ATOM     30  C   UNL     1      -7.186  -1.876 123.251  0.00  0.00    +0.000 C 
ATOM     31  O   UNL     1      -6.735  -0.563 122.903  0.00  0.00    +0.000 OA
ENDBRANCH  29  31
ENDBRANCH   1  29
TORSDOF 7
ENDMDL
MODEL 8
REMARK VINA RESULT:      -6.8      4.372      9.017
REMARK  Name = CHEMBL469005
REMARK  10 active torsions:
REMARK  status: ('A' for Active; 'I' for Inactive)
REMARK    1  A    between atoms: C_1  and  O_2
REMARK    2  A    between atoms: O_2  and  C_3
REMARK    3  A    between atoms: C_3  and  C_4
REMARK    4  A    between atoms: C_7  and  C_8
REMARK    5  A    between atoms: C_11  and  C_12
REMARK    6  A    between atoms: C_15  and  C_16
REMARK    7  A    between atoms: C_19  and  C_20
REMARK    8  A    between atoms: N_23  and  C_24
REMARK    9  A    between atoms: C_27  and  O_28
REMARK   10  A    between atoms: O_28  and  C_29
REMARK                            x       y       z     vdW  Elec       q    Type
REMARK                         _______ _______ _______ _____ _____    ______ ____
ROOT
ATOM      1  C   UNL     1      -6.008   1.186 130.555  0.00  0.00    +0.000 A 
ATOM      2  N   UNL     1      -6.331   0.679 129.378  0.00  0.00    +0.000 NA
ATOM      3  N   UNL     1      -7.426   1.379 128.883  0.00  0.00    +0.000 NA
ATOM      4  C   UNL     1      -7.772   2.300 129.767  0.00  0.00    +0.000 A 
ATOM      5  N   UNL     1      -6.926   2.178 130.853  0.00  0.00    +0.000 N 
ENDROOT
BRANCH   4   6
ATOM      6  C   UNL     1      -8.730   3.402 129.623  0.00  0.00    +0.000 A 
ATOM      7  C   UNL     1      -8.344   4.631 129.082  0.00  0.00    +0.000 A 
ATOM      8  N   UNL     1      -9.155   5.722 129.012  0.00  0.00    +0.000 NA
ATOM      9  C   UNL     1     -10.408   5.556 129.503  0.00  0.00    +0.000 A 
ATOM     10  C   UNL     1     -10.783   4.327 130.052  0.00  0.00    +0.000 A 
ATOM     11  N   UNL     1      -9.965   3.237 130.142  0.00  0.00    +0.000 NA
BRANCH   9  12
ATOM     12  C   UNL     1     -11.289   6.743 129.504  0.00  0.00    +0.000 A 
ATOM     13  C   UNL     1     -11.513   7.476 128.322  0.00  0.00    +0.000 A 
ATOM     14  C   UNL     1     -12.190   8.706 128.341  0.00  0.00    +0.000 A 
ATOM     15  C   UNL     1     -12.785   9.161 129.518  0.00  0.00    +0.000 A 
ATOM     16  C   UNL     1     -12.718   8.363 130.663  0.00  0.00    +0.000 A 
ATOM     17  C   UNL     1     -11.912   7.206 130.688  0.00  0.00    +0.000 A 
ATOM     18  C   UNL     1     -11.657   6.522 132.008  0.00  0.00    +0.000 C 
BRANCH  15  19
ATOM     19  C   UNL     1     -13.409  10.450 129.561  0.00  0.00    +0.000 C 
ATOM     20  N   UNL     1     -13.887  11.514 129.582  0.00  0.00    +0.000 NA
ENDBRANCH  15  19
ENDBRANCH   9  12
ENDBRANCH   4   6
BRANCH   5  21
ATOM     21  C   UNL     1      -6.940   2.964 132.008  0.00  0.00    +0.000 A 
ATOM     22  C   UNL     1      -7.840   2.655 133.014  0.00  0.00    +0.000 A 
ATOM     23  C   UNL     1      -7.891   3.476 134.126  0.00  0.00    +0.000 A 
ATOM     24  C   UNL     1      -7.149   4.648 134.131  0.00  0.00    +0.000 A 
ATOM     25  N   UNL     1      -6.214   4.913 133.185  0.00  0.00    +0.000 NA
ATOM     26  C   UNL     1      -6.073   4.029 132.171  0.00  0.00    +0.000 A 
BRANCH  24  27
ATOM     27  O   UNL     1      -7.310   5.644 135.060  0.00  0.00    +0.000 OA
ATOM     28  C   UNL     1      -6.117   6.147 135.660  0.00  0.00    +0.000 C 
ENDBRANCH  24  27
ENDBRANCH   5  21
BRANCH   1  29
ATOM     29  C   UNL     1      -4.972   0.699 131.538  0.00  0.00    +0.000 C 
BRANCH  29  31
ATOM     30  C   UNL     1      -4.668  -1.448 132.491  0.00  0.00    +0.000 C 
ATOM     31  O   UNL     1      -4.680  -0.683 131.281  0.00  0.00    +0.000 OA
ENDBRANCH  29  31
ENDBRANCH   1  29
TORSDOF 7
ENDMDL
MODEL 9
REMARK VINA RESULT:      -6.7      4.591      5.885
REMARK  Name = CHEMBL469005
REMARK  10 active torsions:
REMARK  status: ('A' for Active; 'I' for Inactive)
REMARK    1  A    between atoms: C_1  and  O_2
REMARK    2  A    between atoms: O_2  and  C_3
REMARK    3  A    between atoms: C_3  and  C_4
REMARK    4  A    between atoms: C_7  and  C_8
REMARK    5  A    between atoms: C_11  and  C_12
REMARK    6  A    between atoms: C_15  and  C_16
REMARK    7  A    between atoms: C_19  and  C_20
REMARK    8  A    between atoms: N_23  and  C_24
REMARK    9  A    between atoms: C_27  and  O_28
REMARK   10  A    between atoms: O_28  and  C_29
REMARK                            x       y       z     vdW  Elec       q    Type
REMARK                         _______ _______ _______ _____ _____    ______ ____
ROOT
ATOM      1  C   UNL     1     -10.396   5.684 130.278  0.00  0.00    +0.000 A 
ATOM      2  N   UNL     1     -11.431   4.904 130.020  0.00  0.00    +0.000 NA
ATOM      3  N   UNL     1     -11.013   3.580 130.087  0.00  0.00    +0.000 NA
ATOM      4  C   UNL     1      -9.722   3.560 130.373  0.00  0.00    +0.000 A 
ATOM      5  N   UNL     1      -9.291   4.870 130.457  0.00  0.00    +0.000 N 
ENDROOT
BRANCH   4   6
ATOM      6  C   UNL     1      -8.875   2.418 130.735  0.00  0.00    +0.000 A 
ATOM      7  C   UNL     1      -8.231   1.656 129.757  0.00  0.00    +0.000 A 
ATOM      8  N   UNL     1      -7.513   0.529 130.018  0.00  0.00    +0.000 NA
ATOM      9  C   UNL     1      -7.440   0.167 131.322  0.00  0.00    +0.000 A 
ATOM     10  C   UNL     1      -8.095   0.929 132.293  0.00  0.00    +0.000 A 
ATOM     11  N   UNL     1      -8.833   2.048 132.033  0.00  0.00    +0.000 NA
BRANCH   9  12
ATOM     12  C   UNL     1      -6.725  -1.091 131.630  0.00  0.00    +0.000 A 
ATOM     13  C   UNL     1      -7.427  -2.305 131.761  0.00  0.00    +0.000 A 
ATOM     14  C   UNL     1      -6.797  -3.466 132.235  0.00  0.00    +0.000 A 
ATOM     15  C   UNL     1      -5.419  -3.479 132.450  0.00  0.00    +0.000 A 
ATOM     16  C   UNL     1      -4.679  -2.329 132.161  0.00  0.00    +0.000 A 
ATOM     17  C   UNL     1      -5.325  -1.120 131.834  0.00  0.00    +0.000 A 
ATOM     18  C   UNL     1      -4.516   0.152 131.788  0.00  0.00    +0.000 C 
BRANCH  15  19
ATOM     19  C   UNL     1      -4.784  -4.637 133.007  0.00  0.00    +0.000 C 
ATOM     20  N   UNL     1      -4.286  -5.600 133.437  0.00  0.00    +0.000 NA
ENDBRANCH  15  19
ENDBRANCH   9  12
ENDBRANCH   4   6
BRANCH   5  21
ATOM     21  C   UNL     1      -7.994   5.300 130.751  0.00  0.00    +0.000 A 
ATOM     22  C   UNL     1      -7.703   5.709 132.042  0.00  0.00    +0.000 A 
ATOM     23  C   UNL     1      -6.435   6.193 132.308  0.00  0.00    +0.000 A 
ATOM     24  C   UNL     1      -5.553   6.384 131.255  0.00  0.00    +0.000 A 
ATOM     25  N   UNL     1      -5.807   5.915 130.008  0.00  0.00    +0.000 NA
ATOM     26  C   UNL     1      -6.999   5.314 129.790  0.00  0.00    +0.000 A 
BRANCH  24  27
ATOM     27  O   UNL     1      -4.375   7.078 131.368  0.00  0.00    +0.000 OA
ATOM     28  C   UNL     1      -3.972   7.828 130.223  0.00  0.00    +0.000 C 
ENDBRANCH  24  27
ENDBRANCH   5  21
BRANCH   1  29
ATOM     29  C   UNL     1     -10.311   7.189 130.212  0.00  0.00    +0.000 C 
BRANCH  29  31
ATOM     30  C   UNL     1     -10.673   8.387 128.202  0.00  0.00    +0.000 C 
ATOM     31  O   UNL     1      -9.755   7.582 128.949  0.00  0.00    +0.000 OA
ENDBRANCH  29  31
ENDBRANCH   1  29
TORSDOF 7
ENDMDL
