MODEL 1
REMARK VINA RESULT:      -7.8      0.000      0.000
REMARK  Name = CHEMBL521789
REMARK  11 active torsions:
REMARK  status: ('A' for Active; 'I' for Inactive)
REMARK    1  A    between atoms: C_1  and  C_2
REMARK    2  A    between atoms: C_2  and  O_3
REMARK    3  A    between atoms: O_3  and  C_4
REMARK    4  A    between atoms: C_7  and  C_8
REMARK    5  A    between atoms: C_11  and  C_12
REMARK    6  A    between atoms: C_12  and  O_13
REMARK    7  A    between atoms: O_13  and  C_14
REMARK    8  A    between atoms: N_15  and  C_16
REMARK    9  A    between atoms: C_19  and  O_20
REMARK   10  A    between atoms: O_20  and  C_21
REMARK   11  A    between atoms: C_25  and  C_26
REMARK                            x       y       z     vdW  Elec       q    Type
REMARK                         _______ _______ _______ _____ _____    ______ ____
ROOT
ATOM      1  C   UNL     1      -7.729   1.593 126.171  0.00  0.00    +0.000 A 
ATOM      2  N   UNL     1      -8.049   1.840 127.426  0.00  0.00    +0.000 NA
ATOM      3  N   UNL     1      -8.290   3.198 127.568  0.00  0.00    +0.000 NA
ATOM      4  C   UNL     1      -8.141   3.780 126.393  0.00  0.00    +0.000 A 
ATOM      5  N   UNL     1      -7.753   2.802 125.484  0.00  0.00    +0.000 N 
ENDROOT
BRANCH   1   9
ATOM      6  C   UNL     1      -6.543  -2.232 124.444  0.00  0.00    +0.000 A 
ATOM      7  C   UNL     1      -5.594  -1.235 124.752  0.00  0.00    +0.000 A 
ATOM      8  C   UNL     1      -5.961   0.004 125.331  0.00  0.00    +0.000 A 
ATOM      9  C   UNL     1      -7.299   0.298 125.587  0.00  0.00    +0.000 A 
ATOM     10  C   UNL     1      -8.232  -0.712 125.300  0.00  0.00    +0.000 A 
ATOM     11  C   UNL     1      -7.878  -1.989 124.773  0.00  0.00    +0.000 A 
BRANCH  11  12
ATOM     12  C   UNL     1      -9.011  -2.972 124.634  0.00  0.00    +0.000 C 
ATOM     13  F   UNL     1      -9.947  -2.822 125.615  0.00  0.00    +0.000 F 
ATOM     14  F   UNL     1      -9.677  -2.788 123.458  0.00  0.00    +0.000 F 
ATOM     15  F   UNL     1      -8.687  -4.291 124.689  0.00  0.00    +0.000 F 
ENDBRANCH  11  12
BRANCH   6  16
ATOM     16  O   UNL     1      -6.028  -3.428 124.008  0.00  0.00    +0.000 OA
BRANCH  16  18
ATOM     17  C   UNL     1      -4.202  -4.905 123.458  0.00  0.00    +0.000 C 
ATOM     18  C   UNL     1      -4.685  -3.457 123.499  0.00  0.00    +0.000 C 
ENDBRANCH  16  18
ENDBRANCH   6  16
ENDBRANCH   1   9
BRANCH   5  19
ATOM     19  C   UNL     1      -7.509   2.959 124.123  0.00  0.00    +0.000 A 
ATOM     20  C   UNL     1      -8.547   2.785 123.217  0.00  0.00    +0.000 A 
ATOM     21  C   UNL     1      -8.298   3.083 121.890  0.00  0.00    +0.000 A 
ATOM     22  C   UNL     1      -7.029   3.526 121.514  0.00  0.00    +0.000 A 
ATOM     23  N   UNL     1      -6.010   3.669 122.392  0.00  0.00    +0.000 NA
ATOM     24  C   UNL     1      -6.266   3.389 123.680  0.00  0.00    +0.000 A 
BRANCH  22  25
ATOM     25  O   UNL     1      -6.678   3.878 120.243  0.00  0.00    +0.000 OA
ATOM     26  C   UNL     1      -5.540   4.718 120.127  0.00  0.00    +0.000 C 
ENDBRANCH  22  25
ENDBRANCH   5  19
BRANCH   4  27
ATOM     27  C   UNL     1      -8.450   5.227 126.067  0.00  0.00    +0.000 C 
BRANCH  27  28
ATOM     28  O   UNL     1      -9.301   5.744 127.078  0.00  0.00    +0.000 OA
ATOM     29  C   UNL     1     -10.193   6.771 126.698  0.00  0.00    +0.000 C 
ENDBRANCH  27  28
ENDBRANCH   4  27
TORSDOF 8
ENDMDL
MODEL 2
REMARK VINA RESULT:      -7.5      3.445      5.733
REMARK  Name = CHEMBL521789
REMARK  11 active torsions:
REMARK  status: ('A' for Active; 'I' for Inactive)
REMARK    1  A    between atoms: C_1  and  C_2
REMARK    2  A    between atoms: C_2  and  O_3
REMARK    3  A    between atoms: O_3  and  C_4
REMARK    4  A    between atoms: C_7  and  C_8
REMARK    5  A    between atoms: C_11  and  C_12
REMARK    6  A    between atoms: C_12  and  O_13
REMARK    7  A    between atoms: O_13  and  C_14
REMARK    8  A    between atoms: N_15  and  C_16
REMARK    9  A    between atoms: C_19  and  O_20
REMARK   10  A    between atoms: O_20  and  C_21
REMARK   11  A    between atoms: C_25  and  C_26
REMARK                            x       y       z     vdW  Elec       q    Type
REMARK                         _______ _______ _______ _____ _____    ______ ____
ROOT
ATOM      1  C   UNL     1      -8.184   0.861 127.627  0.00  0.00    +0.000 A 
ATOM      2  N   UNL     1      -8.888   1.973 127.715  0.00  0.00    +0.000 NA
ATOM      3  N   UNL     1      -9.021   2.315 129.052  0.00  0.00    +0.000 NA
ATOM      4  C   UNL     1      -8.376   1.425 129.783  0.00  0.00    +0.000 A 
ATOM      5  N   UNL     1      -7.858   0.466 128.920  0.00  0.00    +0.000 N 
ENDROOT
BRANCH   1   9
ATOM      6  C   UNL     1      -7.352  -1.478 124.042  0.00  0.00    +0.000 A 
ATOM      7  C   UNL     1      -6.584  -0.343 124.377  0.00  0.00    +0.000 A 
ATOM      8  C   UNL     1      -6.830   0.416 125.547  0.00  0.00    +0.000 A 
ATOM      9  C   UNL     1      -7.878   0.080 126.403  0.00  0.00    +0.000 A 
ATOM     10  C   UNL     1      -8.618  -1.067 126.073  0.00  0.00    +0.000 A 
ATOM     11  C   UNL     1      -8.350  -1.880 124.931  0.00  0.00    +0.000 A 
BRANCH  11  12
ATOM     12  C   UNL     1      -9.187  -3.126 124.809  0.00  0.00    +0.000 C 
ATOM     13  F   UNL     1      -8.443  -4.262 124.941  0.00  0.00    +0.000 F 
ATOM     14  F   UNL     1     -10.125  -3.184 125.797  0.00  0.00    +0.000 F 
ATOM     15  F   UNL     1      -9.852  -3.303 123.637  0.00  0.00    +0.000 F 
ENDBRANCH  11  12
BRANCH   6  16
ATOM     16  O   UNL     1      -6.917  -2.187 122.949  0.00  0.00    +0.000 OA
BRANCH  16  18
ATOM     17  C   UNL     1      -5.268  -3.680 123.883  0.00  0.00    +0.000 C 
ATOM     18  C   UNL     1      -5.532  -2.564 122.876  0.00  0.00    +0.000 C 
ENDBRANCH  16  18
ENDBRANCH   6  16
ENDBRANCH   1   9
BRANCH   5  19
ATOM     19  C   UNL     1      -7.086  -0.643 129.251  0.00  0.00    +0.000 A 
ATOM     20  C   UNL     1      -7.709  -1.854 129.526  0.00  0.00    +0.000 A 
ATOM     21  C   UNL     1      -6.906  -2.962 129.717  0.00  0.00    +0.000 A 
ATOM     22  C   UNL     1      -5.519  -2.823 129.643  0.00  0.00    +0.000 A 
ATOM     23  N   UNL     1      -4.910  -1.639 129.402  0.00  0.00    +0.000 NA
ATOM     24  C   UNL     1      -5.700  -0.571 129.206  0.00  0.00    +0.000 A 
BRANCH  22  25
ATOM     25  O   UNL     1      -4.631  -3.850 129.782  0.00  0.00    +0.000 OA
ATOM     26  C   UNL     1      -3.361  -3.653 129.180  0.00  0.00    +0.000 C 
ENDBRANCH  22  25
ENDBRANCH   5  19
BRANCH   4  27
ATOM     27  C   UNL     1      -8.143   1.497 131.278  0.00  0.00    +0.000 C 
BRANCH  27  28
ATOM     28  O   UNL     1      -9.383   1.763 131.914  0.00  0.00    +0.000 OA
ATOM     29  C   UNL     1      -9.380   2.735 132.939  0.00  0.00    +0.000 C 
ENDBRANCH  27  28
ENDBRANCH   4  27
TORSDOF 8
ENDMDL
MODEL 3
REMARK VINA RESULT:      -6.9      1.651      2.174
REMARK  Name = CHEMBL521789
REMARK  11 active torsions:
REMARK  status: ('A' for Active; 'I' for Inactive)
REMARK    1  A    between atoms: C_1  and  C_2
REMARK    2  A    between atoms: C_2  and  O_3
REMARK    3  A    between atoms: O_3  and  C_4
REMARK    4  A    between atoms: C_7  and  C_8
REMARK    5  A    between atoms: C_11  and  C_12
REMARK    6  A    between atoms: C_12  and  O_13
REMARK    7  A    between atoms: O_13  and  C_14
REMARK    8  A    between atoms: N_15  and  C_16
REMARK    9  A    between atoms: C_19  and  O_20
REMARK   10  A    between atoms: O_20  and  C_21
REMARK   11  A    between atoms: C_25  and  C_26
REMARK                            x       y       z     vdW  Elec       q    Type
REMARK                         _______ _______ _______ _____ _____    ______ ____
ROOT
ATOM      1  C   UNL     1      -7.710   0.813 127.892  0.00  0.00    +0.000 A 
ATOM      2  N   UNL     1      -8.154   0.698 129.128  0.00  0.00    +0.000 NA
ATOM      3  N   UNL     1      -8.350   1.965 129.655  0.00  0.00    +0.000 NA
ATOM      4  C   UNL     1      -8.050   2.858 128.731  0.00  0.00    +0.000 A 
ATOM      5  N   UNL     1      -7.608   2.170 127.607  0.00  0.00    +0.000 N 
ENDROOT
BRANCH   1   9
ATOM      6  C   UNL     1      -6.510  -2.398 125.197  0.00  0.00    +0.000 A 
ATOM      7  C   UNL     1      -5.557  -1.619 125.887  0.00  0.00    +0.000 A 
ATOM      8  C   UNL     1      -5.932  -0.586 126.780  0.00  0.00    +0.000 A 
ATOM      9  C   UNL     1      -7.276  -0.276 126.983  0.00  0.00    +0.000 A 
ATOM     10  C   UNL     1      -8.215  -1.076 126.311  0.00  0.00    +0.000 A 
ATOM     11  C   UNL     1      -7.861  -2.160 125.453  0.00  0.00    +0.000 A 
BRANCH  11  12
ATOM     12  C   UNL     1      -9.014  -2.962 124.909  0.00  0.00    +0.000 C 
ATOM     13  F   UNL     1     -10.071  -2.995 125.771  0.00  0.00    +0.000 F 
ATOM     14  F   UNL     1      -9.495  -2.409 123.759  0.00  0.00    +0.000 F 
ATOM     15  F   UNL     1      -8.773  -4.271 124.635  0.00  0.00    +0.000 F 
ENDBRANCH  11  12
BRANCH   6  16
ATOM     16  O   UNL     1      -6.003  -3.445 124.467  0.00  0.00    +0.000 OA
BRANCH  16  18
ATOM     17  C   UNL     1      -4.056  -4.534 123.549  0.00  0.00    +0.000 C 
ATOM     18  C   UNL     1      -4.833  -3.225 123.662  0.00  0.00    +0.000 C 
ENDBRANCH  16  18
ENDBRANCH   6  16
ENDBRANCH   1   9
BRANCH   5  19
ATOM     19  C   UNL     1      -7.211   2.708 126.386  0.00  0.00    +0.000 A 
ATOM     20  C   UNL     1      -5.867   2.976 126.161  0.00  0.00    +0.000 A 
ATOM     21  C   UNL     1      -5.496   3.380 124.892  0.00  0.00    +0.000 A 
ATOM     22  C   UNL     1      -6.472   3.517 123.904  0.00  0.00    +0.000 A 
ATOM     23  N   UNL     1      -7.785   3.282 124.130  0.00  0.00    +0.000 NA
ATOM     24  C   UNL     1      -8.133   2.877 125.362  0.00  0.00    +0.000 A 
BRANCH  22  25
ATOM     25  O   UNL     1      -6.219   3.877 122.612  0.00  0.00    +0.000 OA
ATOM     26  C   UNL     1      -7.116   3.361 121.641  0.00  0.00    +0.000 C 
ENDBRANCH  22  25
ENDBRANCH   5  19
BRANCH   4  27
ATOM     27  C   UNL     1      -8.259   4.355 128.835  0.00  0.00    +0.000 C 
BRANCH  27  28
ATOM     28  O   UNL     1      -8.799   4.647 130.114  0.00  0.00    +0.000 OA
ATOM     29  C   UNL     1     -10.087   5.226 130.147  0.00  0.00    +0.000 C 
ENDBRANCH  27  28
ENDBRANCH   4  27
TORSDOF 8
ENDMDL
MODEL 4
REMARK VINA RESULT:      -6.8      5.652      7.672
REMARK  Name = CHEMBL521789
REMARK  11 active torsions:
REMARK  status: ('A' for Active; 'I' for Inactive)
REMARK    1  A    between atoms: C_1  and  C_2
REMARK    2  A    between atoms: C_2  and  O_3
REMARK    3  A    between atoms: O_3  and  C_4
REMARK    4  A    between atoms: C_7  and  C_8
REMARK    5  A    between atoms: C_11  and  C_12
REMARK    6  A    between atoms: C_12  and  O_13
REMARK    7  A    between atoms: O_13  and  C_14
REMARK    8  A    between atoms: N_15  and  C_16
REMARK    9  A    between atoms: C_19  and  O_20
REMARK   10  A    between atoms: O_20  and  C_21
REMARK   11  A    between atoms: C_25  and  C_26
REMARK                            x       y       z     vdW  Elec       q    Type
REMARK                         _______ _______ _______ _____ _____    ______ ____
ROOT
ATOM      1  C   UNL     1      -6.358  -3.008 130.828  0.00  0.00    +0.000 A 
ATOM      2  N   UNL     1      -5.926  -4.131 131.367  0.00  0.00    +0.000 NA
ATOM      3  N   UNL     1      -5.914  -3.991 132.746  0.00  0.00    +0.000 NA
ATOM      4  C   UNL     1      -6.362  -2.788 133.053  0.00  0.00    +0.000 A 
ATOM      5  N   UNL     1      -6.625  -2.119 131.864  0.00  0.00    +0.000 N 
ENDROOT
BRANCH   1   9
ATOM      6  C   UNL     1      -6.685  -2.048 126.586  0.00  0.00    +0.000 A 
ATOM      7  C   UNL     1      -5.533  -1.718 127.331  0.00  0.00    +0.000 A 
ATOM      8  C   UNL     1      -5.404  -2.040 128.704  0.00  0.00    +0.000 A 
ATOM      9  C   UNL     1      -6.443  -2.673 129.384  0.00  0.00    +0.000 A 
ATOM     10  C   UNL     1      -7.574  -3.020 128.627  0.00  0.00    +0.000 A 
ATOM     11  C   UNL     1      -7.700  -2.759 127.230  0.00  0.00    +0.000 A 
BRANCH  11  12
ATOM     12  C   UNL     1      -8.944  -3.302 126.577  0.00  0.00    +0.000 C 
ATOM     13  F   UNL     1      -9.727  -2.312 126.058  0.00  0.00    +0.000 F 
ATOM     14  F   UNL     1      -8.631  -4.112 125.525  0.00  0.00    +0.000 F 
ATOM     15  F   UNL     1      -9.791  -4.010 127.369  0.00  0.00    +0.000 F 
ENDBRANCH  11  12
BRANCH   6  16
ATOM     16  O   UNL     1      -6.615  -1.789 125.240  0.00  0.00    +0.000 OA
BRANCH  16  18
ATOM     17  C   UNL     1      -5.339  -3.403 123.980  0.00  0.00    +0.000 C 
ATOM     18  C   UNL     1      -5.365  -1.991 124.561  0.00  0.00    +0.000 C 
ENDBRANCH  16  18
ENDBRANCH   6  16
ENDBRANCH   1   9
BRANCH   5  19
ATOM     19  C   UNL     1      -7.136  -0.834 131.709  0.00  0.00    +0.000 A 
ATOM     20  C   UNL     1      -8.511  -0.641 131.699  0.00  0.00    +0.000 A 
ATOM     21  C   UNL     1      -8.978   0.661 131.681  0.00  0.00    +0.000 A 
ATOM     22  C   UNL     1      -8.064   1.715 131.659  0.00  0.00    +0.000 A 
ATOM     23  N   UNL     1      -6.724   1.527 131.642  0.00  0.00    +0.000 NA
ATOM     24  C   UNL     1      -6.282   0.260 131.672  0.00  0.00    +0.000 A 
BRANCH  22  25
ATOM     25  O   UNL     1      -8.407   3.036 131.672  0.00  0.00    +0.000 OA
ATOM     26  C   UNL     1      -7.376   3.938 132.042  0.00  0.00    +0.000 C 
ENDBRANCH  22  25
ENDBRANCH   5  19
BRANCH   4  27
ATOM     27  C   UNL     1      -6.649  -2.272 134.449  0.00  0.00    +0.000 C 
BRANCH  27  28
ATOM     28  O   UNL     1      -8.015  -2.514 134.746  0.00  0.00    +0.000 OA
ATOM     29  C   UNL     1      -8.296  -3.553 135.661  0.00  0.00    +0.000 C 
ENDBRANCH  27  28
ENDBRANCH   4  27
TORSDOF 8
ENDMDL
MODEL 5
REMARK VINA RESULT:      -6.8      6.766      9.306
REMARK  Name = CHEMBL521789
REMARK  11 active torsions:
REMARK  status: ('A' for Active; 'I' for Inactive)
REMARK    1  A    between atoms: C_1  and  C_2
REMARK    2  A    between atoms: C_2  and  O_3
REMARK    3  A    between atoms: O_3  and  C_4
REMARK    4  A    between atoms: C_7  and  C_8
REMARK    5  A    between atoms: C_11  and  C_12
REMARK    6  A    between atoms: C_12  and  O_13
REMARK    7  A    between atoms: O_13  and  C_14
REMARK    8  A    between atoms: N_15  and  C_16
REMARK    9  A    between atoms: C_19  and  O_20
REMARK   10  A    between atoms: O_20  and  C_21
REMARK   11  A    between atoms: C_25  and  C_26
REMARK                            x       y       z     vdW  Elec       q    Type
REMARK                         _______ _______ _______ _____ _____    ______ ____
ROOT
ATOM      1  C   UNL     1      -9.184   5.872 132.104  0.00  0.00    +0.000 A 
ATOM      2  N   UNL     1     -10.130   6.537 132.738  0.00  0.00    +0.000 NA
ATOM      3  N   UNL     1     -11.306   6.446 132.010  0.00  0.00    +0.000 NA
ATOM      4  C   UNL     1     -11.086   5.704 130.942  0.00  0.00    +0.000 A 
ATOM      5  N   UNL     1      -9.743   5.346 130.945  0.00  0.00    +0.000 N 
ENDROOT
BRANCH   1   9
ATOM      6  C   UNL     1      -4.946   5.662 133.114  0.00  0.00    +0.000 A 
ATOM      7  C   UNL     1      -5.911   4.907 133.815  0.00  0.00    +0.000 A 
ATOM      8  C   UNL     1      -7.287   4.950 133.487  0.00  0.00    +0.000 A 
ATOM      9  C   UNL     1      -7.747   5.780 132.466  0.00  0.00    +0.000 A 
ATOM     10  C   UNL     1      -6.775   6.506 131.758  0.00  0.00    +0.000 A 
ATOM     11  C   UNL     1      -5.377   6.432 132.032  0.00  0.00    +0.000 A 
BRANCH  11  12
ATOM     12  C   UNL     1      -4.488   7.205 131.094  0.00  0.00    +0.000 C 
ATOM     13  F   UNL     1      -3.775   6.386 130.267  0.00  0.00    +0.000 F 
ATOM     14  F   UNL     1      -5.223   8.007 130.272  0.00  0.00    +0.000 F 
ATOM     15  F   UNL     1      -3.544   8.000 131.662  0.00  0.00    +0.000 F 
ENDBRANCH  11  12
BRANCH   6  16
ATOM     16  O   UNL     1      -3.639   5.421 133.459  0.00  0.00    +0.000 OA
BRANCH  16  18
ATOM     17  C   UNL     1      -1.548   4.737 132.471  0.00  0.00    +0.000 C 
ATOM     18  C   UNL     1      -2.960   4.306 132.857  0.00  0.00    +0.000 C 
ENDBRANCH  16  18
ENDBRANCH   6  16
ENDBRANCH   1   9
BRANCH   5  19
ATOM     19  C   UNL     1      -9.077   4.545 130.022  0.00  0.00    +0.000 A 
ATOM     20  C   UNL     1      -8.982   3.177 130.244  0.00  0.00    +0.000 A 
ATOM     21  C   UNL     1      -8.434   2.400 129.241  0.00  0.00    +0.000 A 
ATOM     22  C   UNL     1      -7.991   3.010 128.067  0.00  0.00    +0.000 A 
ATOM     23  N   UNL     1      -8.059   4.345 127.861  0.00  0.00    +0.000 NA
ATOM     24  C   UNL     1      -8.604   5.090 128.836  0.00  0.00    +0.000 A 
BRANCH  22  25
ATOM     25  O   UNL     1      -7.464   2.341 127.000  0.00  0.00    +0.000 OA
ATOM     26  C   UNL     1      -6.094   2.594 126.729  0.00  0.00    +0.000 C 
ENDBRANCH  22  25
ENDBRANCH   5  19
BRANCH   4  27
ATOM     27  C   UNL     1     -12.132   5.230 129.953  0.00  0.00    +0.000 C 
BRANCH  27  28
ATOM     28  O   UNL     1     -12.116   6.096 128.830  0.00  0.00    +0.000 OA
ATOM     29  C   UNL     1     -13.243   6.928 128.647  0.00  0.00    +0.000 C 
ENDBRANCH  27  28
ENDBRANCH   4  27
TORSDOF 8
ENDMDL
MODEL 6
REMARK VINA RESULT:      -6.8      5.484      9.779
REMARK  Name = CHEMBL521789
REMARK  11 active torsions:
REMARK  status: ('A' for Active; 'I' for Inactive)
REMARK    1  A    between atoms: C_1  and  C_2
REMARK    2  A    between atoms: C_2  and  O_3
REMARK    3  A    between atoms: O_3  and  C_4
REMARK    4  A    between atoms: C_7  and  C_8
REMARK    5  A    between atoms: C_11  and  C_12
REMARK    6  A    between atoms: C_12  and  O_13
REMARK    7  A    between atoms: O_13  and  C_14
REMARK    8  A    between atoms: N_15  and  C_16
REMARK    9  A    between atoms: C_19  and  O_20
REMARK   10  A    between atoms: O_20  and  C_21
REMARK   11  A    between atoms: C_25  and  C_26
REMARK                            x       y       z     vdW  Elec       q    Type
REMARK                         _______ _______ _______ _____ _____    ______ ____
ROOT
ATOM      1  C   UNL     1      -9.301   5.831 132.012  0.00  0.00    +0.000 A 
ATOM      2  N   UNL     1      -9.010   6.176 133.251  0.00  0.00    +0.000 NA
ATOM      3  N   UNL     1      -7.961   5.388 133.701  0.00  0.00    +0.000 NA
ATOM      4  C   UNL     1      -7.594   4.577 132.728  0.00  0.00    +0.000 A 
ATOM      5  N   UNL     1      -8.439   4.802 131.648  0.00  0.00    +0.000 N 
ENDROOT
BRANCH   1   9
ATOM      6  C   UNL     1     -12.523   7.311 129.473  0.00  0.00    +0.000 A 
ATOM      7  C   UNL     1     -12.702   7.127 130.860  0.00  0.00    +0.000 A 
ATOM      8  C   UNL     1     -11.660   6.665 131.701  0.00  0.00    +0.000 A 
ATOM      9  C   UNL     1     -10.413   6.339 131.171  0.00  0.00    +0.000 A 
ATOM     10  C   UNL     1     -10.239   6.552 129.794  0.00  0.00    +0.000 A 
ATOM     11  C   UNL     1     -11.256   7.073 128.939  0.00  0.00    +0.000 A 
BRANCH  11  12
ATOM     12  C   UNL     1     -10.840   7.328 127.514  0.00  0.00    +0.000 C 
ATOM     13  F   UNL     1      -9.744   6.597 127.158  0.00  0.00    +0.000 F 
ATOM     14  F   UNL     1     -11.824   6.961 126.644  0.00  0.00    +0.000 F 
ATOM     15  F   UNL     1     -10.502   8.604 127.194  0.00  0.00    +0.000 F 
ENDBRANCH  11  12
BRANCH   6  16
ATOM     16  O   UNL     1     -13.580   7.885 128.810  0.00  0.00    +0.000 OA
BRANCH  16  18
ATOM     17  C   UNL     1     -13.240  10.128 129.630  0.00  0.00    +0.000 C 
ATOM     18  C   UNL     1     -13.474   9.258 128.398  0.00  0.00    +0.000 C 
ENDBRANCH  16  18
ENDBRANCH   6  16
ENDBRANCH   1   9
BRANCH   5  19
ATOM     19  C   UNL     1      -8.402   4.188 130.399  0.00  0.00    +0.000 A 
ATOM     20  C   UNL     1      -7.505   4.641 129.440  0.00  0.00    +0.000 A 
ATOM     21  C   UNL     1      -7.403   3.920 128.265  0.00  0.00    +0.000 A 
ATOM     22  C   UNL     1      -8.202   2.791 128.082  0.00  0.00    +0.000 A 
ATOM     23  N   UNL     1      -9.095   2.365 129.005  0.00  0.00    +0.000 NA
ATOM     24  C   UNL     1      -9.178   3.065 130.148  0.00  0.00    +0.000 A 
BRANCH  22  25
ATOM     25  O   UNL     1      -8.164   1.987 126.980  0.00  0.00    +0.000 OA
ATOM     26  C   UNL     1      -6.963   2.031 126.226  0.00  0.00    +0.000 C 
ENDBRANCH  22  25
ENDBRANCH   5  19
BRANCH   4  27
ATOM     27  C   UNL     1      -6.394   3.651 132.742  0.00  0.00    +0.000 C 
BRANCH  27  28
ATOM     28  O   UNL     1      -5.263   4.373 132.281  0.00  0.00    +0.000 OA
ATOM     29  C   UNL     1      -4.453   3.741 131.312  0.00  0.00    +0.000 C 
ENDBRANCH  27  28
ENDBRANCH   4  27
TORSDOF 8
ENDMDL
MODEL 7
REMARK VINA RESULT:      -6.7      3.456      5.971
REMARK  Name = CHEMBL521789
REMARK  11 active torsions:
REMARK  status: ('A' for Active; 'I' for Inactive)
REMARK    1  A    between atoms: C_1  and  C_2
REMARK    2  A    between atoms: C_2  and  O_3
REMARK    3  A    between atoms: O_3  and  C_4
REMARK    4  A    between atoms: C_7  and  C_8
REMARK    5  A    between atoms: C_11  and  C_12
REMARK    6  A    between atoms: C_12  and  O_13
REMARK    7  A    between atoms: O_13  and  C_14
REMARK    8  A    between atoms: N_15  and  C_16
REMARK    9  A    between atoms: C_19  and  O_20
REMARK   10  A    between atoms: O_20  and  C_21
REMARK   11  A    between atoms: C_25  and  C_26
REMARK                            x       y       z     vdW  Elec       q    Type
REMARK                         _______ _______ _______ _____ _____    ______ ____
ROOT
ATOM      1  C   UNL     1      -8.062   4.238 127.167  0.00  0.00    +0.000 A 
ATOM      2  N   UNL     1      -8.690   5.329 127.560  0.00  0.00    +0.000 NA
ATOM      3  N   UNL     1      -8.993   5.211 128.908  0.00  0.00    +0.000 NA
ATOM      4  C   UNL     1      -8.528   4.057 129.347  0.00  0.00    +0.000 A 
ATOM      5  N   UNL     1      -7.958   3.393 128.266  0.00  0.00    +0.000 N 
ENDROOT
BRANCH   1   9
ATOM      6  C   UNL     1      -6.884   3.182 123.103  0.00  0.00    +0.000 A 
ATOM      7  C   UNL     1      -6.010   3.873 123.968  0.00  0.00    +0.000 A 
ATOM      8  C   UNL     1      -6.371   4.206 125.297  0.00  0.00    +0.000 A 
ATOM      9  C   UNL     1      -7.635   3.888 125.789  0.00  0.00    +0.000 A 
ATOM     10  C   UNL     1      -8.487   3.177 124.928  0.00  0.00    +0.000 A 
ATOM     11  C   UNL     1      -8.122   2.779 123.607  0.00  0.00    +0.000 A 
BRANCH  11  12
ATOM     12  C   UNL     1      -9.134   1.933 122.880  0.00  0.00    +0.000 C 
ATOM     13  F   UNL     1      -9.424   2.426 121.641  0.00  0.00    +0.000 F 
ATOM     14  F   UNL     1      -8.659   0.672 122.671  0.00  0.00    +0.000 F 
ATOM     15  F   UNL     1     -10.350   1.792 123.470  0.00  0.00    +0.000 F 
ENDBRANCH  11  12
BRANCH   6  16
ATOM     16  O   UNL     1      -6.352   2.815 121.892  0.00  0.00    +0.000 OA
BRANCH  16  18
ATOM     17  C   UNL     1      -6.808   4.152 119.936  0.00  0.00    +0.000 C 
ATOM     18  C   UNL     1      -5.803   3.834 121.040  0.00  0.00    +0.000 C 
ENDBRANCH  16  18
ENDBRANCH   6  16
ENDBRANCH   1   9
BRANCH   5  19
ATOM     19  C   UNL     1      -7.323   2.154 128.272  0.00  0.00    +0.000 A 
ATOM     20  C   UNL     1      -8.067   1.004 128.040  0.00  0.00    +0.000 A 
ATOM     21  C   UNL     1      -7.382  -0.191 127.918  0.00  0.00    +0.000 A 
ATOM     22  C   UNL     1      -5.992  -0.199 128.046  0.00  0.00    +0.000 A 
ATOM     23  N   UNL     1      -5.270   0.917 128.299  0.00  0.00    +0.000 NA
ATOM     24  C   UNL     1      -5.944   2.074 128.403  0.00  0.00    +0.000 A 
BRANCH  22  25
ATOM     25  O   UNL     1      -5.210  -1.309 127.914  0.00  0.00    +0.000 OA
ATOM     26  C   UNL     1      -4.795  -1.919 129.126  0.00  0.00    +0.000 C 
ENDBRANCH  22  25
ENDBRANCH   5  19
BRANCH   4  27
ATOM     27  C   UNL     1      -8.513   3.591 130.788  0.00  0.00    +0.000 C 
BRANCH  27  28
ATOM     28  O   UNL     1      -9.779   3.028 131.093  0.00  0.00    +0.000 OA
ATOM     29  C   UNL     1      -9.783   1.828 131.838  0.00  0.00    +0.000 C 
ENDBRANCH  27  28
ENDBRANCH   4  27
TORSDOF 8
ENDMDL
MODEL 8
REMARK VINA RESULT:      -6.6      5.161      6.675
REMARK  Name = CHEMBL521789
REMARK  11 active torsions:
REMARK  status: ('A' for Active; 'I' for Inactive)
REMARK    1  A    between atoms: C_1  and  C_2
REMARK    2  A    between atoms: C_2  and  O_3
REMARK    3  A    between atoms: O_3  and  C_4
REMARK    4  A    between atoms: C_7  and  C_8
REMARK    5  A    between atoms: C_11  and  C_12
REMARK    6  A    between atoms: C_12  and  O_13
REMARK    7  A    between atoms: O_13  and  C_14
REMARK    8  A    between atoms: N_15  and  C_16
REMARK    9  A    between atoms: C_19  and  O_20
REMARK   10  A    between atoms: O_20  and  C_21
REMARK   11  A    between atoms: C_25  and  C_26
REMARK                            x       y       z     vdW  Elec       q    Type
REMARK                         _______ _______ _______ _____ _____    ______ ____
ROOT
ATOM      1  C   UNL     1      -8.276  -2.653 127.629  0.00  0.00    +0.000 A 
ATOM      2  N   UNL     1      -9.151  -3.557 127.235  0.00  0.00    +0.000 NA
ATOM      3  N   UNL     1      -9.521  -3.283 125.928  0.00  0.00    +0.000 NA
ATOM      4  C   UNL     1      -8.853  -2.224 125.512  0.00  0.00    +0.000 A 
ATOM      5  N   UNL     1      -8.075  -1.773 126.572  0.00  0.00    +0.000 N 
ENDROOT
BRANCH   1   9
ATOM      6  C   UNL     1      -6.491  -2.266 131.590  0.00  0.00    +0.000 A 
ATOM      7  C   UNL     1      -7.323  -1.260 131.053  0.00  0.00    +0.000 A 
ATOM      8  C   UNL     1      -7.925  -1.380 129.778  0.00  0.00    +0.000 A 
ATOM      9  C   UNL     1      -7.683  -2.499 128.981  0.00  0.00    +0.000 A 
ATOM     10  C   UNL     1      -6.875  -3.504 129.536  0.00  0.00    +0.000 A 
ATOM     11  C   UNL     1      -6.308  -3.431 130.843  0.00  0.00    +0.000 A 
BRANCH  11  12
ATOM     12  C   UNL     1      -5.558  -4.657 131.296  0.00  0.00    +0.000 C 
ATOM     13  F   UNL     1      -4.208  -4.459 131.311  0.00  0.00    +0.000 F 
ATOM     14  F   UNL     1      -5.895  -4.991 132.574  0.00  0.00    +0.000 F 
ATOM     15  F   UNL     1      -5.717  -5.781 130.550  0.00  0.00    +0.000 F 
ENDBRANCH  11  12
BRANCH   6  16
ATOM     16  O   UNL     1      -6.084  -2.070 132.886  0.00  0.00    +0.000 OA
BRANCH  16  18
ATOM     17  C   UNL     1      -3.820  -1.322 132.523  0.00  0.00    +0.000 C 
ATOM     18  C   UNL     1      -5.165  -1.002 133.169  0.00  0.00    +0.000 C 
ENDBRANCH  16  18
ENDBRANCH   6  16
ENDBRANCH   1   9
BRANCH   5  19
ATOM     19  C   UNL     1      -7.192  -0.697 126.577  0.00  0.00    +0.000 A 
ATOM     20  C   UNL     1      -5.861  -0.903 126.237  0.00  0.00    +0.000 A 
ATOM     21  C   UNL     1      -5.048   0.209 126.121  0.00  0.00    +0.000 A 
ATOM     22  C   UNL     1      -5.583   1.476 126.361  0.00  0.00    +0.000 A 
ATOM     23  N   UNL     1      -6.872   1.674 126.719  0.00  0.00    +0.000 NA
ATOM     24  C   UNL     1      -7.656   0.589 126.816  0.00  0.00    +0.000 A 
BRANCH  22  25
ATOM     25  O   UNL     1      -4.885   2.644 126.246  0.00  0.00    +0.000 OA
ATOM     26  C   UNL     1      -5.361   3.552 125.265  0.00  0.00    +0.000 C 
ENDBRANCH  22  25
ENDBRANCH   5  19
BRANCH   4  27
ATOM     27  C   UNL     1      -8.846  -1.670 124.102  0.00  0.00    +0.000 C 
BRANCH  27  28
ATOM     28  O   UNL     1      -9.701  -0.539 124.058  0.00  0.00    +0.000 OA
ATOM     29  C   UNL     1      -9.185   0.629 123.454  0.00  0.00    +0.000 C 
ENDBRANCH  27  28
ENDBRANCH   4  27
TORSDOF 8
ENDMDL
MODEL 9
REMARK VINA RESULT:      -6.6      6.116      7.250
REMARK  Name = CHEMBL521789
REMARK  11 active torsions:
REMARK  status: ('A' for Active; 'I' for Inactive)
REMARK    1  A    between atoms: C_1  and  C_2
REMARK    2  A    between atoms: C_2  and  O_3
REMARK    3  A    between atoms: O_3  and  C_4
REMARK    4  A    between atoms: C_7  and  C_8
REMARK    5  A    between atoms: C_11  and  C_12
REMARK    6  A    between atoms: C_12  and  O_13
REMARK    7  A    between atoms: O_13  and  C_14
REMARK    8  A    between atoms: N_15  and  C_16
REMARK    9  A    between atoms: C_19  and  O_20
REMARK   10  A    between atoms: O_20  and  C_21
REMARK   11  A    between atoms: C_25  and  C_26
REMARK                            x       y       z     vdW  Elec       q    Type
REMARK                         _______ _______ _______ _____ _____    ______ ____
ROOT
ATOM      1  C   UNL     1      -9.938   3.893 130.427  0.00  0.00    +0.000 A 
ATOM      2  N   UNL     1     -11.232   3.931 130.176  0.00  0.00    +0.000 NA
ATOM      3  N   UNL     1     -11.581   5.222 129.809  0.00  0.00    +0.000 NA
ATOM      4  C   UNL     1     -10.494   5.970 129.812  0.00  0.00    +0.000 A 
ATOM      5  N   UNL     1      -9.434   5.174 130.229  0.00  0.00    +0.000 N 
ENDROOT
BRANCH   1   9
ATOM      6  C   UNL     1      -7.610   0.498 131.866  0.00  0.00    +0.000 A 
ATOM      7  C   UNL     1      -8.100   1.484 132.748  0.00  0.00    +0.000 A 
ATOM      8  C   UNL     1      -8.874   2.581 132.299  0.00  0.00    +0.000 A 
ATOM      9  C   UNL     1      -9.151   2.746 130.942  0.00  0.00    +0.000 A 
ATOM     10  C   UNL     1      -8.680   1.745 130.077  0.00  0.00    +0.000 A 
ATOM     11  C   UNL     1      -7.951   0.599 130.516  0.00  0.00    +0.000 A 
BRANCH  11  12
ATOM     12  C   UNL     1      -7.626  -0.413 129.449  0.00  0.00    +0.000 C 
ATOM     13  F   UNL     1      -8.283  -1.593 129.640  0.00  0.00    +0.000 F 
ATOM     14  F   UNL     1      -8.015   0.030 128.219  0.00  0.00    +0.000 F 
ATOM     15  F   UNL     1      -6.322  -0.779 129.330  0.00  0.00    +0.000 F 
ENDBRANCH  11  12
BRANCH   6  16
ATOM     16  O   UNL     1      -6.988  -0.572 132.459  0.00  0.00    +0.000 OA
BRANCH  16  18
ATOM     17  C   UNL     1      -7.236  -2.972 132.448  0.00  0.00    +0.000 C 
ATOM     18  C   UNL     1      -7.795  -1.649 132.964  0.00  0.00    +0.000 C 
ENDBRANCH  16  18
ENDBRANCH   6  16
ENDBRANCH   1   9
BRANCH   5  19
ATOM     19  C   UNL     1      -8.097   5.541 130.356  0.00  0.00    +0.000 A 
ATOM     20  C   UNL     1      -7.693   6.284 131.457  0.00  0.00    +0.000 A 
ATOM     21  C   UNL     1      -6.339   6.512 131.618  0.00  0.00    +0.000 A 
ATOM     22  C   UNL     1      -5.443   6.007 130.673  0.00  0.00    +0.000 A 
ATOM     23  N   UNL     1      -5.839   5.306 129.586  0.00  0.00    +0.000 NA
ATOM     24  C   UNL     1      -7.156   5.080 129.446  0.00  0.00    +0.000 A 
BRANCH  22  25
ATOM     25  O   UNL     1      -4.088   6.142 130.745  0.00  0.00    +0.000 OA
ATOM     26  C   UNL     1      -3.448   6.585 129.558  0.00  0.00    +0.000 C 
ENDBRANCH  22  25
ENDBRANCH   5  19
BRANCH   4  27
ATOM     27  C   UNL     1     -10.397   7.405 129.333  0.00  0.00    +0.000 C 
BRANCH  27  28
ATOM     28  O   UNL     1     -11.630   8.053 129.602  0.00  0.00    +0.000 OA
ATOM     29  C   UNL     1     -12.298   8.636 128.502  0.00  0.00    +0.000 C 
ENDBRANCH  27  28
ENDBRANCH   4  27
TORSDOF 8
ENDMDL
