MODEL 1
REMARK VINA RESULT:     -11.3      0.000      0.000
REMARK  Name = CHEMBL1790717
REMARK  26 active torsions:
REMARK  status: ('A' for Active; 'I' for Inactive)
REMARK    1  A    between atoms: C_1  and  C_2
REMARK    2  A    between atoms: C_2  and  C_3
REMARK    3  A    between atoms: C_3  and  C_4
REMARK    4  A    between atoms: C_3  and  C_5
REMARK    5  A    between atoms: C_9  and  C_10
REMARK    6  A    between atoms: C_13  and  O_14
REMARK    7  A    between atoms: C_20  and  O_21
REMARK    8  A    between atoms: C_26  and  C_27
REMARK    9  A    between atoms: C_33  and  C_34
REMARK   10  A    between atoms: N_36  and  C_37
REMARK   11  A    between atoms: C_37  and  C_38
REMARK   12  A    between atoms: C_37  and  C_70
REMARK   13  A    between atoms: C_38  and  C_39
REMARK   14  A    between atoms: C_39  and  C_40
REMARK   15  A    between atoms: C_40  and  C_41
REMARK   16  A    between atoms: C_41  and  N_42
REMARK   17  A    between atoms: C_43  and  C_45
REMARK   18  A    between atoms: C_58  and  O_59
REMARK   19  A    between atoms: C_65  and  O_66
REMARK   20  A    between atoms: N_72  and  C_73
REMARK   21  A    between atoms: C_73  and  N_74
REMARK   22  A    between atoms: C_78  and  C_79
REMARK   23  A    between atoms: C_79  and  C_80
REMARK   24  A    between atoms: C_86  and  C_87
REMARK   25  A    between atoms: C_87  and  C_88
REMARK   26  A    between atoms: C_88  and  C_89
REMARK                            x       y       z     vdW  Elec       q    Type
REMARK                         _______ _______ _______ _____ _____    ______ ____
ROOT
ATOM      1  C   UNL     1      -6.543  -1.461 136.318  0.00  0.00    +0.000 C 
ATOM      2  N   UNL     1      -5.524   0.470 136.431  0.00  0.00    +0.000 N 
ATOM      3  C   UNL     1      -4.750   2.386 136.464  0.00  0.00    +0.000 C 
ATOM      4  O   UNL     1      -3.402   2.964 136.777  0.00  0.00    +0.000 OA
ATOM      5  C   UNL     1      -4.727   4.413 135.739  0.00  0.00    +0.000 C 
ATOM      6  N   UNL     1      -4.343   5.085 134.163  0.00  0.00    +0.000 N 
ATOM      7  C   UNL     1      -3.751   4.264 133.247  0.00  0.00    +0.000 C 
ATOM      8  O   UNL     1      -3.645   4.512 132.054  0.00  0.00    +0.000 OA
ATOM      9  C   UNL     1      -3.334   2.897 133.708  0.00  0.00    +0.000 C 
ATOM     10  C   UNL     1      -4.197   1.750 133.393  0.00  0.00    +0.000 C 
ATOM     11  S   UNL     1      -3.563   1.750 131.855  0.00  0.00    +0.000 S 
ATOM     12  S   UNL     1      -4.324  -0.144 131.749  0.00  0.00    +0.000 S 
ATOM     13  C   UNL     1      -4.549  -0.764 129.201  0.00  0.00    +0.000 C 
ATOM     14  C   UNL     1      -5.507  -1.509 128.432  0.00  0.00    +0.000 C 
ATOM     15  N   UNL     1      -5.418  -2.646 129.102  0.00  0.00    +0.000 N 
ATOM     16  C   UNL     1      -5.882  -2.666 130.313  0.00  0.00    +0.000 C 
ATOM     17  O   UNL     1      -5.970  -3.888 130.382  0.00  0.00    +0.000 OA
ATOM     18  C   UNL     1      -6.173  -1.584 131.486  0.00  0.00    +0.000 C 
ATOM     19  N   UNL     1      -7.225  -2.004 132.319  0.00  0.00    +0.000 N 
ATOM     20  C   UNL     1      -7.185  -3.025 133.240  0.00  0.00    +0.000 C 
ATOM     21  O   UNL     1      -8.270  -3.370 133.703  0.00  0.00    +0.000 OA
ATOM     22  C   UNL     1      -5.832  -3.730 133.777  0.00  0.00    +0.000 C 
ATOM     23  N   UNL     1      -5.458  -3.656 135.218  0.00  0.00    +0.000 N 
ATOM     24  C   UNL     1      -5.932  -3.095 136.369  0.00  0.00    +0.000 C 
ATOM     25  O   UNL     1      -5.995  -3.857 137.348  0.00  0.00    +0.000 OA
ATOM     26  H   UNL     1      -4.748   1.257 137.128  0.00  0.00    +0.000 HD
ATOM     27  H   UNL     1      -4.626   6.021 133.691  0.00  0.00    +0.000 HD
ATOM     28  H   UNL     1      -4.727  -3.391 128.923  0.00  0.00    +0.000 HD
ATOM     29  H   UNL     1      -8.081  -1.565 132.046  0.00  0.00    +0.000 HD
ATOM     30  H   UNL     1      -4.619  -3.128 135.284  0.00  0.00    +0.000 HD
ENDROOT
BRANCH  14  31
ATOM     31  C   UNL     1      -6.979  -1.127 128.415  0.00  0.00    +0.000 C 
ATOM     32  O   UNL     1      -7.557  -0.473 129.303  0.00  0.00    +0.000 OA
ATOM     33  N   UNL     1      -7.756  -1.721 127.469  0.00  0.00    +0.000 N 
ATOM     34  C   UNL     1      -7.603  -2.939 126.668  0.00  0.00    +0.000 C 
ATOM     35  C   UNL     1      -7.900  -2.430 125.297  0.00  0.00    +0.000 C 
ATOM     36  C   UNL     1      -9.067  -1.475 125.570  0.00  0.00    +0.000 C 
ATOM     37  C   UNL     1      -8.817  -0.901 126.984  0.00  0.00    +0.000 C 
BRANCH  37  38
ATOM     38  C   UNL     1      -8.314   0.543 126.902  0.00  0.00    +0.000 C 
ATOM     39  O   UNL     1      -9.050   1.404 127.381  0.00  0.00    +0.000 OA
ATOM     40  N   UNL     1      -7.091   0.834 126.289  0.00  0.00    +0.000 N 
ATOM     41  H   UNL     1      -6.622   0.109 125.712  0.00  0.00    +0.000 HD
BRANCH  40  42
ATOM     42  C   UNL     1      -6.473   2.169 126.208  0.00  0.00    +0.000 C 
BRANCH  42  43
ATOM     43  C   UNL     1      -6.995   3.008 124.984  0.00  0.00    +0.000 C 
ATOM     44  O   UNL     1      -7.790   3.931 125.172  0.00  0.00    +0.000 OA
ATOM     45  N   UNL     1      -6.548   2.672 123.698  0.00  0.00    +0.000 N 
ATOM     46  H   UNL     1      -5.916   1.901 123.537  0.00  0.00    +0.000 HD
BRANCH  45  47
ATOM     47  C   UNL     1      -7.016   3.409 122.543  0.00  0.00    +0.000 C 
BRANCH  47  48
ATOM     48  N   UNL     1      -8.470   3.387 122.503  0.00  0.00    +0.000 NA
ATOM     49  H   UNL     1      -8.850   3.734 123.381  0.00  0.00    +0.000 HD
ATOM     50  H   UNL     1      -8.779   2.406 122.456  0.00  0.00    +0.000 HD
ENDBRANCH  47  48
ENDBRANCH  45  47
ENDBRANCH  42  43
BRANCH  42  51
ATOM     51  C   UNL     1      -4.973   1.964 126.078  0.00  0.00    +0.000 C 
BRANCH  51  52
ATOM     52  C   UNL     1      -4.227   2.402 127.318  0.00  0.00    +0.000 C 
BRANCH  52  53
ATOM     53  C   UNL     1      -2.789   2.729 127.099  0.00  0.00    +0.000 C 
BRANCH  53  54
ATOM     54  C   UNL     1      -2.602   4.180 126.640  0.00  0.00    +0.000 C 
BRANCH  54  55
ATOM     55  N   UNL     1      -2.452   5.119 127.825  0.00  0.00    +0.000 N 
ATOM     56  C   UNL     1      -3.461   6.059 128.239  0.00  0.00    +0.000 C 
ATOM     57  O   UNL     1      -4.483   6.028 127.527  0.00  0.00    +0.000 OA
ATOM     58  H   UNL     1      -1.575   5.026 128.299  0.00  0.00    +0.000 HD
BRANCH  56  59
ATOM     59  C   UNL     1      -3.452   7.211 129.586  0.00  0.00    +0.000 A 
ATOM     60  C   UNL     1      -2.593   6.957 130.502  0.00  0.00    +0.000 A 
ATOM     61  C   UNL     1      -2.558   7.925 131.824  0.00  0.00    +0.000 A 
ATOM     62  C   UNL     1      -1.760   7.798 132.648  0.00  0.00    +0.000 A 
ATOM     63  C   UNL     1      -2.602   8.657 132.452  0.00  0.00    +0.000 A 
ATOM     64  C   UNL     1      -3.618   8.275 130.580  0.00  0.00    +0.000 A 
ATOM     65  C   UNL     1      -1.423   8.846 134.238  0.00  0.00    +0.000 C 
ATOM     66  O   UNL     1      -0.188   8.348 133.612  0.00  0.00    +0.000 OA
ATOM     67  C   UNL     1      -0.643   7.225 133.016  0.00  0.00    +0.000 C 
ATOM     68  O   UNL     1      -0.425   6.316 132.238  0.00  0.00    +0.000 OA
ATOM     69  C   UNL     1      -1.773  10.145 135.424  0.00  0.00    +0.000 A 
ATOM     70  C   UNL     1      -1.772  11.462 135.014  0.00  0.00    +0.000 A 
ATOM     71  C   UNL     1      -2.174  12.533 135.857  0.00  0.00    +0.000 A 
ATOM     72  C   UNL     1      -2.476  12.322 137.200  0.00  0.00    +0.000 A 
ATOM     73  C   UNL     1      -2.317  11.061 137.742  0.00  0.00    +0.000 A 
ATOM     74  C   UNL     1      -1.971   9.989 136.884  0.00  0.00    +0.000 A 
ATOM     75  O   UNL     1      -1.850   8.782 137.533  0.00  0.00    +0.000 OA
ATOM     76  C   UNL     1      -0.759   8.099 137.073  0.00  0.00    +0.000 A 
ATOM     77  C   UNL     1      -0.393   6.895 137.909  0.00  0.00    +0.000 A 
ATOM     78  C   UNL     1       0.825   6.220 137.907  0.00  0.00    +0.000 A 
ATOM     79  C   UNL     1       1.843   6.966 137.386  0.00  0.00    +0.000 A 
ATOM     80  C   UNL     1       1.433   8.172 136.452  0.00  0.00    +0.000 A 
ATOM     81  C   UNL     1      -0.159   8.448 135.823  0.00  0.00    +0.000 A 
BRANCH  78  82
ATOM     82  O   UNL     1       1.008   4.933 138.331  0.00  0.00    +0.000 OA
ATOM     83  H   UNL     1       0.401   4.285 137.918  0.00  0.00    +0.000 HD
ENDBRANCH  78  82
BRANCH  72  84
ATOM     84  O   UNL     1      -2.935  13.298 138.039  0.00  0.00    +0.000 OA
ATOM     85  H   UNL     1      -3.866  13.180 138.286  0.00  0.00    +0.000 HD
ENDBRANCH  72  84
ENDBRANCH  56  59
ENDBRANCH  54  55
ENDBRANCH  53  54
ENDBRANCH  52  53
ENDBRANCH  51  52
ENDBRANCH  42  51
ENDBRANCH  40  42
ENDBRANCH  37  38
ENDBRANCH  14  31
BRANCH   5  86
ATOM     86  C   UNL     1      -6.128   4.251 135.803  0.00  0.00    +0.000 A 
ATOM     87  C   UNL     1      -6.447   3.856 134.503  0.00  0.00    +0.000 A 
ATOM     88  C   UNL     1      -7.417   4.628 133.926  0.00  0.00    +0.000 A 
ATOM     89  C   UNL     1      -8.012   5.660 134.671  0.00  0.00    +0.000 A 
ATOM     90  C   UNL     1      -7.560   6.039 135.930  0.00  0.00    +0.000 A 
ATOM     91  C   UNL     1      -6.643   5.277 136.564  0.00  0.00    +0.000 A 
BRANCH  89  92
ATOM     92  O   UNL     1      -9.047   6.402 134.213  0.00  0.00    +0.000 OA
ATOM     93  H   UNL     1      -9.445   6.912 134.931  0.00  0.00    +0.000 HD
ENDBRANCH  89  92
ENDBRANCH   5  86
BRANCH   1  94
ATOM     94  C   UNL     1      -7.905  -3.338 136.426  0.00  0.00    +0.000 C 
ATOM     95  C   UNL     1      -8.069  -5.240 135.695  0.00  0.00    +0.000 C 
BRANCH  94  97
ATOM     96  C   UNL     1     -10.062  -3.313 137.843  0.00  0.00    +0.000 C 
ATOM     97  C   UNL     1      -9.591  -4.390 137.027  0.00  0.00    +0.000 C 
ENDBRANCH  94  97
ENDBRANCH   1  94
BRANCH   9  98
ATOM     98  O   UNL     1      -3.709   2.572 134.898  0.00  0.00    +0.000 OA
ATOM     99  H   UNL     1      -2.843   2.365 135.261  0.00  0.00    +0.000 HD
ENDBRANCH   9  98
BRANCH  18 100
ATOM    100  C   UNL     1      -6.325  -0.251 130.753  0.00  0.00    +0.000 C 
BRANCH 100 101
ATOM    101  C   UNL     1      -7.358   1.297 131.416  0.00  0.00    +0.000 C 
ATOM    102  N   UNL     1      -7.641   2.515 129.941  0.00  0.00    +0.000 N 
ATOM    103  O   UNL     1      -7.958   1.426 132.447  0.00  0.00    +0.000 OA
ATOM    104  H   UNL     1      -6.914   2.159 129.088  0.00  0.00    +0.000 HD
ATOM    105  H   UNL     1      -8.126   3.294 129.690  0.00  0.00    +0.000 HD
ENDBRANCH 100 101
ENDBRANCH  18 100
BRANCH  22 106
ATOM    106  C   UNL     1      -4.495  -3.279 133.139  0.00  0.00    +0.000 C 
BRANCH 106 107
ATOM    107  C   UNL     1      -3.555  -4.418 132.995  0.00  0.00    +0.000 C 
BRANCH 107 108
ATOM    108  C   UNL     1      -2.617  -4.830 134.240  0.00  0.00    +0.000 C 
ATOM    109  N   UNL     1      -1.342  -4.425 134.082  0.00  0.00    +0.000 N 
ATOM    110  O   UNL     1      -2.812  -5.527 135.239  0.00  0.00    +0.000 OA
ATOM    111  H   UNL     1      -1.011  -4.145 133.173  0.00  0.00    +0.000 HD
ATOM    112  H   UNL     1      -0.672  -4.791 134.755  0.00  0.00    +0.000 HD
ENDBRANCH 107 108
ENDBRANCH 106 107
ENDBRANCH  22 106
TORSDOF 24
ENDMDL
MODEL 2
REMARK VINA RESULT:     -11.1      1.852      2.238
REMARK  Name = CHEMBL1790717
REMARK  26 active torsions:
REMARK  status: ('A' for Active; 'I' for Inactive)
REMARK    1  A    between atoms: C_1  and  C_2
REMARK    2  A    between atoms: C_2  and  C_3
REMARK    3  A    between atoms: C_3  and  C_4
REMARK    4  A    between atoms: C_3  and  C_5
REMARK    5  A    between atoms: C_9  and  C_10
REMARK    6  A    between atoms: C_13  and  O_14
REMARK    7  A    between atoms: C_20  and  O_21
REMARK    8  A    between atoms: C_26  and  C_27
REMARK    9  A    between atoms: C_33  and  C_34
REMARK   10  A    between atoms: N_36  and  C_37
REMARK   11  A    between atoms: C_37  and  C_38
REMARK   12  A    between atoms: C_37  and  C_70
REMARK   13  A    between atoms: C_38  and  C_39
REMARK   14  A    between atoms: C_39  and  C_40
REMARK   15  A    between atoms: C_40  and  C_41
REMARK   16  A    between atoms: C_41  and  N_42
REMARK   17  A    between atoms: C_43  and  C_45
REMARK   18  A    between atoms: C_58  and  O_59
REMARK   19  A    between atoms: C_65  and  O_66
REMARK   20  A    between atoms: N_72  and  C_73
REMARK   21  A    between atoms: C_73  and  N_74
REMARK   22  A    between atoms: C_78  and  C_79
REMARK   23  A    between atoms: C_79  and  C_80
REMARK   24  A    between atoms: C_86  and  C_87
REMARK   25  A    between atoms: C_87  and  C_88
REMARK   26  A    between atoms: C_88  and  C_89
REMARK                            x       y       z     vdW  Elec       q    Type
REMARK                         _______ _______ _______ _____ _____    ______ ____
ROOT
ATOM      1  C   UNL     1      -5.387   0.010 137.856  0.00  0.00    +0.000 C 
ATOM      2  N   UNL     1      -4.807   2.096 138.153  0.00  0.00    +0.000 N 
ATOM      3  C   UNL     1      -4.465   4.123 138.374  0.00  0.00    +0.000 C 
ATOM      4  O   UNL     1      -3.263   4.949 138.721  0.00  0.00    +0.000 OA
ATOM      5  C   UNL     1      -4.912   6.167 137.867  0.00  0.00    +0.000 C 
ATOM      6  N   UNL     1      -4.749   7.059 136.364  0.00  0.00    +0.000 N 
ATOM      7  C   UNL     1      -4.032   6.484 135.356  0.00  0.00    +0.000 C 
ATOM      8  O   UNL     1      -4.031   6.866 134.193  0.00  0.00    +0.000 OA
ATOM      9  C   UNL     1      -3.310   5.203 135.661  0.00  0.00    +0.000 C 
ATOM     10  C   UNL     1      -3.916   3.931 135.243  0.00  0.00    +0.000 C 
ATOM     11  S   UNL     1      -3.361   4.223 133.703  0.00  0.00    +0.000 S 
ATOM     12  S   UNL     1      -3.697   2.228 133.411  0.00  0.00    +0.000 S 
ATOM     13  C   UNL     1      -3.887   1.829 130.817  0.00  0.00    +0.000 C 
ATOM     14  C   UNL     1      -4.691   0.972 129.991  0.00  0.00    +0.000 C 
ATOM     15  N   UNL     1      -4.331  -0.179 130.536  0.00  0.00    +0.000 N 
ATOM     16  C   UNL     1      -4.728  -0.420 131.746  0.00  0.00    +0.000 C 
ATOM     17  O   UNL     1      -4.547  -1.633 131.687  0.00  0.00    +0.000 OA
ATOM     18  C   UNL     1      -5.199   0.449 133.032  0.00  0.00    +0.000 C 
ATOM     19  N   UNL     1      -6.100  -0.271 133.836  0.00  0.00    +0.000 N 
ATOM     20  C   UNL     1      -5.801  -1.344 134.642  0.00  0.00    +0.000 C 
ATOM     21  O   UNL     1      -6.765  -1.964 135.086  0.00  0.00    +0.000 OA
ATOM     22  C   UNL     1      -4.306  -1.784 135.076  0.00  0.00    +0.000 C 
ATOM     23  N   UNL     1      -3.898  -1.773 136.510  0.00  0.00    +0.000 N 
ATOM     24  C   UNL     1      -4.434  -1.447 137.723  0.00  0.00    +0.000 C 
ATOM     25  O   UNL     1      -4.291  -2.297 138.617  0.00  0.00    +0.000 OA
ATOM     26  H   UNL     1      -4.191   2.961 138.915  0.00  0.00    +0.000 HD
ATOM     27  H   UNL     1      -5.248   7.953 135.999  0.00  0.00    +0.000 HD
ATOM     28  H   UNL     1      -3.503  -0.732 130.266  0.00  0.00    +0.000 HD
ATOM     29  H   UNL     1      -7.041  -0.007 133.626  0.00  0.00    +0.000 HD
ATOM     30  H   UNL     1      -3.192  -1.083 136.616  0.00  0.00    +0.000 HD
ENDROOT
BRANCH  14  31
ATOM     31  C   UNL     1      -6.211   1.020 130.042  0.00  0.00    +0.000 C 
ATOM     32  O   UNL     1      -6.878   1.872 130.659  0.00  0.00    +0.000 OA
ATOM     33  N   UNL     1      -6.876  -0.062 129.553  0.00  0.00    +0.000 N 
ATOM     34  C   UNL     1      -6.483  -1.453 129.310  0.00  0.00    +0.000 C 
ATOM     35  C   UNL     1      -6.967  -1.657 127.914  0.00  0.00    +0.000 C 
ATOM     36  C   UNL     1      -8.310  -0.920 127.943  0.00  0.00    +0.000 C 
ATOM     37  C   UNL     1      -8.126   0.247 128.941  0.00  0.00    +0.000 C 
BRANCH  37  38
ATOM     38  C   UNL     1      -7.985   1.579 128.198  0.00  0.00    +0.000 C 
ATOM     39  O   UNL     1      -8.692   2.503 128.596  0.00  0.00    +0.000 OA
ATOM     40  N   UNL     1      -7.107   1.697 127.115  0.00  0.00    +0.000 N 
ATOM     41  H   UNL     1      -6.707   0.840 126.685  0.00  0.00    +0.000 HD
BRANCH  40  42
ATOM     42  C   UNL     1      -6.837   2.937 126.367  0.00  0.00    +0.000 C 
BRANCH  42  43
ATOM     43  C   UNL     1      -7.881   3.194 125.218  0.00  0.00    +0.000 C 
ATOM     44  O   UNL     1      -8.842   3.939 125.424  0.00  0.00    +0.000 OA
ATOM     45  N   UNL     1      -7.696   2.554 123.985  0.00  0.00    +0.000 N 
ATOM     46  H   UNL     1      -6.924   1.925 123.820  0.00  0.00    +0.000 HD
BRANCH  45  47
ATOM     47  C   UNL     1      -8.642   2.752 122.907  0.00  0.00    +0.000 C 
BRANCH  47  48
ATOM     48  N   UNL     1      -9.862   2.008 123.180  0.00  0.00    +0.000 NA
ATOM     49  H   UNL     1      -9.638   1.129 123.642  0.00  0.00    +0.000 HD
ATOM     50  H   UNL     1     -10.281   1.730 122.282  0.00  0.00    +0.000 HD
ENDBRANCH  47  48
ENDBRANCH  45  47
ENDBRANCH  42  43
BRANCH  42  51
ATOM     51  C   UNL     1      -5.447   2.807 125.766  0.00  0.00    +0.000 C 
BRANCH  51  52
ATOM     52  C   UNL     1      -4.543   1.932 126.605  0.00  0.00    +0.000 C 
BRANCH  52  53
ATOM     53  C   UNL     1      -3.292   2.594 127.073  0.00  0.00    +0.000 C 
BRANCH  53  54
ATOM     54  C   UNL     1      -3.087   3.956 126.400  0.00  0.00    +0.000 C 
BRANCH  54  55
ATOM     55  N   UNL     1      -2.795   5.040 127.425  0.00  0.00    +0.000 N 
ATOM     56  C   UNL     1      -3.788   5.945 127.941  0.00  0.00    +0.000 C 
ATOM     57  O   UNL     1      -4.923   5.754 127.465  0.00  0.00    +0.000 OA
ATOM     58  H   UNL     1      -1.837   5.069 127.712  0.00  0.00    +0.000 HD
BRANCH  56  59
ATOM     59  C   UNL     1      -3.622   7.249 129.131  0.00  0.00    +0.000 A 
ATOM     60  C   UNL     1      -2.875   6.967 130.134  0.00  0.00    +0.000 A 
ATOM     61  C   UNL     1      -2.719   8.083 131.324  0.00  0.00    +0.000 A 
ATOM     62  C   UNL     1      -2.002   7.924 132.215  0.00  0.00    +0.000 A 
ATOM     63  C   UNL     1      -2.651   8.889 131.850  0.00  0.00    +0.000 A 
ATOM     64  C   UNL     1      -3.628   8.450 129.970  0.00  0.00    +0.000 A 
ATOM     65  C   UNL     1      -1.548   9.098 133.683  0.00  0.00    +0.000 C 
ATOM     66  O   UNL     1      -0.404   8.299 133.217  0.00  0.00    +0.000 OA
ATOM     67  C   UNL     1      -1.038   7.209 132.734  0.00  0.00    +0.000 C 
ATOM     68  O   UNL     1      -0.962   6.178 132.094  0.00  0.00    +0.000 OA
ATOM     69  C   UNL     1      -1.698  10.590 134.667  0.00  0.00    +0.000 A 
ATOM     70  C   UNL     1      -1.420  11.815 134.098  0.00  0.00    +0.000 A 
ATOM     71  C   UNL     1      -1.648  13.046 134.768  0.00  0.00    +0.000 A 
ATOM     72  C   UNL     1      -2.053  13.082 136.100  0.00  0.00    +0.000 A 
ATOM     73  C   UNL     1      -2.169  11.898 136.806  0.00  0.00    +0.000 A 
ATOM     74  C   UNL     1      -1.995  10.674 136.116  0.00  0.00    +0.000 A 
ATOM     75  O   UNL     1      -2.143   9.566 136.918  0.00  0.00    +0.000 OA
ATOM     76  C   UNL     1      -1.184   8.636 136.630  0.00  0.00    +0.000 A 
ATOM     77  C   UNL     1      -1.100   7.511 137.635  0.00  0.00    +0.000 A 
ATOM     78  C   UNL     1      -0.039   6.626 137.808  0.00  0.00    +0.000 A 
ATOM     79  C   UNL     1       1.129   7.092 137.276  0.00  0.00    +0.000 A 
ATOM     80  C   UNL     1       1.009   8.214 136.171  0.00  0.00    +0.000 A 
ATOM     81  C   UNL     1      -0.466   8.693 135.395  0.00  0.00    +0.000 A 
BRANCH  78  82
ATOM     82  O   UNL     1      -0.131   5.398 138.401  0.00  0.00    +0.000 OA
ATOM     83  H   UNL     1      -0.122   5.425 139.379  0.00  0.00    +0.000 HD
ENDBRANCH  78  82
BRANCH  72  84
ATOM     84  O   UNL     1      -2.354  14.231 136.774  0.00  0.00    +0.000 OA
ATOM     85  H   UNL     1      -1.812  14.987 136.499  0.00  0.00    +0.000 HD
ENDBRANCH  72  84
ENDBRANCH  56  59
ENDBRANCH  54  55
ENDBRANCH  53  54
ENDBRANCH  52  53
ENDBRANCH  51  52
ENDBRANCH  42  51
ENDBRANCH  40  42
ENDBRANCH  37  38
ENDBRANCH  14  31
BRANCH   5  86
ATOM     86  C   UNL     1      -6.241   5.695 137.939  0.00  0.00    +0.000 A 
ATOM     87  C   UNL     1      -6.673   5.800 136.617  0.00  0.00    +0.000 A 
ATOM     88  C   UNL     1      -7.834   6.511 136.481  0.00  0.00    +0.000 A 
ATOM     89  C   UNL     1      -8.481   6.999 137.628  0.00  0.00    +0.000 A 
ATOM     90  C   UNL     1      -7.923   6.925 138.899  0.00  0.00    +0.000 A 
ATOM     91  C   UNL     1      -6.809   6.188 139.094  0.00  0.00    +0.000 A 
BRANCH  89  92
ATOM     92  O   UNL     1      -9.684   7.621 137.592  0.00  0.00    +0.000 OA
ATOM     93  H   UNL     1     -10.138   7.535 138.440  0.00  0.00    +0.000 HD
ENDBRANCH  89  92
ENDBRANCH   5  86
BRANCH   1  94
ATOM     94  C   UNL     1      -6.303  -2.122 137.791  0.00  0.00    +0.000 C 
ATOM     95  C   UNL     1      -5.836  -4.050 137.299  0.00  0.00    +0.000 C 
BRANCH  94  97
ATOM     96  C   UNL     1      -8.826  -2.480 138.207  0.00  0.00    +0.000 C 
ATOM     97  C   UNL     1      -7.846  -3.499 137.985  0.00  0.00    +0.000 C 
ENDBRANCH  94  97
ENDBRANCH   1  94
BRANCH   9  98
ATOM     98  O   UNL     1      -3.555   4.688 136.817  0.00  0.00    +0.000 OA
ATOM     99  H   UNL     1      -3.123   5.355 137.358  0.00  0.00    +0.000 HD
ENDBRANCH   9  98
BRANCH  18 100
ATOM    100  C   UNL     1      -5.667   1.783 132.446  0.00  0.00    +0.000 C 
BRANCH 100 101
ATOM    101  C   UNL     1      -7.054   2.944 133.238  0.00  0.00    +0.000 C 
ATOM    102  N   UNL     1      -6.719   4.763 132.672  0.00  0.00    +0.000 N 
ATOM    103  O   UNL     1      -8.088   2.644 133.766  0.00  0.00    +0.000 OA
ATOM    104  H   UNL     1      -5.635   4.761 132.214  0.00  0.00    +0.000 HD
ATOM    105  H   UNL     1      -7.104   5.633 132.665  0.00  0.00    +0.000 HD
ENDBRANCH 100 101
ENDBRANCH  18 100
BRANCH  22 106
ATOM    106  C   UNL     1      -3.126  -0.990 134.465  0.00  0.00    +0.000 C 
BRANCH 106 107
ATOM    107  C   UNL     1      -2.070  -1.899 133.957  0.00  0.00    +0.000 C 
BRANCH 107 108
ATOM    108  C   UNL     1      -0.898  -2.382 134.951  0.00  0.00    +0.000 C 
ATOM    109  N   UNL     1      -0.050  -3.251 134.367  0.00  0.00    +0.000 N 
ATOM    110  O   UNL     1      -0.693  -2.200 136.154  0.00  0.00    +0.000 OA
ATOM    111  H   UNL     1      -0.311  -3.712 133.511  0.00  0.00    +0.000 HD
ATOM    112  H   UNL     1       0.614  -3.711 134.987  0.00  0.00    +0.000 HD
ENDBRANCH 107 108
ENDBRANCH 106 107
ENDBRANCH  22 106
TORSDOF 24
ENDMDL
MODEL 3
REMARK VINA RESULT:     -11.0      2.240      3.291
REMARK  Name = CHEMBL1790717
REMARK  26 active torsions:
REMARK  status: ('A' for Active; 'I' for Inactive)
REMARK    1  A    between atoms: C_1  and  C_2
REMARK    2  A    between atoms: C_2  and  C_3
REMARK    3  A    between atoms: C_3  and  C_4
REMARK    4  A    between atoms: C_3  and  C_5
REMARK    5  A    between atoms: C_9  and  C_10
REMARK    6  A    between atoms: C_13  and  O_14
REMARK    7  A    between atoms: C_20  and  O_21
REMARK    8  A    between atoms: C_26  and  C_27
REMARK    9  A    between atoms: C_33  and  C_34
REMARK   10  A    between atoms: N_36  and  C_37
REMARK   11  A    between atoms: C_37  and  C_38
REMARK   12  A    between atoms: C_37  and  C_70
REMARK   13  A    between atoms: C_38  and  C_39
REMARK   14  A    between atoms: C_39  and  C_40
REMARK   15  A    between atoms: C_40  and  C_41
REMARK   16  A    between atoms: C_41  and  N_42
REMARK   17  A    between atoms: C_43  and  C_45
REMARK   18  A    between atoms: C_58  and  O_59
REMARK   19  A    between atoms: C_65  and  O_66
REMARK   20  A    between atoms: N_72  and  C_73
REMARK   21  A    between atoms: C_73  and  N_74
REMARK   22  A    between atoms: C_78  and  C_79
REMARK   23  A    between atoms: C_79  and  C_80
REMARK   24  A    between atoms: C_86  and  C_87
REMARK   25  A    between atoms: C_87  and  C_88
REMARK   26  A    between atoms: C_88  and  C_89
REMARK                            x       y       z     vdW  Elec       q    Type
REMARK                         _______ _______ _______ _____ _____    ______ ____
ROOT
ATOM      1  C   UNL     1      -5.914   0.305 138.914  0.00  0.00    +0.000 C 
ATOM      2  N   UNL     1      -5.262   2.389 138.812  0.00  0.00    +0.000 N 
ATOM      3  C   UNL     1      -4.844   4.405 138.627  0.00  0.00    +0.000 C 
ATOM      4  O   UNL     1      -3.639   5.253 138.906  0.00  0.00    +0.000 OA
ATOM      5  C   UNL     1      -5.142   6.300 137.651  0.00  0.00    +0.000 C 
ATOM      6  N   UNL     1      -4.799   6.839 136.016  0.00  0.00    +0.000 N 
ATOM      7  C   UNL     1      -4.023   6.038 135.231  0.00  0.00    +0.000 C 
ATOM      8  O   UNL     1      -3.898   6.157 134.019  0.00  0.00    +0.000 OA
ATOM      9  C   UNL     1      -3.395   4.835 135.874  0.00  0.00    +0.000 C 
ATOM     10  C   UNL     1      -4.022   3.519 135.680  0.00  0.00    +0.000 C 
ATOM     11  S   UNL     1      -3.315   3.453 134.176  0.00  0.00    +0.000 S 
ATOM     12  S   UNL     1      -3.720   1.452 134.287  0.00  0.00    +0.000 S 
ATOM     13  C   UNL     1      -3.693   0.503 131.832  0.00  0.00    +0.000 C 
ATOM     14  C   UNL     1      -4.459  -0.491 131.134  0.00  0.00    +0.000 C 
ATOM     15  N   UNL     1      -4.207  -1.504 131.946  0.00  0.00    +0.000 N 
ATOM     16  C   UNL     1      -4.724  -1.465 133.134  0.00  0.00    +0.000 C 
ATOM     17  O   UNL     1      -4.598  -2.666 133.354  0.00  0.00    +0.000 OA
ATOM     18  C   UNL     1      -5.266  -0.323 134.150  0.00  0.00    +0.000 C 
ATOM     19  N   UNL     1      -6.271  -0.826 134.996  0.00  0.00    +0.000 N 
ATOM     20  C   UNL     1      -6.099  -1.705 136.039  0.00  0.00    +0.000 C 
ATOM     21  O   UNL     1      -7.129  -2.186 136.508  0.00  0.00    +0.000 OA
ATOM     22  C   UNL     1      -4.674  -2.081 136.704  0.00  0.00    +0.000 C 
ATOM     23  N   UNL     1      -4.397  -1.769 138.136  0.00  0.00    +0.000 N 
ATOM     24  C   UNL     1      -5.025  -1.172 139.190  0.00  0.00    +0.000 C 
ATOM     25  O   UNL     1      -5.005  -1.810 140.256  0.00  0.00    +0.000 OA
ATOM     26  H   UNL     1      -4.677   3.382 139.428  0.00  0.00    +0.000 HD
ATOM     27  H   UNL     1      -5.219   7.645 135.420  0.00  0.00    +0.000 HD
ATOM     28  H   UNL     1      -3.385  -2.127 131.884  0.00  0.00    +0.000 HD
ATOM     29  H   UNL     1      -7.175  -0.587 134.642  0.00  0.00    +0.000 HD
ATOM     30  H   UNL     1      -3.671  -1.092 138.161  0.00  0.00    +0.000 HD
ENDROOT
BRANCH  14  31
ATOM     31  C   UNL     1      -5.973  -0.390 131.022  0.00  0.00    +0.000 C 
ATOM     32  O   UNL     1      -6.676   0.464 131.594  0.00  0.00    +0.000 OA
ATOM     33  N   UNL     1      -6.615  -1.431 130.424  0.00  0.00    +0.000 N 
ATOM     34  C   UNL     1      -6.242  -2.826 130.174  0.00  0.00    +0.000 C 
ATOM     35  C   UNL     1      -6.577  -2.966 128.727  0.00  0.00    +0.000 C 
ATOM     36  C   UNL     1      -7.891  -2.183 128.638  0.00  0.00    +0.000 C 
ATOM     37  C   UNL     1      -7.780  -1.057 129.693  0.00  0.00    +0.000 C 
BRANCH  37  38
ATOM     38  C   UNL     1      -7.516   0.293 129.019  0.00  0.00    +0.000 C 
ATOM     39  O   UNL     1      -6.692   0.293 128.105  0.00  0.00    +0.000 OA
ATOM     40  N   UNL     1      -8.175   1.445 129.458  0.00  0.00    +0.000 N 
ATOM     41  H   UNL     1      -8.683   1.431 130.364  0.00  0.00    +0.000 HD
BRANCH  40  42
ATOM     42  C   UNL     1      -8.055   2.781 128.850  0.00  0.00    +0.000 C 
BRANCH  42  43
ATOM     43  C   UNL     1      -8.894   3.874 129.610  0.00  0.00    +0.000 C 
ATOM     44  O   UNL     1      -9.397   4.805 128.977  0.00  0.00    +0.000 OA
ATOM     45  N   UNL     1      -9.038   3.766 131.000  0.00  0.00    +0.000 N 
ATOM     46  H   UNL     1      -8.608   3.019 131.525  0.00  0.00    +0.000 HD
BRANCH  45  47
ATOM     47  C   UNL     1      -9.790   4.758 131.739  0.00  0.00    +0.000 C 
BRANCH  47  48
ATOM     48  N   UNL     1      -9.762   4.439 133.158  0.00  0.00    +0.000 NA
ATOM     49  H   UNL     1      -9.551   5.274 133.700  0.00  0.00    +0.000 HD
ATOM     50  H   UNL     1      -8.969   3.806 133.333  0.00  0.00    +0.000 HD
ENDBRANCH  47  48
ENDBRANCH  45  47
ENDBRANCH  42  43
BRANCH  42  51
ATOM     51  C   UNL     1      -8.548   2.670 127.417  0.00  0.00    +0.000 C 
BRANCH  51  52
ATOM     52  C   UNL     1      -7.686   3.455 126.454  0.00  0.00    +0.000 C 
BRANCH  52  53
ATOM     53  C   UNL     1      -6.652   2.649 125.743  0.00  0.00    +0.000 C 
BRANCH  53  54
ATOM     54  C   UNL     1      -5.251   2.893 126.316  0.00  0.00    +0.000 C 
BRANCH  54  55
ATOM     55  N   UNL     1      -5.211   4.162 127.153  0.00  0.00    +0.000 N 
ATOM     56  C   UNL     1      -3.996   4.793 127.598  0.00  0.00    +0.000 C 
ATOM     57  O   UNL     1      -2.967   4.195 127.227  0.00  0.00    +0.000 OA
ATOM     58  H   UNL     1      -6.118   4.525 127.371  0.00  0.00    +0.000 HD
BRANCH  56  59
ATOM     59  C   UNL     1      -3.770   6.262 128.564  0.00  0.00    +0.000 A 
ATOM     60  C   UNL     1      -3.094   6.096 129.641  0.00  0.00    +0.000 A 
ATOM     61  C   UNL     1      -2.894   7.382 130.637  0.00  0.00    +0.000 A 
ATOM     62  C   UNL     1      -2.233   7.321 131.581  0.00  0.00    +0.000 A 
ATOM     63  C   UNL     1      -2.781   8.257 131.027  0.00  0.00    +0.000 A 
ATOM     64  C   UNL     1      -3.710   7.584 129.192  0.00  0.00    +0.000 A 
ATOM     65  C   UNL     1      -1.744   8.687 132.859  0.00  0.00    +0.000 C 
ATOM     66  O   UNL     1      -0.653   7.735 132.597  0.00  0.00    +0.000 OA
ATOM     67  C   UNL     1      -1.357   6.631 132.265  0.00  0.00    +0.000 C 
ATOM     68  O   UNL     1      -1.342   5.504 131.809  0.00  0.00    +0.000 OA
ATOM     69  C   UNL     1      -1.808  10.330 133.575  0.00  0.00    +0.000 A 
ATOM     70  C   UNL     1      -1.403  11.417 132.829  0.00  0.00    +0.000 A 
ATOM     71  C   UNL     1      -1.553  12.757 133.273  0.00  0.00    +0.000 A 
ATOM     72  C   UNL     1      -2.010  13.048 134.556  0.00  0.00    +0.000 A 
ATOM     73  C   UNL     1      -2.257  12.013 135.439  0.00  0.00    +0.000 A 
ATOM     74  C   UNL     1      -2.159  10.681 134.971  0.00  0.00    +0.000 A 
ATOM     75  O   UNL     1      -2.435   9.738 135.935  0.00  0.00    +0.000 OA
ATOM     76  C   UNL     1      -1.548   8.702 135.859  0.00  0.00    +0.000 A 
ATOM     77  C   UNL     1      -1.604   7.759 137.038  0.00  0.00    +0.000 A 
ATOM     78  C   UNL     1      -0.630   6.838 137.414  0.00  0.00    +0.000 A 
ATOM     79  C   UNL     1       0.596   7.115 136.879  0.00  0.00    +0.000 A 
ATOM     80  C   UNL     1       0.619   8.041 135.600  0.00  0.00    +0.000 A 
ATOM     81  C   UNL     1      -0.775   8.494 134.673  0.00  0.00    +0.000 A 
BRANCH  78  82
ATOM     82  O   UNL     1      -0.852   5.738 138.196  0.00  0.00    +0.000 OA
ATOM     83  H   UNL     1      -1.786   5.449 138.223  0.00  0.00    +0.000 HD
ENDBRANCH  78  82
BRANCH  72  84
ATOM     84  O   UNL     1      -2.241  14.314 135.013  0.00  0.00    +0.000 OA
ATOM     85  H   UNL     1      -2.993  14.745 134.576  0.00  0.00    +0.000 HD
ENDBRANCH  72  84
ENDBRANCH  56  59
ENDBRANCH  54  55
ENDBRANCH  53  54
ENDBRANCH  52  53
ENDBRANCH  51  52
ENDBRANCH  42  51
ENDBRANCH  40  42
ENDBRANCH  37  38
ENDBRANCH  14  31
BRANCH   5  86
ATOM     86  C   UNL     1      -6.494   5.893 137.690  0.00  0.00    +0.000 A 
ATOM     87  C   UNL     1      -6.885   6.009 136.356  0.00  0.00    +0.000 A 
ATOM     88  C   UNL     1      -8.006   6.773 136.185  0.00  0.00    +0.000 A 
ATOM     89  C   UNL     1      -8.660   7.300 137.312  0.00  0.00    +0.000 A 
ATOM     90  C   UNL     1      -8.140   7.208 138.598  0.00  0.00    +0.000 A 
ATOM     91  C   UNL     1      -7.067   6.421 138.826  0.00  0.00    +0.000 A 
BRANCH  89  92
ATOM     92  O   UNL     1      -9.830   7.978 137.239  0.00  0.00    +0.000 OA
ATOM     93  H   UNL     1      -9.947   8.361 136.359  0.00  0.00    +0.000 HD
ENDBRANCH  89  92
ENDBRANCH   5  86
BRANCH   1  94
ATOM     94  C   UNL     1      -6.924  -1.763 139.216  0.00  0.00    +0.000 C 
ATOM     95  C   UNL     1      -6.498  -3.762 139.250  0.00  0.00    +0.000 C 
BRANCH  94  97
ATOM     96  C   UNL     1      -9.490  -2.022 139.113  0.00  0.00    +0.000 C 
ATOM     97  C   UNL     1      -8.548  -3.025 139.508  0.00  0.00    +0.000 C 
ENDBRANCH  94  97
ENDBRANCH   1  94
BRANCH   9  98
ATOM     98  O   UNL     1      -3.769   4.591 137.083  0.00  0.00    +0.000 OA
ATOM     99  H   UNL     1      -3.761   5.494 137.413  0.00  0.00    +0.000 HD
ENDBRANCH   9  98
BRANCH  18 100
ATOM    100  C   UNL     1      -5.614   0.863 133.249  0.00  0.00    +0.000 C 
BRANCH 100 101
ATOM    101  C   UNL     1      -7.066   2.157 133.587  0.00  0.00    +0.000 C 
ATOM    102  N   UNL     1      -6.385   3.936 133.257  0.00  0.00    +0.000 N 
ATOM    103  O   UNL     1      -8.243   1.963 133.722  0.00  0.00    +0.000 OA
ATOM    104  H   UNL     1      -5.216   3.823 133.190  0.00  0.00    +0.000 HD
ATOM    105  H   UNL     1      -6.658   4.843 133.165  0.00  0.00    +0.000 HD
ENDBRANCH 100 101
ENDBRANCH  18 100
BRANCH  22 106
ATOM    106  C   UNL     1      -3.406  -1.473 136.058  0.00  0.00    +0.000 C 
BRANCH 106 107
ATOM    107  C   UNL     1      -2.329  -2.485 135.925  0.00  0.00    +0.000 C 
BRANCH 107 108
ATOM    108  C   UNL     1      -1.497  -2.577 134.547  0.00  0.00    +0.000 C 
ATOM    109  N   UNL     1      -0.744  -3.691 134.473  0.00  0.00    +0.000 N 
ATOM    110  O   UNL     1      -1.335  -1.787 133.614  0.00  0.00    +0.000 OA
ATOM    111  H   UNL     1      -0.552  -4.227 135.303  0.00  0.00    +0.000 HD
ATOM    112  H   UNL     1      -0.079  -3.728 133.703  0.00  0.00    +0.000 HD
ENDBRANCH 107 108
ENDBRANCH 106 107
ENDBRANCH  22 106
TORSDOF 24
ENDMDL
MODEL 4
REMARK VINA RESULT:     -10.9      2.506      4.135
REMARK  Name = CHEMBL1790717
REMARK  26 active torsions:
REMARK  status: ('A' for Active; 'I' for Inactive)
REMARK    1  A    between atoms: C_1  and  C_2
REMARK    2  A    between atoms: C_2  and  C_3
REMARK    3  A    between atoms: C_3  and  C_4
REMARK    4  A    between atoms: C_3  and  C_5
REMARK    5  A    between atoms: C_9  and  C_10
REMARK    6  A    between atoms: C_13  and  O_14
REMARK    7  A    between atoms: C_20  and  O_21
REMARK    8  A    between atoms: C_26  and  C_27
REMARK    9  A    between atoms: C_33  and  C_34
REMARK   10  A    between atoms: N_36  and  C_37
REMARK   11  A    between atoms: C_37  and  C_38
REMARK   12  A    between atoms: C_37  and  C_70
REMARK   13  A    between atoms: C_38  and  C_39
REMARK   14  A    between atoms: C_39  and  C_40
REMARK   15  A    between atoms: C_40  and  C_41
REMARK   16  A    between atoms: C_41  and  N_42
REMARK   17  A    between atoms: C_43  and  C_45
REMARK   18  A    between atoms: C_58  and  O_59
REMARK   19  A    between atoms: C_65  and  O_66
REMARK   20  A    between atoms: N_72  and  C_73
REMARK   21  A    between atoms: C_73  and  N_74
REMARK   22  A    between atoms: C_78  and  C_79
REMARK   23  A    between atoms: C_79  and  C_80
REMARK   24  A    between atoms: C_86  and  C_87
REMARK   25  A    between atoms: C_87  and  C_88
REMARK   26  A    between atoms: C_88  and  C_89
REMARK                            x       y       z     vdW  Elec       q    Type
REMARK                         _______ _______ _______ _____ _____    ______ ____
ROOT
ATOM      1  C   UNL     1      -5.811   0.173 139.000  0.00  0.00    +0.000 C 
ATOM      2  N   UNL     1      -5.149   2.244 138.775  0.00  0.00    +0.000 N 
ATOM      3  C   UNL     1      -4.723   4.245 138.474  0.00  0.00    +0.000 C 
ATOM      4  O   UNL     1      -3.508   5.098 138.682  0.00  0.00    +0.000 OA
ATOM      5  C   UNL     1      -5.032   6.088 137.407  0.00  0.00    +0.000 C 
ATOM      6  N   UNL     1      -4.723   6.538 135.738  0.00  0.00    +0.000 N 
ATOM      7  C   UNL     1      -3.969   5.691 134.979  0.00  0.00    +0.000 C 
ATOM      8  O   UNL     1      -3.871   5.745 133.760  0.00  0.00    +0.000 OA
ATOM      9  C   UNL     1      -3.334   4.519 135.671  0.00  0.00    +0.000 C 
ATOM     10  C   UNL     1      -3.973   3.200 135.561  0.00  0.00    +0.000 C 
ATOM     11  S   UNL     1      -3.301   3.050 134.047  0.00  0.00    +0.000 S 
ATOM     12  S   UNL     1      -3.715   1.060 134.272  0.00  0.00    +0.000 S 
ATOM     13  C   UNL     1      -3.749  -0.017 131.871  0.00  0.00    +0.000 C 
ATOM     14  C   UNL     1      -4.537  -1.041 131.243  0.00  0.00    +0.000 C 
ATOM     15  N   UNL     1      -4.272  -2.012 132.101  0.00  0.00    +0.000 N 
ATOM     16  C   UNL     1      -4.762  -1.907 133.297  0.00  0.00    +0.000 C 
ATOM     17  O   UNL     1      -4.638  -3.095 133.577  0.00  0.00    +0.000 OA
ATOM     18  C   UNL     1      -5.274  -0.709 134.263  0.00  0.00    +0.000 C 
ATOM     19  N   UNL     1      -6.262  -1.160 135.157  0.00  0.00    +0.000 N 
ATOM     20  C   UNL     1      -6.073  -1.984 136.241  0.00  0.00    +0.000 C 
ATOM     21  O   UNL     1      -7.094  -2.432 136.757  0.00  0.00    +0.000 OA
ATOM     22  C   UNL     1      -4.635  -2.335 136.893  0.00  0.00    +0.000 C 
ATOM     23  N   UNL     1      -4.324  -1.950 138.299  0.00  0.00    +0.000 N 
ATOM     24  C   UNL     1      -4.925  -1.293 139.335  0.00  0.00    +0.000 C 
ATOM     25  O   UNL     1      -4.884  -1.875 140.432  0.00  0.00    +0.000 OA
ATOM     26  H   UNL     1      -4.544   3.264 139.324  0.00  0.00    +0.000 HD
ATOM     27  H   UNL     1      -5.151   7.314 135.110  0.00  0.00    +0.000 HD
ATOM     28  H   UNL     1      -3.456  -2.642 132.054  0.00  0.00    +0.000 HD
ATOM     29  H   UNL     1      -7.173  -0.933 134.811  0.00  0.00    +0.000 HD
ATOM     30  H   UNL     1      -3.593  -1.277 138.272  0.00  0.00    +0.000 HD
ENDROOT
BRANCH  14  31
ATOM     31  C   UNL     1      -6.052  -0.936 131.159  0.00  0.00    +0.000 C 
ATOM     32  O   UNL     1      -6.728   0.009 131.610  0.00  0.00    +0.000 OA
ATOM     33  N   UNL     1      -6.723  -2.047 130.752  0.00  0.00    +0.000 N 
ATOM     34  C   UNL     1      -6.373  -3.470 130.715  0.00  0.00    +0.000 C 
ATOM     35  C   UNL     1      -6.753  -3.831 129.318  0.00  0.00    +0.000 C 
ATOM     36  C   UNL     1      -8.061  -3.051 129.144  0.00  0.00    +0.000 C 
ATOM     37  C   UNL     1      -7.906  -1.775 130.004  0.00  0.00    +0.000 C 
BRANCH  37  38
ATOM     38  C   UNL     1      -7.648  -0.552 129.118  0.00  0.00    +0.000 C 
ATOM     39  O   UNL     1      -6.862  -0.712 128.185  0.00  0.00    +0.000 OA
ATOM     40  N   UNL     1      -8.269   0.669 129.397  0.00  0.00    +0.000 N 
ATOM     41  H   UNL     1      -8.739   0.807 130.313  0.00  0.00    +0.000 HD
BRANCH  40  42
ATOM     42  C   UNL     1      -8.152   1.892 128.584  0.00  0.00    +0.000 C 
BRANCH  42  43
ATOM     43  C   UNL     1      -8.744   3.160 129.303  0.00  0.00    +0.000 C 
ATOM     44  O   UNL     1      -9.952   3.216 129.543  0.00  0.00    +0.000 OA
ATOM     45  N   UNL     1      -7.876   4.208 129.642  0.00  0.00    +0.000 N 
ATOM     46  H   UNL     1      -6.891   4.176 129.426  0.00  0.00    +0.000 HD
BRANCH  45  47
ATOM     47  C   UNL     1      -8.383   5.399 130.291  0.00  0.00    +0.000 C 
BRANCH  47  48
ATOM     48  N   UNL     1      -8.814   5.077 131.642  0.00  0.00    +0.000 NA
ATOM     49  H   UNL     1      -9.651   4.498 131.614  0.00  0.00    +0.000 HD
ATOM     50  H   UNL     1      -9.114   5.947 132.104  0.00  0.00    +0.000 HD
ENDBRANCH  47  48
ENDBRANCH  45  47
ENDBRANCH  42  43
BRANCH  42  51
ATOM     51  C   UNL     1      -8.908   1.645 127.289  0.00  0.00    +0.000 C 
BRANCH  51  52
ATOM     52  C   UNL     1      -8.282   2.368 126.117  0.00  0.00    +0.000 C 
BRANCH  52  53
ATOM     53  C   UNL     1      -6.800   2.240 126.023  0.00  0.00    +0.000 C 
BRANCH  53  54
ATOM     54  C   UNL     1      -6.117   3.611 125.941  0.00  0.00    +0.000 C 
BRANCH  54  55
ATOM     55  N   UNL     1      -5.452   3.976 127.257  0.00  0.00    +0.000 N 
ATOM     56  C   UNL     1      -4.031   4.141 127.421  0.00  0.00    +0.000 C 
ATOM     57  O   UNL     1      -3.390   3.957 126.368  0.00  0.00    +0.000 OA
ATOM     58  H   UNL     1      -6.098   4.092 128.013  0.00  0.00    +0.000 HD
BRANCH  56  59
ATOM     59  C   UNL     1      -3.099   4.566 128.868  0.00  0.00    +0.000 A 
ATOM     60  C   UNL     1      -3.263   5.770 129.276  0.00  0.00    +0.000 A 
ATOM     61  C   UNL     1      -2.388   6.278 130.565  0.00  0.00    +0.000 A 
ATOM     62  C   UNL     1      -2.543   7.323 131.030  0.00  0.00    +0.000 A 
ATOM     63  C   UNL     1      -1.892   6.358 131.389  0.00  0.00    +0.000 A 
ATOM     64  C   UNL     1      -2.248   4.692 130.054  0.00  0.00    +0.000 A 
ATOM     65  C   UNL     1      -1.738   8.133 132.591  0.00  0.00    +0.000 C 
ATOM     66  O   UNL     1      -3.150   8.508 132.418  0.00  0.00    +0.000 OA
ATOM     67  C   UNL     1      -3.276   8.405 131.078  0.00  0.00    +0.000 C 
ATOM     68  O   UNL     1      -4.020   8.386 130.116  0.00  0.00    +0.000 OA
ATOM     69  C   UNL     1      -0.600   8.196 133.975  0.00  0.00    +0.000 A 
ATOM     70  C   UNL     1      -0.691   7.254 134.979  0.00  0.00    +0.000 A 
ATOM     71  C   UNL     1       0.256   7.154 136.032  0.00  0.00    +0.000 A 
ATOM     72  C   UNL     1       1.274   8.092 136.182  0.00  0.00    +0.000 A 
ATOM     73  C   UNL     1       1.324   9.181 135.330  0.00  0.00    +0.000 A 
ATOM     74  C   UNL     1       0.411   9.244 134.251  0.00  0.00    +0.000 A 
ATOM     75  O   UNL     1       0.562  10.366 133.468  0.00  0.00    +0.000 OA
ATOM     76  C   UNL     1      -0.659  10.885 133.136  0.00  0.00    +0.000 A 
ATOM     77  C   UNL     1      -0.591  12.258 132.511  0.00  0.00    +0.000 A 
ATOM     78  C   UNL     1      -1.637  13.168 132.386  0.00  0.00    +0.000 A 
ATOM     79  C   UNL     1      -2.669  12.909 133.242  0.00  0.00    +0.000 A 
ATOM     80  C   UNL     1      -2.760  11.442 133.821  0.00  0.00    +0.000 A 
ATOM     81  C   UNL     1      -1.840  10.088 133.250  0.00  0.00    +0.000 A 
BRANCH  78  82
ATOM     82  O   UNL     1      -1.680  14.194 131.483  0.00  0.00    +0.000 OA
ATOM     83  H   UNL     1      -2.266  14.029 130.717  0.00  0.00    +0.000 HD
ENDBRANCH  78  82
BRANCH  72  84
ATOM     84  O   UNL     1       2.253   8.009 137.130  0.00  0.00    +0.000 OA
ATOM     85  H   UNL     1       2.242   7.168 137.615  0.00  0.00    +0.000 HD
ENDBRANCH  72  84
ENDBRANCH  56  59
ENDBRANCH  54  55
ENDBRANCH  53  54
ENDBRANCH  52  53
ENDBRANCH  51  52
ENDBRANCH  42  51
ENDBRANCH  40  42
ENDBRANCH  37  38
ENDBRANCH  14  31
BRANCH   5  86
ATOM     86  C   UNL     1      -6.385   5.693 137.497  0.00  0.00    +0.000 A 
ATOM     87  C   UNL     1      -6.863   5.952 136.213  0.00  0.00    +0.000 A 
ATOM     88  C   UNL     1      -7.980   6.741 136.200  0.00  0.00    +0.000 A 
ATOM     89  C   UNL     1      -8.547   7.154 137.417  0.00  0.00    +0.000 A 
ATOM     90  C   UNL     1      -7.943   6.924 138.648  0.00  0.00    +0.000 A 
ATOM     91  C   UNL     1      -6.871   6.106 138.719  0.00  0.00    +0.000 A 
BRANCH  89  92
ATOM     92  O   UNL     1      -9.707   7.849 137.496  0.00  0.00    +0.000 OA
ATOM     93  H   UNL     1      -9.707   8.584 136.869  0.00  0.00    +0.000 HD
ENDBRANCH  89  92
ENDBRANCH   5  86
BRANCH   1  94
ATOM     94  C   UNL     1      -6.825  -1.869 139.433  0.00  0.00    +0.000 C 
ATOM     95  C   UNL     1      -6.420  -3.871 139.521  0.00  0.00    +0.000 C 
BRANCH  94  97
ATOM     96  C   UNL     1      -9.073  -2.108 140.680  0.00  0.00    +0.000 C 
ATOM     97  C   UNL     1      -8.445  -3.098 139.858  0.00  0.00    +0.000 C 
ENDBRANCH  94  97
ENDBRANCH   1  94
BRANCH   9  98
ATOM     98  O   UNL     1      -3.683   4.342 136.899  0.00  0.00    +0.000 OA
ATOM     99  H   UNL     1      -3.337   5.164 137.259  0.00  0.00    +0.000 HD
ENDBRANCH   9  98
BRANCH  18 100
ATOM    100  C   UNL     1      -5.635   0.431 133.309  0.00  0.00    +0.000 C 
BRANCH 100 101
ATOM    101  C   UNL     1      -6.821   1.946 133.749  0.00  0.00    +0.000 C 
ATOM    102  N   UNL     1      -8.413   1.809 132.659  0.00  0.00    +0.000 N 
ATOM    103  O   UNL     1      -6.772   2.708 134.675  0.00  0.00    +0.000 OA
ATOM    104  H   UNL     1      -8.165   1.012 131.830  0.00  0.00    +0.000 HD
ATOM    105  H   UNL     1      -9.284   2.175 132.548  0.00  0.00    +0.000 HD
ENDBRANCH 100 101
ENDBRANCH  18 100
BRANCH  22 106
ATOM    106  C   UNL     1      -3.378  -1.770 136.187  0.00  0.00    +0.000 C 
BRANCH 106 107
ATOM    107  C   UNL     1      -2.266  -2.752 136.196  0.00  0.00    +0.000 C 
BRANCH 107 108
ATOM    108  C   UNL     1      -1.403  -2.981 134.855  0.00  0.00    +0.000 C 
ATOM    109  N   UNL     1      -1.868  -4.003 134.110  0.00  0.00    +0.000 N 
ATOM    110  O   UNL     1      -0.354  -2.483 134.440  0.00  0.00    +0.000 OA
ATOM    111  H   UNL     1      -2.503  -4.672 134.512  0.00  0.00    +0.000 HD
ATOM    112  H   UNL     1      -1.274  -4.296 133.337  0.00  0.00    +0.000 HD
ENDBRANCH 107 108
ENDBRANCH 106 107
ENDBRANCH  22 106
TORSDOF 24
ENDMDL
MODEL 5
REMARK VINA RESULT:     -10.6      2.648     10.064
REMARK  Name = CHEMBL1790717
REMARK  26 active torsions:
REMARK  status: ('A' for Active; 'I' for Inactive)
REMARK    1  A    between atoms: C_1  and  C_2
REMARK    2  A    between atoms: C_2  and  C_3
REMARK    3  A    between atoms: C_3  and  C_4
REMARK    4  A    between atoms: C_3  and  C_5
REMARK    5  A    between atoms: C_9  and  C_10
REMARK    6  A    between atoms: C_13  and  O_14
REMARK    7  A    between atoms: C_20  and  O_21
REMARK    8  A    between atoms: C_26  and  C_27
REMARK    9  A    between atoms: C_33  and  C_34
REMARK   10  A    between atoms: N_36  and  C_37
REMARK   11  A    between atoms: C_37  and  C_38
REMARK   12  A    between atoms: C_37  and  C_70
REMARK   13  A    between atoms: C_38  and  C_39
REMARK   14  A    between atoms: C_39  and  C_40
REMARK   15  A    between atoms: C_40  and  C_41
REMARK   16  A    between atoms: C_41  and  N_42
REMARK   17  A    between atoms: C_43  and  C_45
REMARK   18  A    between atoms: C_58  and  O_59
REMARK   19  A    between atoms: C_65  and  O_66
REMARK   20  A    between atoms: N_72  and  C_73
REMARK   21  A    between atoms: C_73  and  N_74
REMARK   22  A    between atoms: C_78  and  C_79
REMARK   23  A    between atoms: C_79  and  C_80
REMARK   24  A    between atoms: C_86  and  C_87
REMARK   25  A    between atoms: C_87  and  C_88
REMARK   26  A    between atoms: C_88  and  C_89
REMARK                            x       y       z     vdW  Elec       q    Type
REMARK                         _______ _______ _______ _____ _____    ______ ____
ROOT
ATOM      1  C   UNL     1      -5.658   9.113 137.346  0.00  0.00    +0.000 C 
ATOM      2  N   UNL     1      -3.664   9.822 136.799  0.00  0.00    +0.000 N 
ATOM      3  C   UNL     1      -1.864  10.546 136.085  0.00  0.00    +0.000 C 
ATOM      4  O   UNL     1      -0.473  10.620 136.639  0.00  0.00    +0.000 OA
ATOM      5  C   UNL     1      -0.535  10.983 134.449  0.00  0.00    +0.000 C 
ATOM      6  N   UNL     1       0.277   9.941 133.294  0.00  0.00    +0.000 N 
ATOM      7  C   UNL     1       0.278   8.598 133.537  0.00  0.00    +0.000 C 
ATOM      8  O   UNL     1       0.586   7.740 132.721  0.00  0.00    +0.000 OA
ATOM      9  C   UNL     1      -0.281   8.131 134.851  0.00  0.00    +0.000 C 
ATOM     10  C   UNL     1      -1.652   7.602 134.890  0.00  0.00    +0.000 C 
ATOM     11  S   UNL     1      -1.067   6.165 134.289  0.00  0.00    +0.000 S 
ATOM     12  S   UNL     1      -2.838   5.390 134.953  0.00  0.00    +0.000 S 
ATOM     13  C   UNL     1      -3.250   3.137 133.657  0.00  0.00    +0.000 C 
ATOM     14  C   UNL     1      -4.416   2.482 133.130  0.00  0.00    +0.000 C 
ATOM     15  N   UNL     1      -5.098   2.411 134.261  0.00  0.00    +0.000 N 
ATOM     16  C   UNL     1      -5.543   3.520 134.765  0.00  0.00    +0.000 C 
ATOM     17  O   UNL     1      -6.381   2.990 135.488  0.00  0.00    +0.000 OA
ATOM     18  C   UNL     1      -5.162   5.094 134.680  0.00  0.00    +0.000 C 
ATOM     19  N   UNL     1      -6.292   5.906 134.883  0.00  0.00    +0.000 N 
ATOM     20  C   UNL     1      -6.954   6.108 136.071  0.00  0.00    +0.000 C 
ATOM     21  O   UNL     1      -8.041   6.675 135.987  0.00  0.00    +0.000 OA
ATOM     22  C   UNL     1      -6.375   5.712 137.528  0.00  0.00    +0.000 C 
ATOM     23  N   UNL     1      -6.123   6.762 138.556  0.00  0.00    +0.000 N 
ATOM     24  C   UNL     1      -6.208   8.120 138.671  0.00  0.00    +0.000 C 
ATOM     25  O   UNL     1      -6.792   8.534 139.686  0.00  0.00    +0.000 OA
ATOM     26  H   UNL     1      -2.609  10.503 137.162  0.00  0.00    +0.000 HD
ATOM     27  H   UNL     1       0.671  10.136 132.300  0.00  0.00    +0.000 HD
ATOM     28  H   UNL     1      -5.017   1.655 134.960  0.00  0.00    +0.000 HD
ATOM     29  H   UNL     1      -6.667   6.206 134.005  0.00  0.00    +0.000 HD
ATOM     30  H   UNL     1      -5.144   6.791 138.722  0.00  0.00    +0.000 HD
ENDROOT
BRANCH  14  31
ATOM     31  C   UNL     1      -5.321   3.169 132.118  0.00  0.00    +0.000 C 
ATOM     32  O   UNL     1      -5.122   4.298 131.632  0.00  0.00    +0.000 OA
ATOM     33  N   UNL     1      -6.535   2.596 131.893  0.00  0.00    +0.000 N 
ATOM     34  C   UNL     1      -7.358   1.659 132.663  0.00  0.00    +0.000 C 
ATOM     35  C   UNL     1      -7.694   0.641 131.626  0.00  0.00    +0.000 C 
ATOM     36  C   UNL     1      -7.950   1.523 130.400  0.00  0.00    +0.000 C 
ATOM     37  C   UNL     1      -7.012   2.742 130.558  0.00  0.00    +0.000 C 
BRANCH  37  38
ATOM     38  C   UNL     1      -5.818   2.635 129.603  0.00  0.00    +0.000 C 
ATOM     39  O   UNL     1      -5.265   1.538 129.545  0.00  0.00    +0.000 OA
ATOM     40  N   UNL     1      -5.393   3.749 128.872  0.00  0.00    +0.000 N 
ATOM     41  H   UNL     1      -5.748   4.692 129.123  0.00  0.00    +0.000 HD
BRANCH  40  42
ATOM     42  C   UNL     1      -4.306   3.752 127.878  0.00  0.00    +0.000 C 
BRANCH  42  43
ATOM     43  C   UNL     1      -3.424   5.054 127.946  0.00  0.00    +0.000 C 
ATOM     44  O   UNL     1      -2.327   5.077 127.384  0.00  0.00    +0.000 OA
ATOM     45  N   UNL     1      -3.908   6.158 128.661  0.00  0.00    +0.000 N 
ATOM     46  H   UNL     1      -4.795   6.136 129.143  0.00  0.00    +0.000 HD
BRANCH  45  47
ATOM     47  C   UNL     1      -3.121   7.370 128.761  0.00  0.00    +0.000 C 
BRANCH  47  48
ATOM     48  N   UNL     1      -3.993   8.500 129.042  0.00  0.00    +0.000 NA
ATOM     49  H   UNL     1      -4.853   8.420 128.502  0.00  0.00    +0.000 HD
ATOM     50  H   UNL     1      -3.541   9.354 128.687  0.00  0.00    +0.000 HD
ENDBRANCH  47  48
ENDBRANCH  45  47
ENDBRANCH  42  43
BRANCH  42  51
ATOM     51  C   UNL     1      -4.949   3.649 126.506  0.00  0.00    +0.000 C 
BRANCH  51  52
ATOM     52  C   UNL     1      -5.048   2.217 126.028  0.00  0.00    +0.000 C 
BRANCH  52  53
ATOM     53  C   UNL     1      -6.314   1.883 125.315  0.00  0.00    +0.000 C 
BRANCH  53  54
ATOM     54  C   UNL     1      -6.794   0.465 125.650  0.00  0.00    +0.000 C 
BRANCH  54  55
ATOM     55  N   UNL     1      -6.074  -0.087 126.869  0.00  0.00    +0.000 N 
ATOM     56  C   UNL     1      -5.656  -1.458 127.003  0.00  0.00    +0.000 C 
ATOM     57  O   UNL     1      -5.942  -2.158 126.013  0.00  0.00    +0.000 OA
ATOM     58  H   UNL     1      -5.913   0.597 127.583  0.00  0.00    +0.000 HD
BRANCH  56  59
ATOM     59  C   UNL     1      -4.810  -2.260 128.339  0.00  0.00    +0.000 A 
ATOM     60  C   UNL     1      -5.518  -2.436 129.392  0.00  0.00    +0.000 A 
ATOM     61  C   UNL     1      -4.802  -3.105 130.706  0.00  0.00    +0.000 A 
ATOM     62  C   UNL     1      -5.401  -3.361 131.659  0.00  0.00    +0.000 A 
ATOM     63  C   UNL     1      -4.256  -3.609 131.322  0.00  0.00    +0.000 A 
ATOM     64  C   UNL     1      -3.923  -2.927 129.295  0.00  0.00    +0.000 A 
ATOM     65  C   UNL     1      -4.844  -4.235 133.292  0.00  0.00    +0.000 C 
ATOM     66  O   UNL     1      -6.214  -4.593 132.892  0.00  0.00    +0.000 OA
ATOM     67  C   UNL     1      -6.577  -3.482 132.216  0.00  0.00    +0.000 C 
ATOM     68  O   UNL     1      -7.387  -2.947 131.483  0.00  0.00    +0.000 OA
ATOM     69  C   UNL     1      -3.646  -4.971 134.405  0.00  0.00    +0.000 A 
ATOM     70  C   UNL     1      -2.948  -6.094 134.013  0.00  0.00    +0.000 A 
ATOM     71  C   UNL     1      -1.889  -6.651 134.778  0.00  0.00    +0.000 A 
ATOM     72  C   UNL     1      -1.575  -6.162 136.043  0.00  0.00    +0.000 A 
ATOM     73  C   UNL     1      -2.352  -5.160 136.596  0.00  0.00    +0.000 A 
ATOM     74  C   UNL     1      -3.369  -4.573 135.805  0.00  0.00    +0.000 A 
ATOM     75  O   UNL     1      -4.068  -3.582 136.456  0.00  0.00    +0.000 OA
ATOM     76  C   UNL     1      -5.406  -3.690 136.194  0.00  0.00    +0.000 A 
ATOM     77  C   UNL     1      -6.274  -2.820 137.072  0.00  0.00    +0.000 A 
ATOM     78  C   UNL     1      -7.644  -2.955 137.282  0.00  0.00    +0.000 A 
ATOM     79  C   UNL     1      -8.109  -4.197 136.958  0.00  0.00    +0.000 A 
ATOM     80  C   UNL     1      -7.218  -5.055 135.976  0.00  0.00    +0.000 A 
ATOM     81  C   UNL     1      -5.866  -4.450 135.074  0.00  0.00    +0.000 A 
BRANCH  78  82
ATOM     82  O   UNL     1      -8.471  -1.959 137.723  0.00  0.00    +0.000 OA
ATOM     83  H   UNL     1      -9.271  -1.832 137.174  0.00  0.00    +0.000 HD
ENDBRANCH  78  82
BRANCH  72  84
ATOM     84  O   UNL     1      -0.526  -6.609 136.794  0.00  0.00    +0.000 OA
ATOM     85  H   UNL     1       0.331  -6.509 136.349  0.00  0.00    +0.000 HD
ENDBRANCH  72  84
ENDBRANCH  56  59
ENDBRANCH  54  55
ENDBRANCH  53  54
ENDBRANCH  52  53
ENDBRANCH  51  52
ENDBRANCH  42  51
ENDBRANCH  40  42
ENDBRANCH  37  38
ENDBRANCH  14  31
BRANCH   5  86
ATOM     86  C   UNL     1      -1.730  11.435 133.848  0.00  0.00    +0.000 A 
ATOM     87  C   UNL     1      -1.477  11.244 132.489  0.00  0.00    +0.000 A 
ATOM     88  C   UNL     1      -1.675  12.369 131.738  0.00  0.00    +0.000 A 
ATOM     89  C   UNL     1      -2.143  13.539 132.359  0.00  0.00    +0.000 A 
ATOM     90  C   UNL     1      -2.276  13.661 133.738  0.00  0.00    +0.000 A 
ATOM     91  C   UNL     1      -2.145  12.566 134.517  0.00  0.00    +0.000 A 
BRANCH  89  92
ATOM     92  O   UNL     1      -2.463  14.664 131.675  0.00  0.00    +0.000 OA
ATOM     93  H   UNL     1      -2.927  14.444 130.857  0.00  0.00    +0.000 HD
ENDBRANCH  89  92
ENDBRANCH   5  86
BRANCH   1  94
ATOM     94  C   UNL     1      -7.898   8.723 137.814  0.00  0.00    +0.000 C 
ATOM     95  C   UNL     1      -9.238   7.201 138.070  0.00  0.00    +0.000 C 
BRANCH  94  97
ATOM     96  C   UNL     1      -9.465  10.428 138.955  0.00  0.00    +0.000 C 
ATOM     97  C   UNL     1      -9.862   9.302 138.164  0.00  0.00    +0.000 C 
ENDBRANCH  94  97
ENDBRANCH   1  94
BRANCH   9  98
ATOM     98  O   UNL     1      -0.846   9.040 135.570  0.00  0.00    +0.000 OA
ATOM     99  H   UNL     1      -0.500   9.811 135.111  0.00  0.00    +0.000 HD
ENDBRANCH   9  98
BRANCH  18 100
ATOM    100  C   UNL     1      -4.403   5.237 133.360  0.00  0.00    +0.000 C 
BRANCH 100 101
ATOM    101  C   UNL     1      -4.434   6.835 132.200  0.00  0.00    +0.000 C 
ATOM    102  N   UNL     1      -6.197   6.985 131.419  0.00  0.00    +0.000 N 
ATOM    103  O   UNL     1      -3.649   7.740 132.130  0.00  0.00    +0.000 OA
ATOM    104  H   UNL     1      -6.726   5.954 131.624  0.00  0.00    +0.000 HD
ATOM    105  H   UNL     1      -6.751   7.574 130.918  0.00  0.00    +0.000 HD
ENDBRANCH 100 101
ENDBRANCH  18 100
BRANCH  22 106
ATOM    106  C   UNL     1      -5.016   4.972 137.576  0.00  0.00    +0.000 C 
BRANCH 106 107
ATOM    107  C   UNL     1      -5.057   3.827 138.518  0.00  0.00    +0.000 C 
BRANCH 107 108
ATOM    108  C   UNL     1      -4.207   2.499 138.183  0.00  0.00    +0.000 C 
ATOM    109  N   UNL     1      -4.001   1.731 139.271  0.00  0.00    +0.000 N 
ATOM    110  O   UNL     1      -3.627   2.111 137.167  0.00  0.00    +0.000 OA
ATOM    111  H   UNL     1      -4.144   2.111 140.192  0.00  0.00    +0.000 HD
ATOM    112  H   UNL     1      -3.340   0.965 139.156  0.00  0.00    +0.000 HD
ENDBRANCH 107 108
ENDBRANCH 106 107
ENDBRANCH  22 106
TORSDOF 24
ENDMDL
MODEL 6
REMARK VINA RESULT:     -10.5      1.600      2.301
REMARK  Name = CHEMBL1790717
REMARK  26 active torsions:
REMARK  status: ('A' for Active; 'I' for Inactive)
REMARK    1  A    between atoms: C_1  and  C_2
REMARK    2  A    between atoms: C_2  and  C_3
REMARK    3  A    between atoms: C_3  and  C_4
REMARK    4  A    between atoms: C_3  and  C_5
REMARK    5  A    between atoms: C_9  and  C_10
REMARK    6  A    between atoms: C_13  and  O_14
REMARK    7  A    between atoms: C_20  and  O_21
REMARK    8  A    between atoms: C_26  and  C_27
REMARK    9  A    between atoms: C_33  and  C_34
REMARK   10  A    between atoms: N_36  and  C_37
REMARK   11  A    between atoms: C_37  and  C_38
REMARK   12  A    between atoms: C_37  and  C_70
REMARK   13  A    between atoms: C_38  and  C_39
REMARK   14  A    between atoms: C_39  and  C_40
REMARK   15  A    between atoms: C_40  and  C_41
REMARK   16  A    between atoms: C_41  and  N_42
REMARK   17  A    between atoms: C_43  and  C_45
REMARK   18  A    between atoms: C_58  and  O_59
REMARK   19  A    between atoms: C_65  and  O_66
REMARK   20  A    between atoms: N_72  and  C_73
REMARK   21  A    between atoms: C_73  and  N_74
REMARK   22  A    between atoms: C_78  and  C_79
REMARK   23  A    between atoms: C_79  and  C_80
REMARK   24  A    between atoms: C_86  and  C_87
REMARK   25  A    between atoms: C_87  and  C_88
REMARK   26  A    between atoms: C_88  and  C_89
REMARK                            x       y       z     vdW  Elec       q    Type
REMARK                         _______ _______ _______ _____ _____    ______ ____
ROOT
ATOM      1  C   UNL     1      -6.739  -1.858 136.662  0.00  0.00    +0.000 C 
ATOM      2  N   UNL     1      -5.538  -0.035 136.761  0.00  0.00    +0.000 N 
ATOM      3  C   UNL     1      -4.577   1.795 136.770  0.00  0.00    +0.000 C 
ATOM      4  O   UNL     1      -3.192   2.248 137.124  0.00  0.00    +0.000 OA
ATOM      5  C   UNL     1      -4.322   3.783 135.985  0.00  0.00    +0.000 C 
ATOM      6  N   UNL     1      -3.808   4.360 134.408  0.00  0.00    +0.000 N 
ATOM      7  C   UNL     1      -3.265   3.453 133.545  0.00  0.00    +0.000 C 
ATOM      8  O   UNL     1      -3.086   3.648 132.350  0.00  0.00    +0.000 OA
ATOM      9  C   UNL     1      -3.006   2.068 134.065  0.00  0.00    +0.000 C 
ATOM     10  C   UNL     1      -3.966   1.002 133.747  0.00  0.00    +0.000 C 
ATOM     11  S   UNL     1      -3.273   0.887 132.239  0.00  0.00    +0.000 S 
ATOM     12  S   UNL     1      -4.214  -0.926 132.157  0.00  0.00    +0.000 S 
ATOM     13  C   UNL     1      -4.396  -1.608 129.622  0.00  0.00    +0.000 C 
ATOM     14  C   UNL     1      -5.391  -2.282 128.834  0.00  0.00    +0.000 C 
ATOM     15  N   UNL     1      -5.444  -3.398 129.542  0.00  0.00    +0.000 N 
ATOM     16  C   UNL     1      -5.956  -3.330 130.731  0.00  0.00    +0.000 C 
ATOM     17  O   UNL     1      -6.170  -4.535 130.833  0.00  0.00    +0.000 OA
ATOM     18  C   UNL     1      -6.186  -2.185 131.856  0.00  0.00    +0.000 C 
ATOM     19  N   UNL     1      -7.308  -2.470 132.655  0.00  0.00    +0.000 N 
ATOM     20  C   UNL     1      -7.407  -3.457 133.607  0.00  0.00    +0.000 C 
ATOM     21  O   UNL     1      -8.540  -3.677 134.032  0.00  0.00    +0.000 OA
ATOM     22  C   UNL     1      -6.155  -4.273 134.224  0.00  0.00    +0.000 C 
ATOM     23  N   UNL     1      -5.834  -4.187 135.677  0.00  0.00    +0.000 N 
ATOM     24  C   UNL     1      -6.297  -3.542 136.789  0.00  0.00    +0.000 C 
ATOM     25  O   UNL     1      -6.476  -4.260 137.787  0.00  0.00    +0.000 OA
ATOM     26  H   UNL     1      -4.715   0.695 137.467  0.00  0.00    +0.000 HD
ATOM     27  H   UNL     1      -3.977   5.303 133.896  0.00  0.00    +0.000 HD
ATOM     28  H   UNL     1      -4.824  -4.213 129.416  0.00  0.00    +0.000 HD
ATOM     29  H   UNL     1      -8.104  -1.958 132.331  0.00  0.00    +0.000 HD
ATOM     30  H   UNL     1      -4.951  -3.742 135.765  0.00  0.00    +0.000 HD
ENDROOT
BRANCH  14  31
ATOM     31  C   UNL     1      -6.816  -1.757 128.740  0.00  0.00    +0.000 C 
ATOM     32  O   UNL     1      -7.431  -1.191 129.664  0.00  0.00    +0.000 OA
ATOM     33  N   UNL     1      -7.533  -2.120 127.642  0.00  0.00    +0.000 N 
ATOM     34  C   UNL     1      -7.395  -3.212 126.673  0.00  0.00    +0.000 C 
ATOM     35  C   UNL     1      -7.498  -2.473 125.381  0.00  0.00    +0.000 C 
ATOM     36  C   UNL     1      -8.604  -1.459 125.693  0.00  0.00    +0.000 C 
ATOM     37  C   UNL     1      -8.462  -1.135 127.198  0.00  0.00    +0.000 C 
BRANCH  37  38
ATOM     38  C   UNL     1      -7.834   0.248 127.398  0.00  0.00    +0.000 C 
ATOM     39  O   UNL     1      -6.742   0.432 126.863  0.00  0.00    +0.000 OA
ATOM     40  N   UNL     1      -8.483   1.216 128.172  0.00  0.00    +0.000 N 
ATOM     41  H   UNL     1      -9.281   0.938 128.776  0.00  0.00    +0.000 HD
BRANCH  40  42
ATOM     42  C   UNL     1      -8.013   2.596 128.381  0.00  0.00    +0.000 C 
BRANCH  42  43
ATOM     43  C   UNL     1      -8.853   3.367 129.467  0.00  0.00    +0.000 C 
ATOM     44  O   UNL     1     -10.081   3.259 129.477  0.00  0.00    +0.000 OA
ATOM     45  N   UNL     1      -8.177   4.173 130.393  0.00  0.00    +0.000 N 
ATOM     46  H   UNL     1      -7.173   4.283 130.373  0.00  0.00    +0.000 HD
BRANCH  45  47
ATOM     47  C   UNL     1      -8.913   4.911 131.398  0.00  0.00    +0.000 C 
BRANCH  47  48
ATOM     48  N   UNL     1      -9.742   3.998 132.168  0.00  0.00    +0.000 NA
ATOM     49  H   UNL     1     -10.313   3.432 131.543  0.00  0.00    +0.000 HD
ATOM     50  H   UNL     1     -10.420   4.553 132.709  0.00  0.00    +0.000 HD
ENDBRANCH  47  48
ENDBRANCH  45  47
ENDBRANCH  42  43
BRANCH  42  51
ATOM     51  C   UNL     1      -8.126   3.317 127.049  0.00  0.00    +0.000 C 
BRANCH  51  52
ATOM     52  C   UNL     1      -6.901   4.151 126.746  0.00  0.00    +0.000 C 
BRANCH  52  53
ATOM     53  C   UNL     1      -5.757   3.392 126.166  0.00  0.00    +0.000 C 
BRANCH  53  54
ATOM     54  C   UNL     1      -4.561   3.349 127.125  0.00  0.00    +0.000 C 
BRANCH  54  55
ATOM     55  N   UNL     1      -4.243   4.732 127.671  0.00  0.00    +0.000 N 
ATOM     56  C   UNL     1      -4.534   5.151 129.017  0.00  0.00    +0.000 C 
ATOM     57  O   UNL     1      -5.078   4.264 129.702  0.00  0.00    +0.000 OA
ATOM     58  H   UNL     1      -3.806   5.335 127.001  0.00  0.00    +0.000 HD
BRANCH  56  59
ATOM     59  C   UNL     1      -4.229   6.708 129.810  0.00  0.00    +0.000 A 
ATOM     60  C   UNL     1      -3.383   6.661 130.772  0.00  0.00    +0.000 A 
ATOM     61  C   UNL     1      -3.089   8.036 131.614  0.00  0.00    +0.000 A 
ATOM     62  C   UNL     1      -2.284   8.081 132.440  0.00  0.00    +0.000 A 
ATOM     63  C   UNL     1      -2.957   8.946 131.907  0.00  0.00    +0.000 A 
ATOM     64  C   UNL     1      -4.132   8.082 130.308  0.00  0.00    +0.000 A 
ATOM     65  C   UNL     1      -1.664   9.571 133.505  0.00  0.00    +0.000 C 
ATOM     66  O   UNL     1      -0.585   8.637 133.149  0.00  0.00    +0.000 OA
ATOM     67  C   UNL     1      -1.279   7.485 133.027  0.00  0.00    +0.000 C 
ATOM     68  O   UNL     1      -1.283   6.323 132.669  0.00  0.00    +0.000 OA
ATOM     69  C   UNL     1      -1.692  11.269 134.084  0.00  0.00    +0.000 A 
ATOM     70  C   UNL     1      -1.462  12.298 133.195  0.00  0.00    +0.000 A 
ATOM     71  C   UNL     1      -1.604  13.667 133.546  0.00  0.00    +0.000 A 
ATOM     72  C   UNL     1      -1.865  14.054 134.858  0.00  0.00    +0.000 A 
ATOM     73  C   UNL     1      -1.919  13.094 135.851  0.00  0.00    +0.000 A 
ATOM     74  C   UNL     1      -1.833  11.730 135.485  0.00  0.00    +0.000 A 
ATOM     75  O   UNL     1      -1.908  10.868 136.555  0.00  0.00    +0.000 OA
ATOM     76  C   UNL     1      -0.995   9.859 136.421  0.00  0.00    +0.000 A 
ATOM     77  C   UNL     1      -0.819   9.024 137.667  0.00  0.00    +0.000 A 
ATOM     78  C   UNL     1       0.245   8.173 137.955  0.00  0.00    +0.000 A 
ATOM     79  C   UNL     1       1.356   8.443 137.208  0.00  0.00    +0.000 A 
ATOM     80  C   UNL     1       1.131   9.252 135.870  0.00  0.00    +0.000 A 
ATOM     81  C   UNL     1      -0.412   9.573 135.148  0.00  0.00    +0.000 A 
BRANCH  78  82
ATOM     82  O   UNL     1       0.203   7.140 138.850  0.00  0.00    +0.000 OA
ATOM     83  H   UNL     1       0.928   6.491 138.747  0.00  0.00    +0.000 HD
ENDBRANCH  78  82
BRANCH  72  84
ATOM     84  O   UNL     1      -2.080  15.348 135.241  0.00  0.00    +0.000 OA
ATOM     85  H   UNL     1      -2.813  15.440 135.871  0.00  0.00    +0.000 HD
ENDBRANCH  72  84
ENDBRANCH  56  59
ENDBRANCH  54  55
ENDBRANCH  53  54
ENDBRANCH  52  53
ENDBRANCH  51  52
ENDBRANCH  42  51
ENDBRANCH  40  42
ENDBRANCH  37  38
ENDBRANCH  14  31
BRANCH   5  86
ATOM     86  C   UNL     1      -5.733   3.763 135.992  0.00  0.00    +0.000 A 
ATOM     87  C   UNL     1      -6.042   3.651 134.636  0.00  0.00    +0.000 A 
ATOM     88  C   UNL     1      -6.906   4.616 134.196  0.00  0.00    +0.000 A 
ATOM     89  C   UNL     1      -7.421   5.549 135.111  0.00  0.00    +0.000 A 
ATOM     90  C   UNL     1      -6.980   5.639 136.426  0.00  0.00    +0.000 A 
ATOM     91  C   UNL     1      -6.171   4.679 136.923  0.00  0.00    +0.000 A 
BRANCH  89  92
ATOM     92  O   UNL     1      -8.358   6.470 134.781  0.00  0.00    +0.000 OA
ATOM     93  H   UNL     1      -8.155   7.323 135.187  0.00  0.00    +0.000 HD
ENDBRANCH  89  92
ENDBRANCH   5  86
BRANCH   1  94
ATOM     94  C   UNL     1      -8.285  -3.587 136.767  0.00  0.00    +0.000 C 
ATOM     95  C   UNL     1      -8.536  -5.544 136.231  0.00  0.00    +0.000 C 
BRANCH  94  97
ATOM     96  C   UNL     1     -10.506  -3.311 138.052  0.00  0.00    +0.000 C 
ATOM     97  C   UNL     1     -10.137  -4.413 137.217  0.00  0.00    +0.000 C 
ENDBRANCH  94  97
ENDBRANCH   1  94
BRANCH   9  98
ATOM     98  O   UNL     1      -3.460   1.824 135.246  0.00  0.00    +0.000 OA
ATOM     99  H   UNL     1      -4.346   1.546 134.996  0.00  0.00    +0.000 HD
ENDBRANCH   9  98
BRANCH  18 100
ATOM    100  C   UNL     1      -6.174  -0.869 131.077  0.00  0.00    +0.000 C 
BRANCH 100 101
ATOM    101  C   UNL     1      -7.224   0.736 131.546  0.00  0.00    +0.000 C 
ATOM    102  N   UNL     1      -9.085   0.229 131.674  0.00  0.00    +0.000 N 
ATOM    103  O   UNL     1      -6.847   1.803 131.945  0.00  0.00    +0.000 OA
ATOM    104  H   UNL     1      -9.159  -0.842 131.193  0.00  0.00    +0.000 HD
ATOM    105  H   UNL     1      -9.936   0.549 131.955  0.00  0.00    +0.000 HD
ENDBRANCH 100 101
ENDBRANCH  18 100
BRANCH  22 106
ATOM    106  C   UNL     1      -4.755  -3.979 133.633  0.00  0.00    +0.000 C 
BRANCH 106 107
ATOM    107  C   UNL     1      -3.689  -4.170 134.648  0.00  0.00    +0.000 C 
BRANCH 107 108
ATOM    108  C   UNL     1      -2.498  -3.091 134.755  0.00  0.00    +0.000 C 
ATOM    109  N   UNL     1      -2.811  -2.054 135.556  0.00  0.00    +0.000 N 
ATOM    110  O   UNL     1      -1.418  -2.976 134.170  0.00  0.00    +0.000 OA
ATOM    111  H   UNL     1      -3.770  -1.888 135.814  0.00  0.00    +0.000 HD
ATOM    112  H   UNL     1      -2.166  -1.267 135.538  0.00  0.00    +0.000 HD
ENDBRANCH 107 108
ENDBRANCH 106 107
ENDBRANCH  22 106
TORSDOF 24
ENDMDL
MODEL 7
REMARK VINA RESULT:     -10.5      2.702      9.802
REMARK  Name = CHEMBL1790717
REMARK  26 active torsions:
REMARK  status: ('A' for Active; 'I' for Inactive)
REMARK    1  A    between atoms: C_1  and  C_2
REMARK    2  A    between atoms: C_2  and  C_3
REMARK    3  A    between atoms: C_3  and  C_4
REMARK    4  A    between atoms: C_3  and  C_5
REMARK    5  A    between atoms: C_9  and  C_10
REMARK    6  A    between atoms: C_13  and  O_14
REMARK    7  A    between atoms: C_20  and  O_21
REMARK    8  A    between atoms: C_26  and  C_27
REMARK    9  A    between atoms: C_33  and  C_34
REMARK   10  A    between atoms: N_36  and  C_37
REMARK   11  A    between atoms: C_37  and  C_38
REMARK   12  A    between atoms: C_37  and  C_70
REMARK   13  A    between atoms: C_38  and  C_39
REMARK   14  A    between atoms: C_39  and  C_40
REMARK   15  A    between atoms: C_40  and  C_41
REMARK   16  A    between atoms: C_41  and  N_42
REMARK   17  A    between atoms: C_43  and  C_45
REMARK   18  A    between atoms: C_58  and  O_59
REMARK   19  A    between atoms: C_65  and  O_66
REMARK   20  A    between atoms: N_72  and  C_73
REMARK   21  A    between atoms: C_73  and  N_74
REMARK   22  A    between atoms: C_78  and  C_79
REMARK   23  A    between atoms: C_79  and  C_80
REMARK   24  A    between atoms: C_86  and  C_87
REMARK   25  A    between atoms: C_87  and  C_88
REMARK   26  A    between atoms: C_88  and  C_89
REMARK                            x       y       z     vdW  Elec       q    Type
REMARK                         _______ _______ _______ _____ _____    ______ ____
ROOT
ATOM      1  C   UNL     1      -5.804   8.961 137.177  0.00  0.00    +0.000 C 
ATOM      2  N   UNL     1      -3.739   9.523 136.733  0.00  0.00    +0.000 N 
ATOM      3  C   UNL     1      -1.861  10.131 136.119  0.00  0.00    +0.000 C 
ATOM      4  O   UNL     1      -0.485  10.030 136.706  0.00  0.00    +0.000 OA
ATOM      5  C   UNL     1      -0.452  10.574 134.553  0.00  0.00    +0.000 C 
ATOM      6  N   UNL     1       0.294   9.556 133.332  0.00  0.00    +0.000 N 
ATOM      7  C   UNL     1       0.166   8.204 133.464  0.00  0.00    +0.000 C 
ATOM      8  O   UNL     1       0.417   7.390 132.585  0.00  0.00    +0.000 OA
ATOM      9  C   UNL     1      -0.470   7.687 134.722  0.00  0.00    +0.000 C 
ATOM     10  C   UNL     1      -1.884   7.286 134.688  0.00  0.00    +0.000 C 
ATOM     11  S   UNL     1      -1.417   5.855 133.983  0.00  0.00    +0.000 S 
ATOM     12  S   UNL     1      -3.269   5.197 134.544  0.00  0.00    +0.000 S 
ATOM     13  C   UNL     1      -3.848   3.104 133.057  0.00  0.00    +0.000 C 
ATOM     14  C   UNL     1      -5.053   2.605 132.453  0.00  0.00    +0.000 C 
ATOM     15  N   UNL     1      -5.771   2.507 133.560  0.00  0.00    +0.000 N 
ATOM     16  C   UNL     1      -6.127   3.608 134.145  0.00  0.00    +0.000 C 
ATOM     17  O   UNL     1      -7.030   3.102 134.804  0.00  0.00    +0.000 OA
ATOM     18  C   UNL     1      -5.602   5.142 134.198  0.00  0.00    +0.000 C 
ATOM     19  N   UNL     1      -6.658   6.037 134.444  0.00  0.00    +0.000 N 
ATOM     20  C   UNL     1      -7.332   6.203 135.631  0.00  0.00    +0.000 C 
ATOM     21  O   UNL     1      -8.360   6.874 135.572  0.00  0.00    +0.000 OA
ATOM     22  C   UNL     1      -6.833   5.638 137.062  0.00  0.00    +0.000 C 
ATOM     23  N   UNL     1      -6.516   6.574 138.179  0.00  0.00    +0.000 N 
ATOM     24  C   UNL     1      -6.480   7.920 138.404  0.00  0.00    +0.000 C 
ATOM     25  O   UNL     1      -7.053   8.304 139.438  0.00  0.00    +0.000 OA
ATOM     26  H   UNL     1      -2.637  10.071 137.173  0.00  0.00    +0.000 HD
ATOM     27  H   UNL     1       0.732   9.793 132.367  0.00  0.00    +0.000 HD
ATOM     28  H   UNL     1      -5.779   1.693 134.195  0.00  0.00    +0.000 HD
ATOM     29  H   UNL     1      -6.979   6.440 133.587  0.00  0.00    +0.000 HD
ATOM     30  H   UNL     1      -5.543   6.498 138.367  0.00  0.00    +0.000 HD
ENDROOT
BRANCH  14  31
ATOM     31  C   UNL     1      -5.863   3.453 131.483  0.00  0.00    +0.000 C 
ATOM     32  O   UNL     1      -5.516   4.566 131.046  0.00  0.00    +0.000 OA
ATOM     33  N   UNL     1      -7.143   3.059 131.246  0.00  0.00    +0.000 N 
ATOM     34  C   UNL     1      -8.081   2.206 131.983  0.00  0.00    +0.000 C 
ATOM     35  C   UNL     1      -8.557   1.291 130.905  0.00  0.00    +0.000 C 
ATOM     36  C   UNL     1      -8.698   2.255 129.722  0.00  0.00    +0.000 C 
ATOM     37  C   UNL     1      -7.603   3.329 129.924  0.00  0.00    +0.000 C 
BRANCH  37  38
ATOM     38  C   UNL     1      -6.440   3.106 128.953  0.00  0.00    +0.000 C 
ATOM     39  O   UNL     1      -6.037   1.949 128.842  0.00  0.00    +0.000 OA
ATOM     40  N   UNL     1      -5.876   4.184 128.263  0.00  0.00    +0.000 N 
ATOM     41  H   UNL     1      -6.101   5.154 128.558  0.00  0.00    +0.000 HD
BRANCH  40  42
ATOM     42  C   UNL     1      -4.803   4.087 127.259  0.00  0.00    +0.000 C 
BRANCH  42  43
ATOM     43  C   UNL     1      -3.530   4.927 127.645  0.00  0.00    +0.000 C 
ATOM     44  O   UNL     1      -2.407   4.449 127.467  0.00  0.00    +0.000 OA
ATOM     45  N   UNL     1      -3.708   6.203 128.197  0.00  0.00    +0.000 N 
ATOM     46  H   UNL     1      -4.625   6.589 128.367  0.00  0.00    +0.000 HD
BRANCH  45  47
ATOM     47  C   UNL     1      -2.563   7.003 128.581  0.00  0.00    +0.000 C 
BRANCH  47  48
ATOM     48  N   UNL     1      -1.967   6.459 129.791  0.00  0.00    +0.000 NA
ATOM     49  H   UNL     1      -1.501   7.198 130.314  0.00  0.00    +0.000 HD
ATOM     50  H   UNL     1      -1.211   5.815 129.520  0.00  0.00    +0.000 HD
ENDBRANCH  47  48
ENDBRANCH  45  47
ENDBRANCH  42  43
BRANCH  42  51
ATOM     51  C   UNL     1      -5.368   4.601 125.945  0.00  0.00    +0.000 C 
BRANCH  51  52
ATOM     52  C   UNL     1      -5.412   3.525 124.883  0.00  0.00    +0.000 C 
BRANCH  52  53
ATOM     53  C   UNL     1      -6.720   2.822 124.760  0.00  0.00    +0.000 C 
BRANCH  53  54
ATOM     54  C   UNL     1      -6.538   1.303 124.650  0.00  0.00    +0.000 C 
BRANCH  54  55
ATOM     55  N   UNL     1      -6.695   0.629 126.003  0.00  0.00    +0.000 N 
ATOM     56  C   UNL     1      -7.538  -0.513 126.239  0.00  0.00    +0.000 C 
ATOM     57  O   UNL     1      -8.134  -0.905 125.216  0.00  0.00    +0.000 OA
ATOM     58  H   UNL     1      -6.152   1.057 126.727  0.00  0.00    +0.000 HD
BRANCH  56  59
ATOM     59  C   UNL     1      -7.830  -1.416 127.737  0.00  0.00    +0.000 A 
ATOM     60  C   UNL     1      -6.903  -1.310 128.615  0.00  0.00    +0.000 A 
ATOM     61  C   UNL     1      -7.048  -2.167 130.005  0.00  0.00    +0.000 A 
ATOM     62  C   UNL     1      -6.290  -2.057 130.867  0.00  0.00    +0.000 A 
ATOM     63  C   UNL     1      -7.359  -2.636 130.788  0.00  0.00    +0.000 A 
ATOM     64  C   UNL     1      -8.275  -2.229 128.871  0.00  0.00    +0.000 A 
ATOM     65  C   UNL     1      -6.272  -2.852 132.630  0.00  0.00    +0.000 C 
ATOM     66  O   UNL     1      -5.762  -1.472 132.622  0.00  0.00    +0.000 OA
ATOM     67  C   UNL     1      -5.281  -1.388 131.364  0.00  0.00    +0.000 C 
ATOM     68  O   UNL     1      -4.841  -0.679 130.479  0.00  0.00    +0.000 OA
ATOM     69  C   UNL     1      -6.879  -3.941 133.920  0.00  0.00    +0.000 A 
ATOM     70  C   UNL     1      -8.147  -3.757 134.428  0.00  0.00    +0.000 A 
ATOM     71  C   UNL     1      -8.748  -4.658 135.347  0.00  0.00    +0.000 A 
ATOM     72  C   UNL     1      -8.033  -5.724 135.888  0.00  0.00    +0.000 A 
ATOM     73  C   UNL     1      -6.694  -5.870 135.579  0.00  0.00    +0.000 A 
ATOM     74  C   UNL     1      -6.118  -5.002 134.620  0.00  0.00    +0.000 A 
ATOM     75  O   UNL     1      -4.784  -5.247 134.388  0.00  0.00    +0.000 OA
ATOM     76  C   UNL     1      -4.090  -4.073 134.298  0.00  0.00    +0.000 A 
ATOM     77  C   UNL     1      -2.590  -4.245 134.314  0.00  0.00    +0.000 A 
ATOM     78  C   UNL     1      -1.642  -3.260 134.578  0.00  0.00    +0.000 A 
ATOM     79  C   UNL     1      -2.166  -2.184 135.237  0.00  0.00    +0.000 A 
ATOM     80  C   UNL     1      -3.729  -1.985 135.139  0.00  0.00    +0.000 A 
ATOM     81  C   UNL     1      -4.776  -2.842 134.054  0.00  0.00    +0.000 A 
BRANCH  78  82
ATOM     82  O   UNL     1      -0.330  -3.311 134.195  0.00  0.00    +0.000 OA
ATOM     83  H   UNL     1      -0.182  -3.119 133.247  0.00  0.00    +0.000 HD
ENDBRANCH  78  82
BRANCH  72  84
ATOM     84  O   UNL     1      -8.577  -6.662 136.719  0.00  0.00    +0.000 OA
ATOM     85  H   UNL     1      -9.333  -7.127 136.326  0.00  0.00    +0.000 HD
ENDBRANCH  72  84
ENDBRANCH  56  59
ENDBRANCH  54  55
ENDBRANCH  53  54
ENDBRANCH  52  53
ENDBRANCH  51  52
ENDBRANCH  42  51
ENDBRANCH  40  42
ENDBRANCH  37  38
ENDBRANCH  14  31
BRANCH   5  86
ATOM     86  C   UNL     1      -1.583  11.182 133.966  0.00  0.00    +0.000 A 
ATOM     87  C   UNL     1      -1.459  10.823 132.624  0.00  0.00    +0.000 A 
ATOM     88  C   UNL     1      -1.501  11.892 131.772  0.00  0.00    +0.000 A 
ATOM     89  C   UNL     1      -1.708  13.180 132.292  0.00  0.00    +0.000 A 
ATOM     90  C   UNL     1      -1.726  13.450 133.655  0.00  0.00    +0.000 A 
ATOM     91  C   UNL     1      -1.743  12.427 134.535  0.00  0.00    +0.000 A 
BRANCH  89  92
ATOM     92  O   UNL     1      -1.865  14.277 131.512  0.00  0.00    +0.000 OA
ATOM     93  H   UNL     1      -2.473  14.093 130.784  0.00  0.00    +0.000 HD
ENDBRANCH  89  92
ENDBRANCH   5  86
BRANCH   1  94
ATOM     94  C   UNL     1      -8.083   8.746 137.565  0.00  0.00    +0.000 C 
ATOM     95  C   UNL     1      -9.750   7.817 136.833  0.00  0.00    +0.000 C 
BRANCH  94  97
ATOM     96  C   UNL     1      -9.294  10.311 139.222  0.00  0.00    +0.000 C 
ATOM     97  C   UNL     1      -9.862   9.186 138.543  0.00  0.00    +0.000 C 
ENDBRANCH  94  97
ENDBRANCH   1  94
BRANCH   9  98
ATOM     98  O   UNL     1      -0.970   8.583 135.502  0.00  0.00    +0.000 OA
ATOM     99  H   UNL     1      -1.840   8.190 135.622  0.00  0.00    +0.000 HD
ENDBRANCH   9  98
BRANCH  18 100
ATOM    100  C   UNL     1      -4.795   5.319 132.910  0.00  0.00    +0.000 C 
BRANCH 100 101
ATOM    101  C   UNL     1      -4.783   6.948 131.795  0.00  0.00    +0.000 C 
ATOM    102  N   UNL     1      -6.563   7.213 131.087  0.00  0.00    +0.000 N 
ATOM    103  O   UNL     1      -3.954   7.813 131.718  0.00  0.00    +0.000 OA
ATOM    104  H   UNL     1      -7.139   6.206 131.285  0.00  0.00    +0.000 HD
ATOM    105  H   UNL     1      -7.104   7.844 130.623  0.00  0.00    +0.000 HD
ENDBRANCH 100 101
ENDBRANCH  18 100
BRANCH  22 106
ATOM    106  C   UNL     1      -5.549   4.774 137.076  0.00  0.00    +0.000 C 
BRANCH 106 107
ATOM    107  C   UNL     1      -4.458   5.440 137.830  0.00  0.00    +0.000 C 
BRANCH 107 108
ATOM    108  C   UNL     1      -3.532   4.565 138.817  0.00  0.00    +0.000 C 
ATOM    109  N   UNL     1      -3.922   4.653 140.104  0.00  0.00    +0.000 N 
ATOM    110  O   UNL     1      -2.490   3.930 138.642  0.00  0.00    +0.000 OA
ATOM    111  H   UNL     1      -4.543   5.390 140.393  0.00  0.00    +0.000 HD
ATOM    112  H   UNL     1      -3.285   4.254 140.790  0.00  0.00    +0.000 HD
ENDBRANCH 107 108
ENDBRANCH 106 107
ENDBRANCH  22 106
TORSDOF 24
ENDMDL
MODEL 8
REMARK VINA RESULT:      -9.0      3.545     12.410
REMARK  Name = CHEMBL1790717
REMARK  26 active torsions:
REMARK  status: ('A' for Active; 'I' for Inactive)
REMARK    1  A    between atoms: C_1  and  C_2
REMARK    2  A    between atoms: C_2  and  C_3
REMARK    3  A    between atoms: C_3  and  C_4
REMARK    4  A    between atoms: C_3  and  C_5
REMARK    5  A    between atoms: C_9  and  C_10
REMARK    6  A    between atoms: C_13  and  O_14
REMARK    7  A    between atoms: C_20  and  O_21
REMARK    8  A    between atoms: C_26  and  C_27
REMARK    9  A    between atoms: C_33  and  C_34
REMARK   10  A    between atoms: N_36  and  C_37
REMARK   11  A    between atoms: C_37  and  C_38
REMARK   12  A    between atoms: C_37  and  C_70
REMARK   13  A    between atoms: C_38  and  C_39
REMARK   14  A    between atoms: C_39  and  C_40
REMARK   15  A    between atoms: C_40  and  C_41
REMARK   16  A    between atoms: C_41  and  N_42
REMARK   17  A    between atoms: C_43  and  C_45
REMARK   18  A    between atoms: C_58  and  O_59
REMARK   19  A    between atoms: C_65  and  O_66
REMARK   20  A    between atoms: N_72  and  C_73
REMARK   21  A    between atoms: C_73  and  N_74
REMARK   22  A    between atoms: C_78  and  C_79
REMARK   23  A    between atoms: C_79  and  C_80
REMARK   24  A    between atoms: C_86  and  C_87
REMARK   25  A    between atoms: C_87  and  C_88
REMARK   26  A    between atoms: C_88  and  C_89
REMARK                            x       y       z     vdW  Elec       q    Type
REMARK                         _______ _______ _______ _____ _____    ______ ____
ROOT
ATOM      1  C   UNL     1      -5.780  10.232 137.555  0.00  0.00    +0.000 C 
ATOM      2  N   UNL     1      -4.018  10.439 136.278  0.00  0.00    +0.000 N 
ATOM      3  C   UNL     1      -2.449  10.491 134.933  0.00  0.00    +0.000 C 
ATOM      4  O   UNL     1      -1.111  11.167 134.912  0.00  0.00    +0.000 OA
ATOM      5  C   UNL     1      -1.278   9.567 133.381  0.00  0.00    +0.000 C 
ATOM      6  N   UNL     1      -0.250   8.143 133.385  0.00  0.00    +0.000 N 
ATOM      7  C   UNL     1       0.073   7.594 134.592  0.00  0.00    +0.000 C 
ATOM      8  O   UNL     1       0.571   6.486 134.744  0.00  0.00    +0.000 OA
ATOM      9  C   UNL     1      -0.346   8.338 135.827  0.00  0.00    +0.000 C 
ATOM     10  C   UNL     1      -1.550   7.896 136.546  0.00  0.00    +0.000 C 
ATOM     11  S   UNL     1      -0.645   6.678 137.226  0.00  0.00    +0.000 S 
ATOM     12  S   UNL     1      -2.173   6.561 138.578  0.00  0.00    +0.000 S 
ATOM     13  C   UNL     1      -2.046   4.188 139.710  0.00  0.00    +0.000 C 
ATOM     14  C   UNL     1      -3.026   3.239 140.162  0.00  0.00    +0.000 C 
ATOM     15  N   UNL     1      -3.662   4.038 141.004  0.00  0.00    +0.000 N 
ATOM     16  C   UNL     1      -4.355   5.012 140.500  0.00  0.00    +0.000 C 
ATOM     17  O   UNL     1      -5.035   5.200 141.504  0.00  0.00    +0.000 OA
ATOM     18  C   UNL     1      -4.361   5.869 139.123  0.00  0.00    +0.000 C 
ATOM     19  N   UNL     1      -5.651   6.342 138.821  0.00  0.00    +0.000 N 
ATOM     20  C   UNL     1      -6.331   7.343 139.474  0.00  0.00    +0.000 C 
ATOM     21  O   UNL     1      -7.523   7.449 139.194  0.00  0.00    +0.000 OA
ATOM     22  C   UNL     1      -5.661   8.392 140.507  0.00  0.00    +0.000 C 
ATOM     23  N   UNL     1      -5.658   9.853 140.211  0.00  0.00    +0.000 N 
ATOM     24  C   UNL     1      -6.065  10.694 139.214  0.00  0.00    +0.000 C 
ATOM     25  O   UNL     1      -6.722  11.681 139.584  0.00  0.00    +0.000 OA
ATOM     26  H   UNL     1      -3.153  11.253 135.733  0.00  0.00    +0.000 HD
ATOM     27  H   UNL     1       0.077   7.489 132.582  0.00  0.00    +0.000 HD
ATOM     28  H   UNL     1      -3.396   4.200 141.988  0.00  0.00    +0.000 HD
ATOM     29  H   UNL     1      -6.094   5.741 138.156  0.00  0.00    +0.000 HD
ATOM     30  H   UNL     1      -4.713  10.132 140.086  0.00  0.00    +0.000 HD
ENDROOT
BRANCH  14  31
ATOM     31  C   UNL     1      -4.079   2.675 139.219  0.00  0.00    +0.000 C 
ATOM     32  O   UNL     1      -4.433   3.203 138.148  0.00  0.00    +0.000 OA
ATOM     33  N   UNL     1      -4.826   1.638 139.683  0.00  0.00    +0.000 N 
ATOM     34  C   UNL     1      -5.126   1.145 141.031  0.00  0.00    +0.000 C 
ATOM     35  C   UNL     1      -4.836  -0.311 140.883  0.00  0.00    +0.000 C 
ATOM     36  C   UNL     1      -5.409  -0.600 139.492  0.00  0.00    +0.000 C 
ATOM     37  C   UNL     1      -5.216   0.702 138.681  0.00  0.00    +0.000 C 
BRANCH  37  38
ATOM     38  C   UNL     1      -4.063   0.554 137.683  0.00  0.00    +0.000 C 
ATOM     39  O   UNL     1      -2.976   0.219 138.153  0.00  0.00    +0.000 OA
ATOM     40  N   UNL     1      -4.263   0.816 136.324  0.00  0.00    +0.000 N 
ATOM     41  H   UNL     1      -5.127   1.305 136.019  0.00  0.00    +0.000 HD
BRANCH  40  42
ATOM     42  C   UNL     1      -3.254   0.646 135.264  0.00  0.00    +0.000 C 
BRANCH  42  43
ATOM     43  C   UNL     1      -3.539   1.542 134.003  0.00  0.00    +0.000 C 
ATOM     44  O   UNL     1      -2.599   1.930 133.306  0.00  0.00    +0.000 OA
ATOM     45  N   UNL     1      -4.865   1.890 133.710  0.00  0.00    +0.000 N 
ATOM     46  H   UNL     1      -5.636   1.595 134.292  0.00  0.00    +0.000 HD
BRANCH  45  47
ATOM     47  C   UNL     1      -5.169   2.725 132.567  0.00  0.00    +0.000 C 
BRANCH  47  48
ATOM     48  N   UNL     1      -4.748   4.092 132.833  0.00  0.00    +0.000 NA
ATOM     49  H   UNL     1      -3.896   4.302 132.317  0.00  0.00    +0.000 HD
ATOM     50  H   UNL     1      -4.478   4.162 133.824  0.00  0.00    +0.000 HD
ENDBRANCH  47  48
ENDBRANCH  45  47
ENDBRANCH  42  43
BRANCH  42  51
ATOM     51  C   UNL     1      -3.270  -0.818 134.858  0.00  0.00    +0.000 C 
BRANCH  51  52
ATOM     52  C   UNL     1      -1.882  -1.419 134.835  0.00  0.00    +0.000 C 
BRANCH  52  53
ATOM     53  C   UNL     1      -1.671  -2.539 135.797  0.00  0.00    +0.000 C 
BRANCH  53  54
ATOM     54  C   UNL     1      -1.627  -3.896 135.084  0.00  0.00    +0.000 C 
BRANCH  54  55
ATOM     55  N   UNL     1      -2.317  -3.831 133.731  0.00  0.00    +0.000 N 
ATOM     56  C   UNL     1      -3.644  -4.329 133.480  0.00  0.00    +0.000 C 
ATOM     57  O   UNL     1      -4.182  -4.823 134.489  0.00  0.00    +0.000 OA
ATOM     58  H   UNL     1      -1.757  -3.405 133.018  0.00  0.00    +0.000 HD
BRANCH  56  59
ATOM     59  C   UNL     1      -4.590  -4.328 131.980  0.00  0.00    +0.000 A 
ATOM     60  C   UNL     1      -4.595  -3.211 131.352  0.00  0.00    +0.000 A 
ATOM     61  C   UNL     1      -5.501  -3.091 129.991  0.00  0.00    +0.000 A 
ATOM     62  C   UNL     1      -5.489  -2.140 129.337  0.00  0.00    +0.000 A 
ATOM     63  C   UNL     1      -5.981  -3.242 129.168  0.00  0.00    +0.000 A 
ATOM     64  C   UNL     1      -5.418  -4.555 130.793  0.00  0.00    +0.000 A 
ATOM     65  C   UNL     1      -6.364  -1.767 127.653  0.00  0.00    +0.000 C 
ATOM     66  O   UNL     1      -5.028  -1.158 127.748  0.00  0.00    +0.000 OA
ATOM     67  C   UNL     1      -4.924  -0.989 129.083  0.00  0.00    +0.000 C 
ATOM     68  O   UNL     1      -4.210  -0.715 130.030  0.00  0.00    +0.000 OA
ATOM     69  C   UNL     1      -7.462  -2.136 126.283  0.00  0.00    +0.000 A 
ATOM     70  C   UNL     1      -7.205  -3.225 125.476  0.00  0.00    +0.000 A 
ATOM     71  C   UNL     1      -8.099  -3.662 124.463  0.00  0.00    +0.000 A 
ATOM     72  C   UNL     1      -9.240  -2.932 124.140  0.00  0.00    +0.000 A 
ATOM     73  C   UNL     1      -9.473  -1.723 124.770  0.00  0.00    +0.000 A 
ATOM     74  C   UNL     1      -8.609  -1.323 125.817  0.00  0.00    +0.000 A 
ATOM     75  O   UNL     1      -8.944  -0.110 126.373  0.00  0.00    +0.000 OA
ATOM     76  C   UNL     1      -7.823   0.639 126.598  0.00  0.00    +0.000 A 
ATOM     77  C   UNL     1      -8.110   2.080 126.952  0.00  0.00    +0.000 A 
ATOM     78  C   UNL     1      -7.213   3.144 126.901  0.00  0.00    +0.000 A 
ATOM     79  C   UNL     1      -6.133   2.887 126.107  0.00  0.00    +0.000 A 
ATOM     80  C   UNL     1      -5.810   1.368 125.816  0.00  0.00    +0.000 A 
ATOM     81  C   UNL     1      -6.534   0.022 126.635  0.00  0.00    +0.000 A 
BRANCH  78  82
ATOM     82  O   UNL     1      -7.347   4.315 127.593  0.00  0.00    +0.000 OA
ATOM     83  H   UNL     1      -7.738   5.045 127.073  0.00  0.00    +0.000 HD
ENDBRANCH  78  82
BRANCH  72  84
ATOM     84  O   UNL     1     -10.171  -3.337 123.227  0.00  0.00    +0.000 OA
ATOM     85  H   UNL     1     -10.648  -2.598 122.815  0.00  0.00    +0.000 HD
ENDBRANCH  72  84
ENDBRANCH  56  59
ENDBRANCH  54  55
ENDBRANCH  53  54
ENDBRANCH  52  53
ENDBRANCH  51  52
ENDBRANCH  42  51
ENDBRANCH  40  42
ENDBRANCH  37  38
ENDBRANCH  14  31
BRANCH   5  86
ATOM     86  C   UNL     1      -2.551   9.170 132.917  0.00  0.00    +0.000 A 
ATOM     87  C   UNL     1      -2.468   7.778 132.954  0.00  0.00    +0.000 A 
ATOM     88  C   UNL     1      -2.791   7.186 131.764  0.00  0.00    +0.000 A 
ATOM     89  C   UNL     1      -3.207   7.985 130.687  0.00  0.00    +0.000 A 
ATOM     90  C   UNL     1      -3.168   9.374 130.717  0.00  0.00    +0.000 A 
ATOM     91  C   UNL     1      -2.909  10.005 131.882  0.00  0.00    +0.000 A 
BRANCH  89  92
ATOM     92  O   UNL     1      -3.642   7.473 129.510  0.00  0.00    +0.000 OA
ATOM     93  H   UNL     1      -2.997   6.850 129.151  0.00  0.00    +0.000 HD
ENDBRANCH  89  92
ENDBRANCH   5  86
BRANCH   1  94
ATOM     94  C   UNL     1      -7.858  10.108 138.583  0.00  0.00    +0.000 C 
ATOM     95  C   UNL     1      -8.770  10.403 140.388  0.00  0.00    +0.000 C 
BRANCH  94  97
ATOM     96  C   UNL     1      -9.876   9.085 137.340  0.00  0.00    +0.000 C 
ATOM     97  C   UNL     1      -9.886   9.665 138.649  0.00  0.00    +0.000 C 
ENDBRANCH  94  97
ENDBRANCH   1  94
BRANCH   9  98
ATOM     98  O   UNL     1      -1.105   9.361 135.630  0.00  0.00    +0.000 OA
ATOM     99  H   UNL     1      -0.732   9.647 134.791  0.00  0.00    +0.000 HD
ENDBRANCH   9  98
BRANCH  18 100
ATOM    100  C   UNL     1      -3.670   4.965 138.101  0.00  0.00    +0.000 C 
BRANCH 100 101
ATOM    101  C   UNL     1      -4.053   4.943 136.164  0.00  0.00    +0.000 C 
ATOM    102  N   UNL     1      -5.915   4.483 135.919  0.00  0.00    +0.000 N 
ATOM    103  O   UNL     1      -3.397   5.367 135.253  0.00  0.00    +0.000 OA
ATOM    104  H   UNL     1      -6.286   4.083 136.961  0.00  0.00    +0.000 HD
ATOM    105  H   UNL     1      -6.601   4.442 135.260  0.00  0.00    +0.000 HD
ENDBRANCH 100 101
ENDBRANCH  18 100
BRANCH  22 106
ATOM    106  C   UNL     1      -4.165   8.195 140.849  0.00  0.00    +0.000 C 
BRANCH 106 107
ATOM    107  C   UNL     1      -3.538   9.467 141.283  0.00  0.00    +0.000 C 
BRANCH 107 108
ATOM    108  C   UNL     1      -2.330  10.089 140.416  0.00  0.00    +0.000 C 
ATOM    109  N   UNL     1      -1.431  10.743 141.178  0.00  0.00    +0.000 N 
ATOM    110  O   UNL     1      -2.129  10.175 139.203  0.00  0.00    +0.000 OA
ATOM    111  H   UNL     1      -1.667  11.010 142.119  0.00  0.00    +0.000 HD
ATOM    112  H   UNL     1      -0.735  11.289 140.675  0.00  0.00    +0.000 HD
ENDBRANCH 107 108
ENDBRANCH 106 107
ENDBRANCH  22 106
TORSDOF 24
ENDMDL
MODEL 9
REMARK VINA RESULT:      -8.9      4.605     13.327
REMARK  Name = CHEMBL1790717
REMARK  26 active torsions:
REMARK  status: ('A' for Active; 'I' for Inactive)
REMARK    1  A    between atoms: C_1  and  C_2
REMARK    2  A    between atoms: C_2  and  C_3
REMARK    3  A    between atoms: C_3  and  C_4
REMARK    4  A    between atoms: C_3  and  C_5
REMARK    5  A    between atoms: C_9  and  C_10
REMARK    6  A    between atoms: C_13  and  O_14
REMARK    7  A    between atoms: C_20  and  O_21
REMARK    8  A    between atoms: C_26  and  C_27
REMARK    9  A    between atoms: C_33  and  C_34
REMARK   10  A    between atoms: N_36  and  C_37
REMARK   11  A    between atoms: C_37  and  C_38
REMARK   12  A    between atoms: C_37  and  C_70
REMARK   13  A    between atoms: C_38  and  C_39
REMARK   14  A    between atoms: C_39  and  C_40
REMARK   15  A    between atoms: C_40  and  C_41
REMARK   16  A    between atoms: C_41  and  N_42
REMARK   17  A    between atoms: C_43  and  C_45
REMARK   18  A    between atoms: C_58  and  O_59
REMARK   19  A    between atoms: C_65  and  O_66
REMARK   20  A    between atoms: N_72  and  C_73
REMARK   21  A    between atoms: C_73  and  N_74
REMARK   22  A    between atoms: C_78  and  C_79
REMARK   23  A    between atoms: C_79  and  C_80
REMARK   24  A    between atoms: C_86  and  C_87
REMARK   25  A    between atoms: C_87  and  C_88
REMARK   26  A    between atoms: C_88  and  C_89
REMARK                            x       y       z     vdW  Elec       q    Type
REMARK                         _______ _______ _______ _____ _____    ______ ____
ROOT
ATOM      1  C   UNL     1       2.369   7.891 138.099  0.00  0.00    +0.000 C 
ATOM      2  N   UNL     1       1.356   7.769 136.166  0.00  0.00    +0.000 N 
ATOM      3  C   UNL     1       0.300   7.845 134.391  0.00  0.00    +0.000 C 
ATOM      4  O   UNL     1       0.161   6.924 133.216  0.00  0.00    +0.000 OA
ATOM      5  C   UNL     1      -1.402   8.501 133.247  0.00  0.00    +0.000 C 
ATOM      6  N   UNL     1      -3.113   8.135 133.386  0.00  0.00    +0.000 N 
ATOM      7  C   UNL     1      -3.481   7.106 134.205  0.00  0.00    +0.000 C 
ATOM      8  O   UNL     1      -4.624   6.890 134.584  0.00  0.00    +0.000 OA
ATOM      9  C   UNL     1      -2.385   6.271 134.802  0.00  0.00    +0.000 C 
ATOM     10  C   UNL     1      -1.974   6.529 136.190  0.00  0.00    +0.000 C 
ATOM     11  S   UNL     1      -3.309   5.676 136.698  0.00  0.00    +0.000 S 
ATOM     12  S   UNL     1      -2.327   5.583 138.489  0.00  0.00    +0.000 S 
ATOM     13  C   UNL     1      -4.118   5.067 140.346  0.00  0.00    +0.000 C 
ATOM     14  C   UNL     1      -4.299   5.487 141.709  0.00  0.00    +0.000 C 
ATOM     15  N   UNL     1      -3.129   5.077 142.171  0.00  0.00    +0.000 N 
ATOM     16  C   UNL     1      -2.070   5.708 141.770  0.00  0.00    +0.000 C 
ATOM     17  O   UNL     1      -1.349   5.312 142.680  0.00  0.00    +0.000 OA
ATOM     18  C   UNL     1      -1.648   6.618 140.496  0.00  0.00    +0.000 C 
ATOM     19  N   UNL     1      -0.651   7.549 140.839  0.00  0.00    +0.000 N 
ATOM     20  C   UNL     1       0.668   7.275 141.109  0.00  0.00    +0.000 C 
ATOM     21  O   UNL     1       1.316   8.196 141.601  0.00  0.00    +0.000 OA
ATOM     22  C   UNL     1       1.408   5.877 140.770  0.00  0.00    +0.000 C 
ATOM     23  N   UNL     1       2.554   5.836 139.817  0.00  0.00    +0.000 N 
ATOM     24  C   UNL     1       3.251   6.699 139.019  0.00  0.00    +0.000 C 
ATOM     25  O   UNL     1       4.487   6.632 139.112  0.00  0.00    +0.000 OA
ATOM     26  H   UNL     1       1.466   7.515 134.889  0.00  0.00    +0.000 HD
ATOM     27  H   UNL     1      -3.995   8.676 133.055  0.00  0.00    +0.000 HD
ATOM     28  H   UNL     1      -2.925   4.125 142.515  0.00  0.00    +0.000 HD
ATOM     29  H   UNL     1      -1.060   8.443 141.026  0.00  0.00    +0.000 HD
ATOM     30  H   UNL     1       2.269   5.307 139.026  0.00  0.00    +0.000 HD
ENDROOT
BRANCH  14  31
ATOM     31  C   UNL     1      -4.420   6.959 142.075  0.00  0.00    +0.000 C 
ATOM     32  O   UNL     1      -3.591   7.839 141.776  0.00  0.00    +0.000 OA
ATOM     33  N   UNL     1      -5.392   7.292 142.966  0.00  0.00    +0.000 N 
ATOM     34  C   UNL     1      -6.142   6.522 143.963  0.00  0.00    +0.000 C 
ATOM     35  C   UNL     1      -7.545   6.928 143.655  0.00  0.00    +0.000 C 
ATOM     36  C   UNL     1      -7.376   8.425 143.372  0.00  0.00    +0.000 C 
ATOM     37  C   UNL     1      -5.969   8.578 142.750  0.00  0.00    +0.000 C 
BRANCH  37  38
ATOM     38  C   UNL     1      -6.066   8.817 141.240  0.00  0.00    +0.000 C 
ATOM     39  O   UNL     1      -5.671   9.910 140.836  0.00  0.00    +0.000 OA
ATOM     40  N   UNL     1      -6.600   7.835 140.400  0.00  0.00    +0.000 N 
ATOM     41  H   UNL     1      -7.118   7.035 140.812  0.00  0.00    +0.000 HD
BRANCH  40  42
ATOM     42  C   UNL     1      -6.684   7.923 138.932  0.00  0.00    +0.000 C 
BRANCH  42  43
ATOM     43  C   UNL     1      -7.762   8.961 138.445  0.00  0.00    +0.000 C 
ATOM     44  O   UNL     1      -7.401  10.065 138.029  0.00  0.00    +0.000 OA
ATOM     45  N   UNL     1      -9.116   8.605 138.508  0.00  0.00    +0.000 N 
ATOM     46  H   UNL     1      -9.418   7.713 138.870  0.00  0.00    +0.000 HD
BRANCH  45  47
ATOM     47  C   UNL     1     -10.140   9.537 138.084  0.00  0.00    +0.000 C 
BRANCH  47  48
ATOM     48  N   UNL     1     -11.121   8.848 137.261  0.00  0.00    +0.000 NA
ATOM     49  H   UNL     1     -11.532   8.075 137.780  0.00  0.00    +0.000 HD
ATOM     50  H   UNL     1     -10.629   8.401 136.474  0.00  0.00    +0.000 HD
ENDBRANCH  47  48
ENDBRANCH  45  47
ENDBRANCH  42  43
BRANCH  42  51
ATOM     51  C   UNL     1      -7.047   6.540 138.418  0.00  0.00    +0.000 C 
BRANCH  51  52
ATOM     52  C   UNL     1      -6.864   6.420 136.922  0.00  0.00    +0.000 C 
BRANCH  52  53
ATOM     53  C   UNL     1      -7.967   5.711 136.212  0.00  0.00    +0.000 C 
BRANCH  53  54
ATOM     54  C   UNL     1      -8.316   6.394 134.884  0.00  0.00    +0.000 C 
BRANCH  54  55
ATOM     55  N   UNL     1      -8.091   5.459 133.707  0.00  0.00    +0.000 N 
ATOM     56  C   UNL     1      -8.998   5.331 132.597  0.00  0.00    +0.000 C 
ATOM     57  O   UNL     1      -9.997   6.069 132.691  0.00  0.00    +0.000 OA
ATOM     58  H   UNL     1      -7.243   4.931 133.774  0.00  0.00    +0.000 HD
BRANCH  56  59
ATOM     59  C   UNL     1      -8.886   4.305 131.155  0.00  0.00    +0.000 A 
ATOM     60  C   UNL     1      -8.405   3.136 131.366  0.00  0.00    +0.000 A 
ATOM     61  C   UNL     1      -8.195   2.139 130.082  0.00  0.00    +0.000 A 
ATOM     62  C   UNL     1      -7.840   1.049 130.212  0.00  0.00    +0.000 A 
ATOM     63  C   UNL     1      -8.257   1.663 129.245  0.00  0.00    +0.000 A 
ATOM     64  C   UNL     1      -8.888   3.643 129.848  0.00  0.00    +0.000 A 
ATOM     65  C   UNL     1      -7.609  -0.358 128.905  0.00  0.00    +0.000 C 
ATOM     66  O   UNL     1      -8.109  -0.855 130.196  0.00  0.00    +0.000 OA
ATOM     67  C   UNL     1      -7.593   0.066 131.038  0.00  0.00    +0.000 C 
ATOM     68  O   UNL     1      -7.570   0.529 132.162  0.00  0.00    +0.000 OA
ATOM     69  C   UNL     1      -7.580  -1.034 127.245  0.00  0.00    +0.000 A 
ATOM     70  C   UNL     1      -8.733  -1.039 126.488  0.00  0.00    +0.000 A 
ATOM     71  C   UNL     1      -8.759  -1.428 125.123  0.00  0.00    +0.000 A 
ATOM     72  C   UNL     1      -7.630  -1.952 124.498  0.00  0.00    +0.000 A 
ATOM     73  C   UNL     1      -6.481  -2.162 125.237  0.00  0.00    +0.000 A 
ATOM     74  C   UNL     1      -6.446  -1.720 126.582  0.00  0.00    +0.000 A 
ATOM     75  O   UNL     1      -5.250  -1.974 127.213  0.00  0.00    +0.000 OA
ATOM     76  C   UNL     1      -5.467  -2.424 128.485  0.00  0.00    +0.000 A 
ATOM     77  C   UNL     1      -4.234  -2.982 129.157  0.00  0.00    +0.000 A 
ATOM     78  C   UNL     1      -4.198  -3.804 130.279  0.00  0.00    +0.000 A 
ATOM     79  C   UNL     1      -5.388  -4.429 130.516  0.00  0.00    +0.000 A 
ATOM     80  C   UNL     1      -6.673  -3.780 129.865  0.00  0.00    +0.000 A 
ATOM     81  C   UNL     1      -6.729  -2.214 129.123  0.00  0.00    +0.000 A 
BRANCH  78  82
ATOM     82  O   UNL     1      -3.118  -3.958 131.104  0.00  0.00    +0.000 OA
ATOM     83  H   UNL     1      -3.109  -3.349 131.869  0.00  0.00    +0.000 HD
ENDBRANCH  78  82
BRANCH  72  84
ATOM     84  O   UNL     1      -7.575  -2.276 123.172  0.00  0.00    +0.000 OA
ATOM     85  H   UNL     1      -8.267  -2.902 122.905  0.00  0.00    +0.000 HD
ENDBRANCH  72  84
ENDBRANCH  56  59
ENDBRANCH  54  55
ENDBRANCH  53  54
ENDBRANCH  52  53
ENDBRANCH  51  52
ENDBRANCH  42  51
ENDBRANCH  40  42
ENDBRANCH  37  38
ENDBRANCH  14  31
BRANCH   5  86
ATOM     86  C   UNL     1      -1.167   9.706 133.945  0.00  0.00    +0.000 A 
ATOM     87  C   UNL     1      -2.439  10.275 134.004  0.00  0.00    +0.000 A 
ATOM     88  C   UNL     1      -2.483  11.555 133.524  0.00  0.00    +0.000 A 
ATOM     89  C   UNL     1      -1.297  12.169 133.088  0.00  0.00    +0.000 A 
ATOM     90  C   UNL     1      -0.091  11.487 132.978  0.00  0.00    +0.000 A 
ATOM     91  C   UNL     1       0.017  10.241 133.488  0.00  0.00    +0.000 A 
BRANCH  89  92
ATOM     92  O   UNL     1      -1.234  13.463 132.696  0.00  0.00    +0.000 OA
ATOM     93  H   UNL     1      -0.998  13.525 131.761  0.00  0.00    +0.000 HD
ENDBRANCH  89  92
ENDBRANCH   5  86
BRANCH   1  94
ATOM     94  C   UNL     1       3.562   8.383 140.029  0.00  0.00    +0.000 C 
ATOM     95  C   UNL     1       4.343   7.497 141.697  0.00  0.00    +0.000 C 
BRANCH  94  97
ATOM     96  C   UNL     1       3.808  10.814 140.864  0.00  0.00    +0.000 C 
ATOM     97  C   UNL     1       4.487   9.663 141.378  0.00  0.00    +0.000 C 
ENDBRANCH  94  97
ENDBRANCH   1  94
BRANCH   9  98
ATOM     98  O   UNL     1      -1.186   6.696 134.599  0.00  0.00    +0.000 OA
ATOM     99  H   UNL     1      -1.380   7.638 134.567  0.00  0.00    +0.000 HD
ENDBRANCH   9  98
BRANCH  18 100
ATOM    100  C   UNL     1      -2.972   7.153 139.947  0.00  0.00    +0.000 C 
BRANCH 100 101
ATOM    101  C   UNL     1      -3.190   8.857 138.972  0.00  0.00    +0.000 C 
ATOM    102  N   UNL     1      -2.558  10.291 140.105  0.00  0.00    +0.000 N 
ATOM    103  O   UNL     1      -3.419   9.045 137.809  0.00  0.00    +0.000 OA
ATOM    104  H   UNL     1      -2.443   9.823 141.179  0.00  0.00    +0.000 HD
ATOM    105  H   UNL     1      -2.345  11.218 140.099  0.00  0.00    +0.000 HD
ENDBRANCH 100 101
ENDBRANCH  18 100
BRANCH  22 106
ATOM    106  C   UNL     1       0.541   4.739 140.179  0.00  0.00    +0.000 C 
BRANCH 106 107
ATOM    107  C   UNL     1       1.019   3.408 140.626  0.00  0.00    +0.000 C 
BRANCH 107 108
ATOM    108  C   UNL     1       0.895   2.148 139.628  0.00  0.00    +0.000 C 
ATOM    109  N   UNL     1      -0.214   2.202 138.865  0.00  0.00    +0.000 N 
ATOM    110  O   UNL     1       1.547   1.109 139.507  0.00  0.00    +0.000 OA
ATOM    111  H   UNL     1      -0.967   2.824 139.112  0.00  0.00    +0.000 HD
ATOM    112  H   UNL     1      -0.429   1.362 138.332  0.00  0.00    +0.000 HD
ENDBRANCH 107 108
ENDBRANCH 106 107
ENDBRANCH  22 106
TORSDOF 24
ENDMDL
