MODEL 1
REMARK VINA RESULT:     -11.0      0.000      0.000
REMARK  Name = CHEMBL2113205
REMARK  8 active torsions:
REMARK  status: ('A' for Active; 'I' for Inactive)
REMARK    1  A    between atoms: C_1  and  C_2
REMARK    2  A    between atoms: C_5  and  N_6
REMARK    3  A    between atoms: N_6  and  C_7
REMARK    4  A    between atoms: N_6  and  S_22
REMARK    5  A    between atoms: C_7  and  C_8
REMARK    6  A    between atoms: N_10  and  N_11
REMARK    7  A    between atoms: S_22  and  C_25
REMARK    8  A    between atoms: C_28  and  C_29
REMARK                            x       y       z     vdW  Elec       q    Type
REMARK                         _______ _______ _______ _____ _____    ______ ____
ROOT
ATOM      1  N   UNL     1      -7.839   2.394 124.540  0.00  0.00    +0.000 N 
ENDROOT
BRANCH   1   6
ATOM      2  C   UNL     1      -7.280   4.347 119.102  0.00  0.00    +0.000 C 
ATOM      3  C   UNL     1      -7.334   3.870 120.510  0.00  0.00    +0.000 A 
ATOM      4  C   UNL     1      -8.572   3.690 121.059  0.00  0.00    +0.000 A 
ATOM      5  C   UNL     1      -8.650   3.050 122.278  0.00  0.00    +0.000 A 
ATOM      6  C   UNL     1      -7.593   2.856 123.164  0.00  0.00    +0.000 A 
ATOM      7  C   UNL     1      -6.337   3.050 122.596  0.00  0.00    +0.000 A 
ATOM      8  C   UNL     1      -6.212   3.510 121.265  0.00  0.00    +0.000 A 
ENDBRANCH   1   6
BRANCH   1   9
ATOM      9  S   UNL     1      -8.486   0.768 124.735  0.00  0.00    +0.000 S 
ATOM     10  O   UNL     1      -8.802   0.613 126.144  0.00  0.00    +0.000 OA
ATOM     11  O   UNL     1      -9.534   0.571 123.749  0.00  0.00    +0.000 OA
BRANCH   9  12
ATOM     12  C   UNL     1      -7.289  -0.543 124.393  0.00  0.00    +0.000 A 
ATOM     13  C   UNL     1      -7.089  -1.084 123.134  0.00  0.00    +0.000 A 
ATOM     14  C   UNL     1      -6.196  -2.110 122.869  0.00  0.00    +0.000 A 
ATOM     15  C   UNL     1      -5.438  -2.639 123.894  0.00  0.00    +0.000 A 
ATOM     16  C   UNL     1      -5.593  -2.116 125.183  0.00  0.00    +0.000 A 
ATOM     17  C   UNL     1      -6.515  -1.072 125.441  0.00  0.00    +0.000 A 
BRANCH  15  18
ATOM     18  C   UNL     1      -4.538  -3.698 123.587  0.00  0.00    +0.000 C 
ATOM     19  N   UNL     1      -3.828  -4.607 123.382  0.00  0.00    +0.000 NA
ENDBRANCH  15  18
ENDBRANCH   9  12
ENDBRANCH   1   9
BRANCH   1  20
ATOM     20  C   UNL     1      -7.384   3.222 125.726  0.00  0.00    +0.000 C 
BRANCH  20  21
ATOM     21  C   UNL     1      -8.099   4.369 126.471  0.00  0.00    +0.000 C 
ATOM     22  O   UNL     1      -8.664   5.276 125.849  0.00  0.00    +0.000 OA
ATOM     23  N   UNL     1      -8.058   4.507 127.871  0.00  0.00    +0.000 N 
ATOM     24  H   UNL     1      -7.210   4.361 128.412  0.00  0.00    +0.000 HD
BRANCH  23  25
ATOM     25  N   UNL     1      -8.994   5.420 128.310  0.00  0.00    +0.000 NA
ATOM     26  C   UNL     1      -9.803   5.418 129.316  0.00  0.00    +0.000 C 
ATOM     27  C   UNL     1     -10.136   4.442 130.456  0.00  0.00    +0.000 C 
ATOM     28  O   UNL     1      -9.644   3.354 130.662  0.00  0.00    +0.000 OA
ATOM     29  N   UNL     1     -11.149   5.050 131.184  0.00  0.00    +0.000 N 
ATOM     30  C   UNL     1     -11.505   6.271 130.629  0.00  0.00    +0.000 A 
ATOM     31  C   UNL     1     -12.514   7.117 131.048  0.00  0.00    +0.000 A 
ATOM     32  C   UNL     1     -12.707   8.295 130.321  0.00  0.00    +0.000 A 
ATOM     33  C   UNL     1     -11.892   8.600 129.212  0.00  0.00    +0.000 A 
ATOM     34  C   UNL     1     -10.881   7.725 128.798  0.00  0.00    +0.000 A 
ATOM     35  C   UNL     1     -10.716   6.560 129.524  0.00  0.00    +0.000 A 
ATOM     36  H   UNL     1     -11.598   4.627 131.982  0.00  0.00    +0.000 HD
ENDBRANCH  23  25
ENDBRANCH  20  21
ENDBRANCH   1  20
TORSDOF 7
ENDMDL
MODEL 2
REMARK VINA RESULT:     -10.1      1.685      2.244
REMARK  Name = CHEMBL2113205
REMARK  8 active torsions:
REMARK  status: ('A' for Active; 'I' for Inactive)
REMARK    1  A    between atoms: C_1  and  C_2
REMARK    2  A    between atoms: C_5  and  N_6
REMARK    3  A    between atoms: N_6  and  C_7
REMARK    4  A    between atoms: N_6  and  S_22
REMARK    5  A    between atoms: C_7  and  C_8
REMARK    6  A    between atoms: N_10  and  N_11
REMARK    7  A    between atoms: S_22  and  C_25
REMARK    8  A    between atoms: C_28  and  C_29
REMARK                            x       y       z     vdW  Elec       q    Type
REMARK                         _______ _______ _______ _____ _____    ______ ____
ROOT
ATOM      1  N   UNL     1      -7.823   2.127 124.428  0.00  0.00    +0.000 N 
ENDROOT
BRANCH   1   6
ATOM      2  C   UNL     1      -6.861   4.545 119.239  0.00  0.00    +0.000 C 
ATOM      3  C   UNL     1      -7.192   3.900 120.537  0.00  0.00    +0.000 A 
ATOM      4  C   UNL     1      -6.151   3.623 121.378  0.00  0.00    +0.000 A 
ATOM      5  C   UNL     1      -6.449   3.226 122.665  0.00  0.00    +0.000 A 
ATOM      6  C   UNL     1      -7.686   2.764 123.108  0.00  0.00    +0.000 A 
ATOM      7  C   UNL     1      -8.738   3.044 122.239  0.00  0.00    +0.000 A 
ATOM      8  C   UNL     1      -8.494   3.648 120.985  0.00  0.00    +0.000 A 
ENDBRANCH   1   6
BRANCH   1   9
ATOM      9  S   UNL     1      -8.256   0.421 124.452  0.00  0.00    +0.000 S 
ATOM     10  O   UNL     1      -9.674   0.356 124.758  0.00  0.00    +0.000 OA
ATOM     11  O   UNL     1      -7.767  -0.194 123.231  0.00  0.00    +0.000 OA
BRANCH   9  12
ATOM     12  C   UNL     1      -7.465  -0.517 125.780  0.00  0.00    +0.000 A 
ATOM     13  C   UNL     1      -8.157  -1.051 126.854  0.00  0.00    +0.000 A 
ATOM     14  C   UNL     1      -7.556  -1.745 127.891  0.00  0.00    +0.000 A 
ATOM     15  C   UNL     1      -6.190  -1.943 127.880  0.00  0.00    +0.000 A 
ATOM     16  C   UNL     1      -5.446  -1.435 126.808  0.00  0.00    +0.000 A 
ATOM     17  C   UNL     1      -6.074  -0.722 125.758  0.00  0.00    +0.000 A 
BRANCH  15  18
ATOM     18  C   UNL     1      -5.604  -2.652 128.967  0.00  0.00    +0.000 C 
ATOM     19  N   UNL     1      -5.063  -3.233 129.828  0.00  0.00    +0.000 NA
ENDBRANCH  15  18
ENDBRANCH   9  12
ENDBRANCH   1   9
BRANCH   1  20
ATOM     20  C   UNL     1      -7.433   2.872 125.689  0.00  0.00    +0.000 C 
BRANCH  20  21
ATOM     21  C   UNL     1      -8.109   4.072 126.385  0.00  0.00    +0.000 C 
ATOM     22  O   UNL     1      -8.742   4.911 125.733  0.00  0.00    +0.000 OA
ATOM     23  N   UNL     1      -7.958   4.338 127.759  0.00  0.00    +0.000 N 
ATOM     24  H   UNL     1      -7.066   4.254 128.238  0.00  0.00    +0.000 HD
BRANCH  23  25
ATOM     25  N   UNL     1      -8.874   5.275 128.190  0.00  0.00    +0.000 NA
ATOM     26  C   UNL     1      -9.695   5.293 129.186  0.00  0.00    +0.000 C 
ATOM     27  C   UNL     1     -10.067   4.324 130.320  0.00  0.00    +0.000 C 
ATOM     28  O   UNL     1      -9.606   3.223 130.528  0.00  0.00    +0.000 OA
ATOM     29  N   UNL     1     -11.071   4.957 131.037  0.00  0.00    +0.000 N 
ATOM     30  C   UNL     1     -11.388   6.188 130.481  0.00  0.00    +0.000 A 
ATOM     31  C   UNL     1     -12.379   7.060 130.892  0.00  0.00    +0.000 A 
ATOM     32  C   UNL     1     -12.532   8.245 130.165  0.00  0.00    +0.000 A 
ATOM     33  C   UNL     1     -11.695   8.530 129.066  0.00  0.00    +0.000 A 
ATOM     34  C   UNL     1     -10.704   7.629 128.662  0.00  0.00    +0.000 A 
ATOM     35  C   UNL     1     -10.578   6.459 129.387  0.00  0.00    +0.000 A 
ATOM     36  H   UNL     1     -11.541   4.544 131.829  0.00  0.00    +0.000 HD
ENDBRANCH  23  25
ENDBRANCH  20  21
ENDBRANCH   1  20
TORSDOF 7
ENDMDL
MODEL 3
REMARK VINA RESULT:      -9.9      3.912      4.626
REMARK  Name = CHEMBL2113205
REMARK  8 active torsions:
REMARK  status: ('A' for Active; 'I' for Inactive)
REMARK    1  A    between atoms: C_1  and  C_2
REMARK    2  A    between atoms: C_5  and  N_6
REMARK    3  A    between atoms: N_6  and  C_7
REMARK    4  A    between atoms: N_6  and  S_22
REMARK    5  A    between atoms: C_7  and  C_8
REMARK    6  A    between atoms: N_10  and  N_11
REMARK    7  A    between atoms: S_22  and  C_25
REMARK    8  A    between atoms: C_28  and  C_29
REMARK                            x       y       z     vdW  Elec       q    Type
REMARK                         _______ _______ _______ _____ _____    ______ ____
ROOT
ATOM      1  N   UNL     1      -8.350   1.868 124.147  0.00  0.00    +0.000 N 
ENDROOT
BRANCH   1   6
ATOM      2  C   UNL     1      -6.891   4.519 119.193  0.00  0.00    +0.000 C 
ATOM      3  C   UNL     1      -7.175   3.847 120.489  0.00  0.00    +0.000 A 
ATOM      4  C   UNL     1      -8.483   3.777 120.880  0.00  0.00    +0.000 A 
ATOM      5  C   UNL     1      -8.791   2.978 121.961  0.00  0.00    +0.000 A 
ATOM      6  C   UNL     1      -7.883   2.491 122.898  0.00  0.00    +0.000 A 
ATOM      7  C   UNL     1      -6.553   2.575 122.492  0.00  0.00    +0.000 A 
ATOM      8  C   UNL     1      -6.210   3.208 121.276  0.00  0.00    +0.000 A 
ENDBRANCH   1   6
BRANCH   1   9
ATOM      9  S   UNL     1      -8.966   0.222 124.038  0.00  0.00    +0.000 S 
ATOM     10  O   UNL     1      -9.609  -0.065 125.308  0.00  0.00    +0.000 OA
ATOM     11  O   UNL     1      -9.734   0.100 122.812  0.00  0.00    +0.000 OA
BRANCH   9  12
ATOM     12  C   UNL     1      -7.675  -1.035 123.892  0.00  0.00    +0.000 A 
ATOM     13  C   UNL     1      -7.315  -1.882 124.926  0.00  0.00    +0.000 A 
ATOM     14  C   UNL     1      -6.306  -2.828 124.832  0.00  0.00    +0.000 A 
ATOM     15  C   UNL     1      -5.607  -2.967 123.651  0.00  0.00    +0.000 A 
ATOM     16  C   UNL     1      -5.943  -2.143 122.569  0.00  0.00    +0.000 A 
ATOM     17  C   UNL     1      -6.972  -1.176 122.682  0.00  0.00    +0.000 A 
BRANCH  15  18
ATOM     18  C   UNL     1      -4.571  -3.942 123.593  0.00  0.00    +0.000 C 
ATOM     19  N   UNL     1      -3.697  -4.716 123.488  0.00  0.00    +0.000 NA
ENDBRANCH  15  18
ENDBRANCH   9  12
ENDBRANCH   1   9
BRANCH   1  20
ATOM     20  C   UNL     1      -8.139   2.558 125.480  0.00  0.00    +0.000 C 
BRANCH  20  21
ATOM     21  C   UNL     1      -6.933   3.366 126.002  0.00  0.00    +0.000 C 
ATOM     22  O   UNL     1      -7.049   4.560 126.302  0.00  0.00    +0.000 OA
ATOM     23  N   UNL     1      -5.631   2.834 126.063  0.00  0.00    +0.000 N 
ATOM     24  H   UNL     1      -5.235   2.266 125.318  0.00  0.00    +0.000 HD
BRANCH  23  25
ATOM     25  N   UNL     1      -4.800   3.633 126.820  0.00  0.00    +0.000 NA
ATOM     26  C   UNL     1      -4.449   3.590 128.062  0.00  0.00    +0.000 C 
ATOM     27  C   UNL     1      -4.781   2.695 129.267  0.00  0.00    +0.000 C 
ATOM     28  O   UNL     1      -5.522   1.736 129.290  0.00  0.00    +0.000 OA
ATOM     29  N   UNL     1      -4.082   3.235 130.337  0.00  0.00    +0.000 N 
ATOM     30  C   UNL     1      -3.376   4.367 129.957  0.00  0.00    +0.000 A 
ATOM     31  C   UNL     1      -2.624   5.195 130.770  0.00  0.00    +0.000 A 
ATOM     32  C   UNL     1      -2.010   6.298 130.169  0.00  0.00    +0.000 A 
ATOM     33  C   UNL     1      -2.151   6.538 128.787  0.00  0.00    +0.000 A 
ATOM     34  C   UNL     1      -2.924   5.692 127.984  0.00  0.00    +0.000 A 
ATOM     35  C   UNL     1      -3.532   4.615 128.600  0.00  0.00    +0.000 A 
ATOM     36  H   UNL     1      -4.130   2.874 131.278  0.00  0.00    +0.000 HD
ENDBRANCH  23  25
ENDBRANCH  20  21
ENDBRANCH   1  20
TORSDOF 7
ENDMDL
MODEL 4
REMARK VINA RESULT:      -9.9      3.707      4.814
REMARK  Name = CHEMBL2113205
REMARK  8 active torsions:
REMARK  status: ('A' for Active; 'I' for Inactive)
REMARK    1  A    between atoms: C_1  and  C_2
REMARK    2  A    between atoms: C_5  and  N_6
REMARK    3  A    between atoms: N_6  and  C_7
REMARK    4  A    between atoms: N_6  and  S_22
REMARK    5  A    between atoms: C_7  and  C_8
REMARK    6  A    between atoms: N_10  and  N_11
REMARK    7  A    between atoms: S_22  and  C_25
REMARK    8  A    between atoms: C_28  and  C_29
REMARK                            x       y       z     vdW  Elec       q    Type
REMARK                         _______ _______ _______ _____ _____    ______ ____
ROOT
ATOM      1  N   UNL     1      -8.580   1.346 124.523  0.00  0.00    +0.000 N 
ENDROOT
BRANCH   1   6
ATOM      2  C   UNL     1      -6.355   4.308 120.055  0.00  0.00    +0.000 C 
ATOM      3  C   UNL     1      -7.007   3.549 121.154  0.00  0.00    +0.000 A 
ATOM      4  C   UNL     1      -6.187   2.909 122.041  0.00  0.00    +0.000 A 
ATOM      5  C   UNL     1      -6.755   2.382 123.181  0.00  0.00    +0.000 A 
ATOM      6  C   UNL     1      -8.114   2.144 123.378  0.00  0.00    +0.000 A 
ATOM      7  C   UNL     1      -8.939   2.795 122.465  0.00  0.00    +0.000 A 
ATOM      8  C   UNL     1      -8.387   3.527 121.389  0.00  0.00    +0.000 A 
ENDBRANCH   1   6
BRANCH   1   9
ATOM      9  S   UNL     1      -9.089  -0.307 124.192  0.00  0.00    +0.000 S 
ATOM     10  O   UNL     1      -9.770  -0.779 125.385  0.00  0.00    +0.000 OA
ATOM     11  O   UNL     1      -9.793  -0.324 122.922  0.00  0.00    +0.000 OA
BRANCH   9  12
ATOM     12  C   UNL     1      -7.719  -1.465 123.967  0.00  0.00    +0.000 A 
ATOM     13  C   UNL     1      -7.451  -2.508 124.836  0.00  0.00    +0.000 A 
ATOM     14  C   UNL     1      -6.385  -3.381 124.688  0.00  0.00    +0.000 A 
ATOM     15  C   UNL     1      -5.528  -3.238 123.617  0.00  0.00    +0.000 A 
ATOM     16  C   UNL     1      -5.764  -2.207 122.700  0.00  0.00    +0.000 A 
ATOM     17  C   UNL     1      -6.853  -1.317 122.868  0.00  0.00    +0.000 A 
BRANCH  15  18
ATOM     18  C   UNL     1      -4.438  -4.147 123.501  0.00  0.00    +0.000 C 
ATOM     19  N   UNL     1      -3.508  -4.859 123.452  0.00  0.00    +0.000 NA
ENDBRANCH  15  18
ENDBRANCH   9  12
ENDBRANCH   1   9
BRANCH   1  20
ATOM     20  C   UNL     1      -8.453   1.876 125.938  0.00  0.00    +0.000 C 
BRANCH  20  21
ATOM     21  C   UNL     1      -7.442   2.875 126.539  0.00  0.00    +0.000 C 
ATOM     22  O   UNL     1      -7.636   4.095 126.469  0.00  0.00    +0.000 OA
ATOM     23  N   UNL     1      -6.213   2.471 127.093  0.00  0.00    +0.000 N 
ATOM     24  H   UNL     1      -5.624   1.763 126.662  0.00  0.00    +0.000 HD
BRANCH  23  25
ATOM     25  N   UNL     1      -5.629   3.494 127.811  0.00  0.00    +0.000 NA
ATOM     26  C   UNL     1      -4.435   3.986 127.807  0.00  0.00    +0.000 C 
ATOM     27  C   UNL     1      -3.125   3.682 127.063  0.00  0.00    +0.000 C 
ATOM     28  O   UNL     1      -2.932   2.822 126.232  0.00  0.00    +0.000 OA
ATOM     29  N   UNL     1      -2.193   4.577 127.569  0.00  0.00    +0.000 N 
ATOM     30  C   UNL     1      -2.750   5.384 128.550  0.00  0.00    +0.000 A 
ATOM     31  C   UNL     1      -2.105   6.340 129.312  0.00  0.00    +0.000 A 
ATOM     32  C   UNL     1      -2.868   7.025 130.262  0.00  0.00    +0.000 A 
ATOM     33  C   UNL     1      -4.242   6.749 130.419  0.00  0.00    +0.000 A 
ATOM     34  C   UNL     1      -4.874   5.771 129.643  0.00  0.00    +0.000 A 
ATOM     35  C   UNL     1      -4.098   5.098 128.719  0.00  0.00    +0.000 A 
ATOM     36  H   UNL     1      -1.223   4.595 127.289  0.00  0.00    +0.000 HD
ENDBRANCH  23  25
ENDBRANCH  20  21
ENDBRANCH   1  20
TORSDOF 7
ENDMDL
MODEL 5
REMARK VINA RESULT:      -9.6      2.733      5.308
REMARK  Name = CHEMBL2113205
REMARK  8 active torsions:
REMARK  status: ('A' for Active; 'I' for Inactive)
REMARK    1  A    between atoms: C_1  and  C_2
REMARK    2  A    between atoms: C_5  and  N_6
REMARK    3  A    between atoms: N_6  and  C_7
REMARK    4  A    between atoms: N_6  and  S_22
REMARK    5  A    between atoms: C_7  and  C_8
REMARK    6  A    between atoms: N_10  and  N_11
REMARK    7  A    between atoms: S_22  and  C_25
REMARK    8  A    between atoms: C_28  and  C_29
REMARK                            x       y       z     vdW  Elec       q    Type
REMARK                         _______ _______ _______ _____ _____    ______ ____
ROOT
ATOM      1  N   UNL     1      -8.566  -0.400 125.161  0.00  0.00    +0.000 N 
ENDROOT
BRANCH   1   6
ATOM      2  C   UNL     1      -4.616  -4.379 123.658  0.00  0.00    +0.000 C 
ATOM      3  C   UNL     1      -5.682  -3.430 124.076  0.00  0.00    +0.000 A 
ATOM      4  C   UNL     1      -5.335  -2.112 124.182  0.00  0.00    +0.000 A 
ATOM      5  C   UNL     1      -6.345  -1.190 124.356  0.00  0.00    +0.000 A 
ATOM      6  C   UNL     1      -7.648  -1.477 124.759  0.00  0.00    +0.000 A 
ATOM      7  C   UNL     1      -7.987  -2.824 124.654  0.00  0.00    +0.000 A 
ATOM      8  C   UNL     1      -7.022  -3.782 124.272  0.00  0.00    +0.000 A 
ENDBRANCH   1   6
BRANCH   1   9
ATOM      9  S   UNL     1      -9.419   0.445 123.873  0.00  0.00    +0.000 S 
ATOM     10  O   UNL     1      -9.738  -0.549 122.863  0.00  0.00    +0.000 OA
ATOM     11  O   UNL     1     -10.493   1.221 124.466  0.00  0.00    +0.000 OA
BRANCH   9  12
ATOM     12  C   UNL     1      -8.407   1.664 123.001  0.00  0.00    +0.000 A 
ATOM     13  C   UNL     1      -8.919   2.561 122.078  0.00  0.00    +0.000 A 
ATOM     14  C   UNL     1      -8.147   3.477 121.383  0.00  0.00    +0.000 A 
ATOM     15  C   UNL     1      -6.787   3.534 121.607  0.00  0.00    +0.000 A 
ATOM     16  C   UNL     1      -6.222   2.659 122.542  0.00  0.00    +0.000 A 
ATOM     17  C   UNL     1      -7.023   1.722 123.240  0.00  0.00    +0.000 A 
BRANCH  15  18
ATOM     18  C   UNL     1      -6.023   4.482 120.868  0.00  0.00    +0.000 C 
ATOM     19  N   UNL     1      -5.350   5.212 120.246  0.00  0.00    +0.000 NA
ENDBRANCH  15  18
ENDBRANCH   9  12
ENDBRANCH   1   9
BRANCH   1  20
ATOM     20  C   UNL     1      -8.886  -0.162 126.623  0.00  0.00    +0.000 C 
BRANCH  20  21
ATOM     21  C   UNL     1      -8.580   1.053 127.524  0.00  0.00    +0.000 C 
ATOM     22  O   UNL     1      -8.669   2.206 127.087  0.00  0.00    +0.000 OA
ATOM     23  N   UNL     1      -8.087   0.921 128.836  0.00  0.00    +0.000 N 
ATOM     24  H   UNL     1      -7.366   0.249 129.086  0.00  0.00    +0.000 HD
BRANCH  23  25
ATOM     25  N   UNL     1      -8.169   2.115 129.522  0.00  0.00    +0.000 NA
ATOM     26  C   UNL     1      -8.681   2.426 130.665  0.00  0.00    +0.000 C 
ATOM     27  C   UNL     1      -9.442   1.674 131.769  0.00  0.00    +0.000 C 
ATOM     28  O   UNL     1      -9.743   0.501 131.788  0.00  0.00    +0.000 OA
ATOM     29  N   UNL     1      -9.748   2.629 132.728  0.00  0.00    +0.000 N 
ATOM     30  C   UNL     1      -9.294   3.885 132.352  0.00  0.00    +0.000 A 
ATOM     31  C   UNL     1      -9.476   5.076 133.028  0.00  0.00    +0.000 A 
ATOM     32  C   UNL     1      -8.943   6.231 132.447  0.00  0.00    +0.000 A 
ATOM     33  C   UNL     1      -8.242   6.166 131.226  0.00  0.00    +0.000 A 
ATOM     34  C   UNL     1      -8.077   4.950 130.553  0.00  0.00    +0.000 A 
ATOM     35  C   UNL     1      -8.622   3.824 131.138  0.00  0.00    +0.000 A 
ATOM     36  H   UNL     1     -10.278   2.434 133.564  0.00  0.00    +0.000 HD
ENDBRANCH  23  25
ENDBRANCH  20  21
ENDBRANCH   1  20
TORSDOF 7
ENDMDL
MODEL 6
REMARK VINA RESULT:      -9.6      3.241      4.597
REMARK  Name = CHEMBL2113205
REMARK  8 active torsions:
REMARK  status: ('A' for Active; 'I' for Inactive)
REMARK    1  A    between atoms: C_1  and  C_2
REMARK    2  A    between atoms: C_5  and  N_6
REMARK    3  A    between atoms: N_6  and  C_7
REMARK    4  A    between atoms: N_6  and  S_22
REMARK    5  A    between atoms: C_7  and  C_8
REMARK    6  A    between atoms: N_10  and  N_11
REMARK    7  A    between atoms: S_22  and  C_25
REMARK    8  A    between atoms: C_28  and  C_29
REMARK                            x       y       z     vdW  Elec       q    Type
REMARK                         _______ _______ _______ _____ _____    ______ ____
ROOT
ATOM      1  N   UNL     1      -7.151   1.472 127.225  0.00  0.00    +0.000 N 
ENDROOT
BRANCH   1   6
ATOM      2  C   UNL     1      -5.704  -3.137 124.006  0.00  0.00    +0.000 C 
ATOM      3  C   UNL     1      -6.159  -1.996 124.844  0.00  0.00    +0.000 A 
ATOM      4  C   UNL     1      -5.194  -1.162 125.338  0.00  0.00    +0.000 A 
ATOM      5  C   UNL     1      -5.600   0.013 125.932  0.00  0.00    +0.000 A 
ATOM      6  C   UNL     1      -6.889   0.298 126.378  0.00  0.00    +0.000 A 
ATOM      7  C   UNL     1      -7.862  -0.562 125.875  0.00  0.00    +0.000 A 
ATOM      8  C   UNL     1      -7.500  -1.672 125.079  0.00  0.00    +0.000 A 
ENDBRANCH   1   6
BRANCH   1   9
ATOM      9  S   UNL     1      -7.146   1.218 128.967  0.00  0.00    +0.000 S 
ATOM     10  O   UNL     1      -6.053   2.012 129.500  0.00  0.00    +0.000 OA
ATOM     11  O   UNL     1      -8.491   1.442 129.467  0.00  0.00    +0.000 OA
BRANCH   9  12
ATOM     12  C   UNL     1      -6.755  -0.476 129.460  0.00  0.00    +0.000 A 
ATOM     13  C   UNL     1      -5.462  -0.965 129.552  0.00  0.00    +0.000 A 
ATOM     14  C   UNL     1      -5.155  -2.270 129.899  0.00  0.00    +0.000 A 
ATOM     15  C   UNL     1      -6.170  -3.159 130.186  0.00  0.00    +0.000 A 
ATOM     16  C   UNL     1      -7.494  -2.710 130.122  0.00  0.00    +0.000 A 
ATOM     17  C   UNL     1      -7.795  -1.375 129.759  0.00  0.00    +0.000 A 
BRANCH  15  18
ATOM     18  C   UNL     1      -5.817  -4.495 130.530  0.00  0.00    +0.000 C 
ATOM     19  N   UNL     1      -5.553  -5.584 130.875  0.00  0.00    +0.000 NA
ENDBRANCH  15  18
ENDBRANCH   9  12
ENDBRANCH   1   9
BRANCH   1  20
ATOM     20  C   UNL     1      -7.242   2.859 126.618  0.00  0.00    +0.000 C 
BRANCH  20  21
ATOM     21  C   UNL     1      -7.970   4.121 127.125  0.00  0.00    +0.000 C 
ATOM     22  O   UNL     1      -8.348   4.996 126.338  0.00  0.00    +0.000 OA
ATOM     23  N   UNL     1      -8.148   4.397 128.494  0.00  0.00    +0.000 N 
ATOM     24  H   UNL     1      -7.414   4.250 129.182  0.00  0.00    +0.000 HD
BRANCH  23  25
ATOM     25  N   UNL     1      -9.063   5.412 128.684  0.00  0.00    +0.000 NA
ATOM     26  C   UNL     1      -9.925   5.640 129.617  0.00  0.00    +0.000 C 
ATOM     27  C   UNL     1     -10.365   4.924 130.905  0.00  0.00    +0.000 C 
ATOM     28  O   UNL     1      -9.936   3.883 131.352  0.00  0.00    +0.000 OA
ATOM     29  N   UNL     1     -11.387   5.700 131.432  0.00  0.00    +0.000 N 
ATOM     30  C   UNL     1     -11.655   6.796 130.625  0.00  0.00    +0.000 A 
ATOM     31  C   UNL     1     -12.645   7.744 130.804  0.00  0.00    +0.000 A 
ATOM     32  C   UNL     1     -12.743   8.758 129.847  0.00  0.00    +0.000 A 
ATOM     33  C   UNL     1     -11.855   8.806 128.753  0.00  0.00    +0.000 A 
ATOM     34  C   UNL     1     -10.864   7.831 128.586  0.00  0.00    +0.000 A 
ATOM     35  C   UNL     1     -10.794   6.831 129.537  0.00  0.00    +0.000 A 
ATOM     36  H   UNL     1     -11.898   5.461 132.269  0.00  0.00    +0.000 HD
ENDBRANCH  23  25
ENDBRANCH  20  21
ENDBRANCH   1  20
TORSDOF 7
ENDMDL
MODEL 7
REMARK VINA RESULT:      -9.6      3.870      5.486
REMARK  Name = CHEMBL2113205
REMARK  8 active torsions:
REMARK  status: ('A' for Active; 'I' for Inactive)
REMARK    1  A    between atoms: C_1  and  C_2
REMARK    2  A    between atoms: C_5  and  N_6
REMARK    3  A    between atoms: N_6  and  C_7
REMARK    4  A    between atoms: N_6  and  S_22
REMARK    5  A    between atoms: C_7  and  C_8
REMARK    6  A    between atoms: N_10  and  N_11
REMARK    7  A    between atoms: S_22  and  C_25
REMARK    8  A    between atoms: C_28  and  C_29
REMARK                            x       y       z     vdW  Elec       q    Type
REMARK                         _______ _______ _______ _____ _____    ______ ____
ROOT
ATOM      1  N   UNL     1      -8.535   1.936 123.920  0.00  0.00    +0.000 N 
ENDROOT
BRANCH   1   6
ATOM      2  C   UNL     1      -6.863   4.657 119.073  0.00  0.00    +0.000 C 
ATOM      3  C   UNL     1      -7.204   3.970 120.347  0.00  0.00    +0.000 A 
ATOM      4  C   UNL     1      -8.530   3.855 120.656  0.00  0.00    +0.000 A 
ATOM      5  C   UNL     1      -8.877   3.041 121.714  0.00  0.00    +0.000 A 
ATOM      6  C   UNL     1      -8.013   2.580 122.704  0.00  0.00    +0.000 A 
ATOM      7  C   UNL     1      -6.664   2.710 122.381  0.00  0.00    +0.000 A 
ATOM      8  C   UNL     1      -6.268   3.360 121.190  0.00  0.00    +0.000 A 
ENDBRANCH   1   6
BRANCH   1   9
ATOM      9  S   UNL     1      -9.221   0.325 123.740  0.00  0.00    +0.000 S 
ATOM     10  O   UNL     1     -10.035   0.085 124.919  0.00  0.00    +0.000 OA
ATOM     11  O   UNL     1      -9.835   0.231 122.427  0.00  0.00    +0.000 OA
BRANCH   9  12
ATOM     12  C   UNL     1      -7.993  -1.002 123.762  0.00  0.00    +0.000 A 
ATOM     13  C   UNL     1      -6.781  -0.931 123.095  0.00  0.00    +0.000 A 
ATOM     14  C   UNL     1      -5.848  -1.954 123.082  0.00  0.00    +0.000 A 
ATOM     15  C   UNL     1      -6.103  -3.122 123.770  0.00  0.00    +0.000 A 
ATOM     16  C   UNL     1      -7.308  -3.238 124.473  0.00  0.00    +0.000 A 
ATOM     17  C   UNL     1      -8.257  -2.186 124.472  0.00  0.00    +0.000 A 
BRANCH  15  18
ATOM     18  C   UNL     1      -5.125  -4.156 123.727  0.00  0.00    +0.000 C 
ATOM     19  N   UNL     1      -4.276  -4.963 123.715  0.00  0.00    +0.000 NA
ENDBRANCH  15  18
ENDBRANCH   9  12
ENDBRANCH   1   9
BRANCH   1  20
ATOM     20  C   UNL     1      -8.323   2.569 125.281  0.00  0.00    +0.000 C 
BRANCH  20  21
ATOM     21  C   UNL     1      -8.153   1.912 126.667  0.00  0.00    +0.000 C 
ATOM     22  O   UNL     1      -9.126   1.730 127.408  0.00  0.00    +0.000 OA
ATOM     23  N   UNL     1      -6.893   1.587 127.205  0.00  0.00    +0.000 N 
ATOM     24  H   UNL     1      -6.090   2.207 127.132  0.00  0.00    +0.000 HD
BRANCH  23  25
ATOM     25  N   UNL     1      -7.016   0.763 128.304  0.00  0.00    +0.000 NA
ATOM     26  C   UNL     1      -6.582  -0.428 128.548  0.00  0.00    +0.000 C 
ATOM     27  C   UNL     1      -5.777  -1.484 127.774  0.00  0.00    +0.000 C 
ATOM     28  O   UNL     1      -5.335  -1.395 126.650  0.00  0.00    +0.000 OA
ATOM     29  N   UNL     1      -5.692  -2.582 128.619  0.00  0.00    +0.000 N 
ATOM     30  C   UNL     1      -6.362  -2.352 129.812  0.00  0.00    +0.000 A 
ATOM     31  C   UNL     1      -6.540  -3.241 130.855  0.00  0.00    +0.000 A 
ATOM     32  C   UNL     1      -7.271  -2.795 131.961  0.00  0.00    +0.000 A 
ATOM     33  C   UNL     1      -7.791  -1.485 132.000  0.00  0.00    +0.000 A 
ATOM     34  C   UNL     1      -7.607  -0.603 130.929  0.00  0.00    +0.000 A 
ATOM     35  C   UNL     1      -6.893  -1.069 129.842  0.00  0.00    +0.000 A 
ATOM     36  H   UNL     1      -5.244  -3.450 128.368  0.00  0.00    +0.000 HD
ENDBRANCH  23  25
ENDBRANCH  20  21
ENDBRANCH   1  20
TORSDOF 7
ENDMDL
MODEL 8
REMARK VINA RESULT:      -9.6      3.781      9.484
REMARK  Name = CHEMBL2113205
REMARK  8 active torsions:
REMARK  status: ('A' for Active; 'I' for Inactive)
REMARK    1  A    between atoms: C_1  and  C_2
REMARK    2  A    between atoms: C_5  and  N_6
REMARK    3  A    between atoms: N_6  and  C_7
REMARK    4  A    between atoms: N_6  and  S_22
REMARK    5  A    between atoms: C_7  and  C_8
REMARK    6  A    between atoms: N_10  and  N_11
REMARK    7  A    between atoms: S_22  and  C_25
REMARK    8  A    between atoms: C_28  and  C_29
REMARK                            x       y       z     vdW  Elec       q    Type
REMARK                         _______ _______ _______ _____ _____    ______ ____
ROOT
ATOM      1  N   UNL     1      -9.462   5.050 131.214  0.00  0.00    +0.000 N 
ENDROOT
BRANCH   1   6
ATOM      2  C   UNL     1     -12.882   9.232 129.090  0.00  0.00    +0.000 C 
ATOM      3  C   UNL     1     -12.083   8.115 129.660  0.00  0.00    +0.000 A 
ATOM      4  C   UNL     1     -10.776   8.022 129.272  0.00  0.00    +0.000 A 
ATOM      5  C   UNL     1      -9.964   7.133 129.944  0.00  0.00    +0.000 A 
ATOM      6  C   UNL     1     -10.399   6.088 130.756  0.00  0.00    +0.000 A 
ATOM      7  C   UNL     1     -11.734   6.189 131.140  0.00  0.00    +0.000 A 
ATOM      8  C   UNL     1     -12.554   7.221 130.629  0.00  0.00    +0.000 A 
ENDBRANCH   1   6
BRANCH   1   9
ATOM      9  S   UNL     1      -8.655   5.323 132.755  0.00  0.00    +0.000 S 
ATOM     10  O   UNL     1      -9.332   6.443 133.385  0.00  0.00    +0.000 OA
ATOM     11  O   UNL     1      -8.573   4.058 133.461  0.00  0.00    +0.000 OA
BRANCH   9  12
ATOM     12  C   UNL     1      -6.938   5.866 132.596  0.00  0.00    +0.000 A 
ATOM     13  C   UNL     1      -6.446   6.527 131.483  0.00  0.00    +0.000 A 
ATOM     14  C   UNL     1      -5.125   6.919 131.340  0.00  0.00    +0.000 A 
ATOM     15  C   UNL     1      -4.222   6.663 132.351  0.00  0.00    +0.000 A 
ATOM     16  C   UNL     1      -4.673   6.010 133.505  0.00  0.00    +0.000 A 
ATOM     17  C   UNL     1      -6.025   5.608 133.634  0.00  0.00    +0.000 A 
BRANCH  15  18
ATOM     18  C   UNL     1      -2.871   7.071 132.167  0.00  0.00    +0.000 C 
ATOM     19  N   UNL     1      -1.742   7.343 132.005  0.00  0.00    +0.000 NA
ENDBRANCH  15  18
ENDBRANCH   9  12
ENDBRANCH   1   9
BRANCH   1  20
ATOM     20  C   UNL     1      -9.344   3.734 130.471  0.00  0.00    +0.000 C 
BRANCH  20  21
ATOM     21  C   UNL     1      -8.876   3.444 129.029  0.00  0.00    +0.000 C 
ATOM     22  O   UNL     1      -9.117   2.358 128.489  0.00  0.00    +0.000 OA
ATOM     23  N   UNL     1      -8.071   4.338 128.297  0.00  0.00    +0.000 N 
ATOM     24  H   UNL     1      -7.283   4.830 128.711  0.00  0.00    +0.000 HD
BRANCH  23  25
ATOM     25  N   UNL     1      -8.031   3.995 126.962  0.00  0.00    +0.000 NA
ATOM     26  C   UNL     1      -7.114   4.119 126.061  0.00  0.00    +0.000 C 
ATOM     27  C   UNL     1      -5.693   4.702 126.014  0.00  0.00    +0.000 C 
ATOM     28  O   UNL     1      -5.078   5.219 126.921  0.00  0.00    +0.000 OA
ATOM     29  N   UNL     1      -5.271   4.549 124.701  0.00  0.00    +0.000 N 
ATOM     30  C   UNL     1      -6.257   3.964 123.919  0.00  0.00    +0.000 A 
ATOM     31  C   UNL     1      -6.210   3.719 122.560  0.00  0.00    +0.000 A 
ATOM     32  C   UNL     1      -7.336   3.134 121.975  0.00  0.00    +0.000 A 
ATOM     33  C   UNL     1      -8.464   2.803 122.754  0.00  0.00    +0.000 A 
ATOM     34  C   UNL     1      -8.494   3.067 124.128  0.00  0.00    +0.000 A 
ATOM     35  C   UNL     1      -7.375   3.657 124.683  0.00  0.00    +0.000 A 
ATOM     36  H   UNL     1      -4.378   4.871 124.358  0.00  0.00    +0.000 HD
ENDBRANCH  23  25
ENDBRANCH  20  21
ENDBRANCH   1  20
TORSDOF 7
ENDMDL
MODEL 9
REMARK VINA RESULT:      -9.5      1.676      2.706
REMARK  Name = CHEMBL2113205
REMARK  8 active torsions:
REMARK  status: ('A' for Active; 'I' for Inactive)
REMARK    1  A    between atoms: C_1  and  C_2
REMARK    2  A    between atoms: C_5  and  N_6
REMARK    3  A    between atoms: N_6  and  C_7
REMARK    4  A    between atoms: N_6  and  S_22
REMARK    5  A    between atoms: C_7  and  C_8
REMARK    6  A    between atoms: N_10  and  N_11
REMARK    7  A    between atoms: S_22  and  C_25
REMARK    8  A    between atoms: C_28  and  C_29
REMARK                            x       y       z     vdW  Elec       q    Type
REMARK                         _______ _______ _______ _____ _____    ______ ____
ROOT
ATOM      1  N   UNL     1      -7.616   1.946 124.126  0.00  0.00    +0.000 N 
ENDROOT
BRANCH   1   6
ATOM      2  C   UNL     1      -7.117   4.609 118.992  0.00  0.00    +0.000 C 
ATOM      3  C   UNL     1      -7.335   3.909 120.286  0.00  0.00    +0.000 A 
ATOM      4  C   UNL     1      -6.222   3.515 120.975  0.00  0.00    +0.000 A 
ATOM      5  C   UNL     1      -6.389   3.060 122.266  0.00  0.00    +0.000 A 
ATOM      6  C   UNL     1      -7.594   2.652 122.835  0.00  0.00    +0.000 A 
ATOM      7  C   UNL     1      -8.720   3.052 122.120  0.00  0.00    +0.000 A 
ATOM      8  C   UNL     1      -8.588   3.714 120.879  0.00  0.00    +0.000 A 
ENDBRANCH   1   6
BRANCH   1   9
ATOM      9  S   UNL     1      -8.353   0.348 124.152  0.00  0.00    +0.000 S 
ATOM     10  O   UNL     1      -8.916   0.171 125.480  0.00  0.00    +0.000 OA
ATOM     11  O   UNL     1      -9.220   0.224 122.994  0.00  0.00    +0.000 OA
BRANCH   9  12
ATOM     12  C   UNL     1      -7.170  -1.008 123.979  0.00  0.00    +0.000 A 
ATOM     13  C   UNL     1      -6.609  -1.673 125.056  0.00  0.00    +0.000 A 
ATOM     14  C   UNL     1      -5.678  -2.692 124.934  0.00  0.00    +0.000 A 
ATOM     15  C   UNL     1      -5.273  -3.101 123.680  0.00  0.00    +0.000 A 
ATOM     16  C   UNL     1      -5.822  -2.470 122.557  0.00  0.00    +0.000 A 
ATOM     17  C   UNL     1      -6.767  -1.424 122.698  0.00  0.00    +0.000 A 
BRANCH  15  18
ATOM     18  C   UNL     1      -4.308  -4.145 123.592  0.00  0.00    +0.000 C 
ATOM     19  N   UNL     1      -3.498  -4.980 123.458  0.00  0.00    +0.000 NA
ENDBRANCH  15  18
ENDBRANCH   9  12
ENDBRANCH   1   9
BRANCH   1  20
ATOM     20  C   UNL     1      -6.877   2.507 125.326  0.00  0.00    +0.000 C 
BRANCH  20  21
ATOM     21  C   UNL     1      -7.380   2.807 126.753  0.00  0.00    +0.000 C 
ATOM     22  O   UNL     1      -7.558   1.896 127.569  0.00  0.00    +0.000 OA
ATOM     23  N   UNL     1      -7.762   4.097 127.168  0.00  0.00    +0.000 N 
ATOM     24  H   UNL     1      -8.313   4.720 126.583  0.00  0.00    +0.000 HD
BRANCH  23  25
ATOM     25  N   UNL     1      -7.895   4.162 128.539  0.00  0.00    +0.000 NA
ATOM     26  C   UNL     1      -8.629   4.896 129.307  0.00  0.00    +0.000 C 
ATOM     27  C   UNL     1      -9.651   6.024 129.097  0.00  0.00    +0.000 C 
ATOM     28  O   UNL     1     -10.015   6.502 128.046  0.00  0.00    +0.000 OA
ATOM     29  N   UNL     1     -10.045   6.411 130.371  0.00  0.00    +0.000 N 
ATOM     30  C   UNL     1      -9.381   5.682 131.347  0.00  0.00    +0.000 A 
ATOM     31  C   UNL     1      -9.476   5.841 132.716  0.00  0.00    +0.000 A 
ATOM     32  C   UNL     1      -8.694   5.000 133.515  0.00  0.00    +0.000 A 
ATOM     33  C   UNL     1      -7.856   4.028 132.933  0.00  0.00    +0.000 A 
ATOM     34  C   UNL     1      -7.769   3.890 131.543  0.00  0.00    +0.000 A 
ATOM     35  C   UNL     1      -8.540   4.739 130.773  0.00  0.00    +0.000 A 
ATOM     36  H   UNL     1     -10.693   7.163 130.552  0.00  0.00    +0.000 HD
ENDBRANCH  23  25
ENDBRANCH  20  21
ENDBRANCH   1  20
TORSDOF 7
ENDMDL
