MODEL 1
REMARK VINA RESULT:     -10.0      0.000      0.000
REMARK  Name = CHEMBL4583231
REMARK  28 active torsions:
REMARK  status: ('A' for Active; 'I' for Inactive)
REMARK    1  A    between atoms: C_1  and  C_2
REMARK    2  A    between atoms: C_2  and  C_3
REMARK    3  A    between atoms: C_3  and  C_4
REMARK    4  A    between atoms: C_3  and  C_5
REMARK    5  A    between atoms: C_9  and  C_10
REMARK    6  A    between atoms: C_10  and  C_11
REMARK    7  A    between atoms: C_14  and  O_15
REMARK    8  A    between atoms: C_21  and  N_22
REMARK    9  A    between atoms: C_27  and  C_28
REMARK   10  A    between atoms: N_30  and  C_31
REMARK   11  A    between atoms: N_30  and  C_35
REMARK   12  A    between atoms: C_31  and  C_32
REMARK   13  A    between atoms: C_32  and  C_33
REMARK   14  A    between atoms: C_33  and  O_34
REMARK   15  A    between atoms: C_35  and  C_36
REMARK   16  A    between atoms: N_38  and  C_39
REMARK   17  A    between atoms: C_39  and  C_40
REMARK   18  A    between atoms: C_39  and  C_44
REMARK   19  A    between atoms: C_40  and  C_41
REMARK   20  A    between atoms: C_41  and  C_42
REMARK   21  A    between atoms: C_41  and  C_43
REMARK   22  A    between atoms: N_46  and  C_47
REMARK   23  A    between atoms: C_47  and  C_48
REMARK   24  A    between atoms: C_54  and  C_55
REMARK   25  A    between atoms: C_55  and  C_56
REMARK   26  A    between atoms: C_62  and  C_63
REMARK   27  A    between atoms: C_63  and  C_64
REMARK   28  A    between atoms: C_64  and  C_65
REMARK                            x       y       z     vdW  Elec       q    Type
REMARK                         _______ _______ _______ _____ _____    ______ ____
ROOT
ATOM      1  C   UNL     1      -3.817   4.177 133.365  0.00  0.00    +0.000 C 
ATOM      2  N   UNL     1      -3.886   1.937 134.002  0.00  0.00    +0.000 N 
ATOM      3  C   UNL     1      -3.720   0.167 134.708  0.00  0.00    +0.000 C 
ATOM      4  O   UNL     1      -4.446  -0.615 135.691  0.00  0.00    +0.000 OA
ATOM      5  C   UNL     1      -3.272  -1.816 134.065  0.00  0.00    +0.000 C 
ATOM      6  N   UNL     1      -3.949  -2.777 132.869  0.00  0.00    +0.000 N 
ATOM      7  C   UNL     1      -5.078  -2.407 132.192  0.00  0.00    +0.000 C 
ATOM      8  O   UNL     1      -5.481  -2.974 131.184  0.00  0.00    +0.000 OA
ATOM      9  C   UNL     1      -5.861  -1.211 132.644  0.00  0.00    +0.000 C 
ATOM     10  C   UNL     1      -5.549   0.061 131.952  0.00  0.00    +0.000 C 
ATOM     11  S   UNL     1      -6.795  -0.447 130.741  0.00  0.00    +0.000 S 
ATOM     12  S   UNL     1      -6.501   0.733 129.275  0.00  0.00    +0.000 S 
ATOM     13  C   UNL     1      -7.784   1.192 128.108  0.00  0.00    +0.000 C 
ATOM     14  C   UNL     1      -7.484   2.483 127.149  0.00  0.00    +0.000 C 
ATOM     15  N   UNL     1      -7.826   3.683 127.808  0.00  0.00    +0.000 N 
ATOM     16  C   UNL     1      -7.191   4.065 128.900  0.00  0.00    +0.000 C 
ATOM     17  O   UNL     1      -7.643   5.056 129.440  0.00  0.00    +0.000 OA
ATOM     18  C   UNL     1      -5.945   3.298 129.300  0.00  0.00    +0.000 C 
ATOM     19  N   UNL     1      -4.737   4.132 129.067  0.00  0.00    +0.000 N 
ATOM     20  C   UNL     1      -4.551   5.012 130.035  0.00  0.00    +0.000 C 
ATOM     21  O   UNL     1      -3.481   4.707 130.836  0.00  0.00    +0.000 OA
ATOM     22  C   UNL     1      -6.085   5.806 131.140  0.00  0.00    +0.000 C 
ATOM     23  N   UNL     1      -6.005   5.811 132.972  0.00  0.00    +0.000 N 
ATOM     24  C   UNL     1      -4.799   5.546 133.870  0.00  0.00    +0.000 C 
ATOM     25  O   UNL     1      -4.294   6.495 134.517  0.00  0.00    +0.000 OA
ATOM     26  H   UNL     1      -4.146   1.485 135.098  0.00  0.00    +0.000 HD
ATOM     27  H   UNL     1      -3.572  -3.687 132.443  0.00  0.00    +0.000 HD
ATOM     28  H   UNL     1      -8.598   4.253 127.498  0.00  0.00    +0.000 HD
ATOM     29  H   UNL     1      -3.811   3.714 128.833  0.00  0.00    +0.000 HD
ATOM     30  H   UNL     1      -6.419   4.973 133.311  0.00  0.00    +0.000 HD
ENDROOT
BRANCH   9  31
ATOM     31  N   UNL     1      -5.360  -0.759 133.805  0.00  0.00    +0.000 NA
ATOM     32  H   UNL     1      -5.205   0.159 133.411  0.00  0.00    +0.000 HD
ATOM     33  H   UNL     1      -4.416  -1.123 133.951  0.00  0.00    +0.000 HD
ENDBRANCH   9  31
BRANCH  14  34
ATOM     34  C   UNL     1      -8.260   2.318 125.844  0.00  0.00    +0.000 C 
ATOM     35  O   UNL     1      -9.442   1.974 125.890  0.00  0.00    +0.000 OA
ATOM     36  N   UNL     1      -7.596   2.567 124.646  0.00  0.00    +0.000 N 
BRANCH  36  37
ATOM     37  C   UNL     1      -8.341   2.322 123.346  0.00  0.00    +0.000 C 
BRANCH  37  38
ATOM     38  C   UNL     1      -8.870   0.841 123.112  0.00  0.00    +0.000 C 
ATOM     39  O   UNL     1      -9.687   0.596 122.215  0.00  0.00    +0.000 OA
ATOM     40  N   UNL     1      -8.104  -0.229 123.601  0.00  0.00    +0.000 N 
ATOM     41  H   UNL     1      -7.482  -0.125 124.394  0.00  0.00    +0.000 HD
BRANCH  40  42
ATOM     42  C   UNL     1      -8.143  -1.599 122.965  0.00  0.00    +0.000 C 
BRANCH  42  43
ATOM     43  C   UNL     1      -8.876  -2.588 123.917  0.00  0.00    +0.000 C 
ATOM     44  O   UNL     1      -9.473  -3.559 123.453  0.00  0.00    +0.000 OA
ATOM     45  N   UNL     1      -8.840  -2.336 125.275  0.00  0.00    +0.000 N 
ATOM     46  H   UNL     1      -8.355  -1.535 125.637  0.00  0.00    +0.000 HD
BRANCH  45  47
ATOM     47  C   UNL     1      -9.490  -3.220 126.246  0.00  0.00    +0.000 C 
BRANCH  47  48
ATOM     48  C   UNL     1      -8.727  -3.389 127.576  0.00  0.00    +0.000 C 
ATOM     49  N   UNL     1      -7.501  -2.777 127.693  0.00  0.00    +0.000 N 
ATOM     50  O   UNL     1      -9.188  -4.043 128.509  0.00  0.00    +0.000 OA
ATOM     51  H   UNL     1      -7.046  -2.225 126.989  0.00  0.00    +0.000 HD
ATOM     52  H   UNL     1      -6.978  -2.872 128.555  0.00  0.00    +0.000 HD
ENDBRANCH  47  48
ENDBRANCH  45  47
ENDBRANCH  42  43
BRANCH  42  53
ATOM     53  C   UNL     1      -6.758  -2.210 122.608  0.00  0.00    +0.000 C 
BRANCH  53  54
ATOM     54  C   UNL     1      -6.016  -2.783 123.794  0.00  0.00    +0.000 C 
ATOM     55  C   UNL     1      -4.774  -3.441 123.328  0.00  0.00    +0.000 C 
ATOM     56  C   UNL     1      -5.340  -1.800 124.678  0.00  0.00    +0.000 C 
ENDBRANCH  53  54
ENDBRANCH  42  53
ENDBRANCH  40  42
ENDBRANCH  37  38
ENDBRANCH  36  37
BRANCH  36  57
ATOM     57  C   UNL     1      -6.203   3.037 124.569  0.00  0.00    +0.000 C 
BRANCH  57  58
ATOM     58  C   UNL     1      -5.888   4.430 124.241  0.00  0.00    +0.000 C 
BRANCH  58  59
ATOM     59  C   UNL     1      -6.231   5.514 125.177  0.00  0.00    +0.000 C 
BRANCH  59  60
ATOM     60  O   UNL     1      -5.464   5.378 126.373  0.00  0.00    +0.000 OA
ATOM     61  H   UNL     1      -6.029   5.060 127.095  0.00  0.00    +0.000 HD
ENDBRANCH  59  60
ENDBRANCH  58  59
ENDBRANCH  57  58
ENDBRANCH  36  57
ENDBRANCH  14  34
BRANCH   1  62
ATOM     62  C   UNL     1      -3.756   6.054 132.288  0.00  0.00    +0.000 C 
ATOM     63  C   UNL     1      -3.359   8.077 131.624  0.00  0.00    +0.000 C 
BRANCH  62  65
ATOM     64  C   UNL     1      -0.811   6.447 132.250  0.00  0.00    +0.000 C 
ATOM     65  C   UNL     1      -2.406   7.320 131.881  0.00  0.00    +0.000 C 
ENDBRANCH  62  65
ENDBRANCH   1  62
BRANCH  18  66
ATOM     66  C   UNL     1      -6.445   2.719 130.933  0.00  0.00    +0.000 C 
BRANCH  66  67
ATOM     67  C   UNL     1      -7.795   2.834 131.346  0.00  0.00    +0.000 C 
ATOM     68  N   UNL     1      -7.372   2.878 132.502  0.00  0.00    +0.000 N 
ATOM     69  O   UNL     1      -8.901   2.903 130.942  0.00  0.00    +0.000 OA
ATOM     70  H   UNL     1      -6.693   3.706 132.315  0.00  0.00    +0.000 HD
ATOM     71  H   UNL     1      -7.853   2.867 133.398  0.00  0.00    +0.000 HD
ENDBRANCH  66  67
ENDBRANCH  18  66
BRANCH   5  72
ATOM     72  C   UNL     1      -2.150  -1.112 133.624  0.00  0.00    +0.000 C 
BRANCH  72  73
ATOM     73  C   UNL     1      -1.131  -1.838 134.465  0.00  0.00    +0.000 A 
ATOM     74  C   UNL     1       0.261  -1.996 134.197  0.00  0.00    +0.000 A 
ATOM     75  C   UNL     1       1.044  -2.729 135.070  0.00  0.00    +0.000 A 
ATOM     76  C   UNL     1       0.419  -3.380 136.120  0.00  0.00    +0.000 A 
ATOM     77  C   UNL     1      -0.960  -3.400 136.239  0.00  0.00    +0.000 A 
ATOM     78  C   UNL     1      -1.734  -2.648 135.408  0.00  0.00    +0.000 A 
BRANCH  76  79
ATOM     79  O   UNL     1       1.090  -4.029 137.106  0.00  0.00    +0.000 OA
ATOM     80  H   UNL     1       1.045  -3.542 137.941  0.00  0.00    +0.000 HD
ENDBRANCH  76  79
ENDBRANCH  72  73
ENDBRANCH   5  72
BRANCH  22  81
ATOM     81  C   UNL     1      -6.708   7.177 130.783  0.00  0.00    +0.000 C 
BRANCH  81  82
ATOM     82  C   UNL     1      -8.187   7.232 130.790  0.00  0.00    +0.000 C 
BRANCH  82  83
ATOM     83  C   UNL     1      -9.108   6.483 131.618  0.00  0.00    +0.000 C 
ATOM     84  N   UNL     1      -9.984   5.889 130.805  0.00  0.00    +0.000 N 
ATOM     85  O   UNL     1      -9.011   6.377 132.831  0.00  0.00    +0.000 OA
ATOM     86  H   UNL     1      -9.933   6.016 129.802  0.00  0.00    +0.000 HD
ATOM     87  H   UNL     1     -10.667   5.317 131.237  0.00  0.00    +0.000 HD
ENDBRANCH  82  83
ENDBRANCH  81  82
ENDBRANCH  22  81
TORSDOF 24
ENDMDL
MODEL 2
REMARK VINA RESULT:      -8.3      3.841     10.581
REMARK  Name = CHEMBL4583231
REMARK  28 active torsions:
REMARK  status: ('A' for Active; 'I' for Inactive)
REMARK    1  A    between atoms: C_1  and  C_2
REMARK    2  A    between atoms: C_2  and  C_3
REMARK    3  A    between atoms: C_3  and  C_4
REMARK    4  A    between atoms: C_3  and  C_5
REMARK    5  A    between atoms: C_9  and  C_10
REMARK    6  A    between atoms: C_10  and  C_11
REMARK    7  A    between atoms: C_14  and  O_15
REMARK    8  A    between atoms: C_21  and  N_22
REMARK    9  A    between atoms: C_27  and  C_28
REMARK   10  A    between atoms: N_30  and  C_31
REMARK   11  A    between atoms: N_30  and  C_35
REMARK   12  A    between atoms: C_31  and  C_32
REMARK   13  A    between atoms: C_32  and  C_33
REMARK   14  A    between atoms: C_33  and  O_34
REMARK   15  A    between atoms: C_35  and  C_36
REMARK   16  A    between atoms: N_38  and  C_39
REMARK   17  A    between atoms: C_39  and  C_40
REMARK   18  A    between atoms: C_39  and  C_44
REMARK   19  A    between atoms: C_40  and  C_41
REMARK   20  A    between atoms: C_41  and  C_42
REMARK   21  A    between atoms: C_41  and  C_43
REMARK   22  A    between atoms: N_46  and  C_47
REMARK   23  A    between atoms: C_47  and  C_48
REMARK   24  A    between atoms: C_54  and  C_55
REMARK   25  A    between atoms: C_55  and  C_56
REMARK   26  A    between atoms: C_62  and  C_63
REMARK   27  A    between atoms: C_63  and  C_64
REMARK   28  A    between atoms: C_64  and  C_65
REMARK                            x       y       z     vdW  Elec       q    Type
REMARK                         _______ _______ _______ _____ _____    ______ ____
ROOT
ATOM      1  C   UNL     1      -6.793   4.689 130.068  0.00  0.00    +0.000 C 
ATOM      2  N   UNL     1      -6.089   3.799 128.033  0.00  0.00    +0.000 N 
ATOM      3  C   UNL     1      -5.591   3.329 126.246  0.00  0.00    +0.000 C 
ATOM      4  O   UNL     1      -4.337   3.251 125.520  0.00  0.00    +0.000 OA
ATOM      5  C   UNL     1      -6.085   1.917 124.727  0.00  0.00    +0.000 C 
ATOM      6  N   UNL     1      -6.129   0.241 124.738  0.00  0.00    +0.000 N 
ATOM      7  C   UNL     1      -5.670  -0.491 125.799  0.00  0.00    +0.000 C 
ATOM      8  O   UNL     1      -5.871  -1.692 125.932  0.00  0.00    +0.000 OA
ATOM      9  C   UNL     1      -4.923   0.189 126.907  0.00  0.00    +0.000 C 
ATOM     10  C   UNL     1      -5.735   0.580 128.083  0.00  0.00    +0.000 C 
ATOM     11  S   UNL     1      -5.388  -1.083 128.707  0.00  0.00    +0.000 S 
ATOM     12  S   UNL     1      -6.629  -1.292 130.138  0.00  0.00    +0.000 S 
ATOM     13  C   UNL     1      -6.345  -2.377 131.538  0.00  0.00    +0.000 C 
ATOM     14  C   UNL     1      -7.306  -2.166 132.844  0.00  0.00    +0.000 C 
ATOM     15  N   UNL     1      -6.793  -1.153 133.682  0.00  0.00    +0.000 N 
ATOM     16  C   UNL     1      -6.705   0.096 133.267  0.00  0.00    +0.000 C 
ATOM     17  O   UNL     1      -6.147   0.857 134.033  0.00  0.00    +0.000 OA
ATOM     18  C   UNL     1      -7.373   0.453 131.953  0.00  0.00    +0.000 C 
ATOM     19  N   UNL     1      -8.578   1.287 132.203  0.00  0.00    +0.000 N 
ATOM     20  C   UNL     1      -8.265   2.550 132.431  0.00  0.00    +0.000 C 
ATOM     21  O   UNL     1      -8.613   3.381 131.397  0.00  0.00    +0.000 OA
ATOM     22  C   UNL     1      -6.486   3.132 133.267  0.00  0.00    +0.000 C 
ATOM     23  N   UNL     1      -5.474   4.443 132.479  0.00  0.00    +0.000 N 
ATOM     24  C   UNL     1      -5.878   5.422 131.379  0.00  0.00    +0.000 C 
ATOM     25  O   UNL     1      -6.018   6.637 131.658  0.00  0.00    +0.000 OA
ATOM     26  H   UNL     1      -5.182   4.188 127.326  0.00  0.00    +0.000 HD
ATOM     27  H   UNL     1      -6.570  -0.426 124.022  0.00  0.00    +0.000 HD
ATOM     28  H   UNL     1      -6.427  -1.363 134.599  0.00  0.00    +0.000 HD
ATOM     29  H   UNL     1      -9.405   1.271 131.569  0.00  0.00    +0.000 HD
ATOM     30  H   UNL     1      -4.841   4.016 131.841  0.00  0.00    +0.000 HD
ENDROOT
BRANCH   9  31
ATOM     31  N   UNL     1      -4.697   1.471 126.576  0.00  0.00    +0.000 NA
ATOM     32  H   UNL     1      -5.178   1.797 127.403  0.00  0.00    +0.000 HD
ATOM     33  H   UNL     1      -5.312   1.755 125.811  0.00  0.00    +0.000 HD
ENDBRANCH   9  31
BRANCH  14  34
ATOM     34  C   UNL     1      -7.433  -3.496 133.583  0.00  0.00    +0.000 C 
ATOM     35  O   UNL     1      -8.548  -3.876 133.944  0.00  0.00    +0.000 OA
ATOM     36  N   UNL     1      -6.275  -4.233 133.819  0.00  0.00    +0.000 N 
BRANCH  36  37
ATOM     37  C   UNL     1      -6.390  -5.513 134.627  0.00  0.00    +0.000 C 
BRANCH  37  38
ATOM     38  C   UNL     1      -6.561  -5.336 136.197  0.00  0.00    +0.000 C 
ATOM     39  O   UNL     1      -5.572  -5.279 136.939  0.00  0.00    +0.000 OA
ATOM     40  N   UNL     1      -7.768  -4.809 136.684  0.00  0.00    +0.000 N 
ATOM     41  H   UNL     1      -8.638  -4.901 136.173  0.00  0.00    +0.000 HD
BRANCH  40  42
ATOM     42  C   UNL     1      -7.843  -4.054 137.991  0.00  0.00    +0.000 C 
BRANCH  42  43
ATOM     43  C   UNL     1      -9.301  -4.102 138.530  0.00  0.00    +0.000 C 
ATOM     44  O   UNL     1      -9.509  -4.329 139.722  0.00  0.00    +0.000 OA
ATOM     45  N   UNL     1     -10.335  -3.892 137.638  0.00  0.00    +0.000 N 
ATOM     46  H   UNL     1     -10.150  -3.716 136.667  0.00  0.00    +0.000 HD
BRANCH  45  47
ATOM     47  C   UNL     1     -11.739  -3.906 138.059  0.00  0.00    +0.000 C 
BRANCH  47  48
ATOM     48  C   UNL     1     -12.232  -2.594 138.704  0.00  0.00    +0.000 C 
ATOM     49  N   UNL     1     -12.197  -2.503 140.075  0.00  0.00    +0.000 N 
ATOM     50  O   UNL     1     -12.642  -1.652 138.028  0.00  0.00    +0.000 OA
ATOM     51  H   UNL     1     -11.881  -3.215 140.708  0.00  0.00    +0.000 HD
ATOM     52  H   UNL     1     -12.515  -1.652 140.526  0.00  0.00    +0.000 HD
ENDBRANCH  47  48
ENDBRANCH  45  47
ENDBRANCH  42  43
BRANCH  42  53
ATOM     53  C   UNL     1      -7.400  -2.564 137.929  0.00  0.00    +0.000 C 
BRANCH  53  54
ATOM     54  C   UNL     1      -6.977  -1.995 139.264  0.00  0.00    +0.000 C 
ATOM     55  C   UNL     1      -5.714  -1.238 139.100  0.00  0.00    +0.000 C 
ATOM     56  C   UNL     1      -7.773  -0.846 139.765  0.00  0.00    +0.000 C 
ENDBRANCH  53  54
ENDBRANCH  42  53
ENDBRANCH  40  42
ENDBRANCH  37  38
ENDBRANCH  36  37
BRANCH  36  57
ATOM     57  C   UNL     1      -4.941  -3.829 133.343  0.00  0.00    +0.000 C 
BRANCH  57  58
ATOM     58  C   UNL     1      -3.876  -3.468 134.283  0.00  0.00    +0.000 C 
BRANCH  58  59
ATOM     59  C   UNL     1      -4.136  -2.513 135.374  0.00  0.00    +0.000 C 
BRANCH  59  60
ATOM     60  O   UNL     1      -4.012  -1.178 134.884  0.00  0.00    +0.000 OA
ATOM     61  H   UNL     1      -3.103  -0.863 135.005  0.00  0.00    +0.000 HD
ENDBRANCH  59  60
ENDBRANCH  58  59
ENDBRANCH  57  58
ENDBRANCH  36  57
ENDBRANCH  14  34
BRANCH   1  62
ATOM     62  C   UNL     1      -7.705   5.058 131.997  0.00  0.00    +0.000 C 
ATOM     63  C   UNL     1      -8.642   5.945 133.735  0.00  0.00    +0.000 C 
BRANCH  62  65
ATOM     64  C   UNL     1     -10.052   6.628 131.075  0.00  0.00    +0.000 C 
ATOM     65  C   UNL     1      -9.149   6.118 132.613  0.00  0.00    +0.000 C 
ENDBRANCH  62  65
ENDBRANCH   1  62
BRANCH  18  66
ATOM     66  C   UNL     1      -5.943   1.041 131.024  0.00  0.00    +0.000 C 
BRANCH  66  67
ATOM     67  C   UNL     1      -4.636   0.848 131.535  0.00  0.00    +0.000 C 
ATOM     68  N   UNL     1      -4.299   1.831 130.872  0.00  0.00    +0.000 N 
ATOM     69  O   UNL     1      -3.998   0.170 132.259  0.00  0.00    +0.000 OA
ATOM     70  H   UNL     1      -5.056   2.485 131.297  0.00  0.00    +0.000 HD
ATOM     71  H   UNL     1      -3.387   2.239 130.685  0.00  0.00    +0.000 HD
ENDBRANCH  66  67
ENDBRANCH  18  66
BRANCH   5  72
ATOM     72  C   UNL     1      -7.328   2.494 124.996  0.00  0.00    +0.000 C 
BRANCH  72  73
ATOM     73  C   UNL     1      -7.651   2.911 123.584  0.00  0.00    +0.000 A 
ATOM     74  C   UNL     1      -8.851   2.658 122.858  0.00  0.00    +0.000 A 
ATOM     75  C   UNL     1      -8.960   3.090 121.549  0.00  0.00    +0.000 A 
ATOM     76  C   UNL     1      -7.847   3.659 120.954  0.00  0.00    +0.000 A 
ATOM     77  C   UNL     1      -6.623   3.697 121.599  0.00  0.00    +0.000 A 
ATOM     78  C   UNL     1      -6.519   3.311 122.900  0.00  0.00    +0.000 A 
BRANCH  76  79
ATOM     79  O   UNL     1      -7.864   4.227 119.720  0.00  0.00    +0.000 OA
ATOM     80  H   UNL     1      -8.472   4.980 119.688  0.00  0.00    +0.000 HD
ENDBRANCH  76  79
ENDBRANCH  72  73
ENDBRANCH   5  72
BRANCH  22  81
ATOM     81  C   UNL     1      -6.365   3.420 134.783  0.00  0.00    +0.000 C 
BRANCH  81  82
ATOM     82  C   UNL     1      -4.986   3.541 135.305  0.00  0.00    +0.000 C 
BRANCH  82  83
ATOM     83  C   UNL     1      -3.762   3.014 134.738  0.00  0.00    +0.000 C 
ATOM     84  N   UNL     1      -3.641   1.752 135.154  0.00  0.00    +0.000 N 
ATOM     85  O   UNL     1      -3.047   3.626 133.960  0.00  0.00    +0.000 OA
ATOM     86  H   UNL     1      -4.331   1.337 135.767  0.00  0.00    +0.000 HD
ATOM     87  H   UNL     1      -2.853   1.254 134.821  0.00  0.00    +0.000 HD
ENDBRANCH  82  83
ENDBRANCH  81  82
ENDBRANCH  22  81
TORSDOF 24
ENDMDL
MODEL 3
REMARK VINA RESULT:      -8.2      3.777     10.662
REMARK  Name = CHEMBL4583231
REMARK  28 active torsions:
REMARK  status: ('A' for Active; 'I' for Inactive)
REMARK    1  A    between atoms: C_1  and  C_2
REMARK    2  A    between atoms: C_2  and  C_3
REMARK    3  A    between atoms: C_3  and  C_4
REMARK    4  A    between atoms: C_3  and  C_5
REMARK    5  A    between atoms: C_9  and  C_10
REMARK    6  A    between atoms: C_10  and  C_11
REMARK    7  A    between atoms: C_14  and  O_15
REMARK    8  A    between atoms: C_21  and  N_22
REMARK    9  A    between atoms: C_27  and  C_28
REMARK   10  A    between atoms: N_30  and  C_31
REMARK   11  A    between atoms: N_30  and  C_35
REMARK   12  A    between atoms: C_31  and  C_32
REMARK   13  A    between atoms: C_32  and  C_33
REMARK   14  A    between atoms: C_33  and  O_34
REMARK   15  A    between atoms: C_35  and  C_36
REMARK   16  A    between atoms: N_38  and  C_39
REMARK   17  A    between atoms: C_39  and  C_40
REMARK   18  A    between atoms: C_39  and  C_44
REMARK   19  A    between atoms: C_40  and  C_41
REMARK   20  A    between atoms: C_41  and  C_42
REMARK   21  A    between atoms: C_41  and  C_43
REMARK   22  A    between atoms: N_46  and  C_47
REMARK   23  A    between atoms: C_47  and  C_48
REMARK   24  A    between atoms: C_54  and  C_55
REMARK   25  A    between atoms: C_55  and  C_56
REMARK   26  A    between atoms: C_62  and  C_63
REMARK   27  A    between atoms: C_63  and  C_64
REMARK   28  A    between atoms: C_64  and  C_65
REMARK                            x       y       z     vdW  Elec       q    Type
REMARK                         _______ _______ _______ _____ _____    ______ ____
ROOT
ATOM      1  C   UNL     1      -6.784   4.553 130.192  0.00  0.00    +0.000 C 
ATOM      2  N   UNL     1      -6.095   3.636 128.164  0.00  0.00    +0.000 N 
ATOM      3  C   UNL     1      -5.604   3.145 126.381  0.00  0.00    +0.000 C 
ATOM      4  O   UNL     1      -4.352   3.040 125.657  0.00  0.00    +0.000 OA
ATOM      5  C   UNL     1      -6.122   1.730 124.872  0.00  0.00    +0.000 C 
ATOM      6  N   UNL     1      -6.195   0.055 124.895  0.00  0.00    +0.000 N 
ATOM      7  C   UNL     1      -5.749  -0.676 125.962  0.00  0.00    +0.000 C 
ATOM      8  O   UNL     1      -5.971  -1.873 126.103  0.00  0.00    +0.000 OA
ATOM      9  C   UNL     1      -4.991  -0.002 127.065  0.00  0.00    +0.000 C 
ATOM     10  C   UNL     1      -5.797   0.412 128.238  0.00  0.00    +0.000 C 
ATOM     11  S   UNL     1      -5.479  -1.252 128.874  0.00  0.00    +0.000 S 
ATOM     12  S   UNL     1      -6.724  -1.429 130.305  0.00  0.00    +0.000 S 
ATOM     13  C   UNL     1      -6.459  -2.509 131.714  0.00  0.00    +0.000 C 
ATOM     14  C   UNL     1      -7.417  -2.271 133.018  0.00  0.00    +0.000 C 
ATOM     15  N   UNL     1      -6.887  -1.262 133.849  0.00  0.00    +0.000 N 
ATOM     16  C   UNL     1      -6.777  -0.017 133.425  0.00  0.00    +0.000 C 
ATOM     17  O   UNL     1      -6.207   0.739 134.185  0.00  0.00    +0.000 OA
ATOM     18  C   UNL     1      -7.438   0.341 132.107  0.00  0.00    +0.000 C 
ATOM     19  N   UNL     1      -8.629   1.198 132.351  0.00  0.00    +0.000 N 
ATOM     20  C   UNL     1      -8.294   2.457 132.570  0.00  0.00    +0.000 C 
ATOM     21  O   UNL     1      -8.628   3.286 131.530  0.00  0.00    +0.000 OA
ATOM     22  C   UNL     1      -6.505   3.015 133.402  0.00  0.00    +0.000 C 
ATOM     23  N   UNL     1      -5.471   4.302 132.605  0.00  0.00    +0.000 N 
ATOM     24  C   UNL     1      -5.858   5.280 131.498  0.00  0.00    +0.000 C 
ATOM     25  O   UNL     1      -5.976   6.499 131.769  0.00  0.00    +0.000 OA
ATOM     26  H   UNL     1      -5.181   4.004 127.455  0.00  0.00    +0.000 HD
ATOM     27  H   UNL     1      -6.647  -0.609 124.184  0.00  0.00    +0.000 HD
ATOM     28  H   UNL     1      -6.525  -1.471 134.767  0.00  0.00    +0.000 HD
ATOM     29  H   UNL     1      -9.455   1.192 131.716  0.00  0.00    +0.000 HD
ATOM     30  H   UNL     1      -4.844   3.860 131.971  0.00  0.00    +0.000 HD
ENDROOT
BRANCH   9  31
ATOM     31  N   UNL     1      -4.743   1.274 126.725  0.00  0.00    +0.000 NA
ATOM     32  H   UNL     1      -4.674   1.547 127.695  0.00  0.00    +0.000 HD
ATOM     33  H   UNL     1      -5.600   1.730 126.405  0.00  0.00    +0.000 HD
ENDBRANCH   9  31
BRANCH  14  34
ATOM     34  C   UNL     1      -7.567  -3.594 133.767  0.00  0.00    +0.000 C 
ATOM     35  O   UNL     1      -8.697  -4.002 134.040  0.00  0.00    +0.000 OA
ATOM     36  N   UNL     1      -6.413  -4.293 134.111  0.00  0.00    +0.000 N 
BRANCH  36  37
ATOM     37  C   UNL     1      -6.558  -5.563 134.928  0.00  0.00    +0.000 C 
BRANCH  37  38
ATOM     38  C   UNL     1      -6.980  -5.373 136.449  0.00  0.00    +0.000 C 
ATOM     39  O   UNL     1      -6.265  -4.728 137.227  0.00  0.00    +0.000 OA
ATOM     40  N   UNL     1      -8.330  -5.539 136.794  0.00  0.00    +0.000 N 
ATOM     41  H   UNL     1      -8.954  -6.129 136.256  0.00  0.00    +0.000 HD
BRANCH  40  42
ATOM     42  C   UNL     1      -8.946  -4.835 137.982  0.00  0.00    +0.000 C 
BRANCH  42  43
ATOM     43  C   UNL     1      -8.621  -3.316 137.905  0.00  0.00    +0.000 C 
ATOM     44  O   UNL     1      -9.165  -2.613 137.053  0.00  0.00    +0.000 OA
ATOM     45  N   UNL     1      -7.711  -2.795 138.805  0.00  0.00    +0.000 N 
ATOM     46  H   UNL     1      -7.270  -3.383 139.488  0.00  0.00    +0.000 HD
BRANCH  45  47
ATOM     47  C   UNL     1      -7.355  -1.374 138.815  0.00  0.00    +0.000 C 
BRANCH  47  48
ATOM     48  C   UNL     1      -6.120  -1.012 137.963  0.00  0.00    +0.000 C 
ATOM     49  N   UNL     1      -5.117  -0.290 138.565  0.00  0.00    +0.000 N 
ATOM     50  O   UNL     1      -6.022  -1.353 136.786  0.00  0.00    +0.000 OA
ATOM     51  H   UNL     1      -5.108   0.031 139.516  0.00  0.00    +0.000 HD
ATOM     52  H   UNL     1      -4.295  -0.038 138.029  0.00  0.00    +0.000 HD
ENDBRANCH  47  48
ENDBRANCH  45  47
ENDBRANCH  42  43
BRANCH  42  53
ATOM     53  C   UNL     1      -8.492  -5.356 139.376  0.00  0.00    +0.000 C 
BRANCH  53  54
ATOM     54  C   UNL     1      -9.636  -5.689 140.307  0.00  0.00    +0.000 C 
ATOM     55  C   UNL     1      -9.859  -4.558 141.238  0.00  0.00    +0.000 C 
ATOM     56  C   UNL     1     -10.995  -5.657 139.709  0.00  0.00    +0.000 C 
ENDBRANCH  53  54
ENDBRANCH  42  53
ENDBRANCH  40  42
ENDBRANCH  37  38
ENDBRANCH  36  37
BRANCH  36  57
ATOM     57  C   UNL     1      -5.056  -3.856 133.740  0.00  0.00    +0.000 C 
BRANCH  57  58
ATOM     58  C   UNL     1      -4.016  -3.666 134.755  0.00  0.00    +0.000 C 
BRANCH  58  59
ATOM     59  C   UNL     1      -3.171  -2.459 134.741  0.00  0.00    +0.000 C 
BRANCH  59  60
ATOM     60  O   UNL     1      -3.987  -1.298 134.887  0.00  0.00    +0.000 OA
ATOM     61  H   UNL     1      -3.946  -0.759 134.082  0.00  0.00    +0.000 HD
ENDBRANCH  59  60
ENDBRANCH  58  59
ENDBRANCH  57  58
ENDBRANCH  36  57
ENDBRANCH  14  34
BRANCH   1  62
ATOM     62  C   UNL     1      -7.690   4.952 132.118  0.00  0.00    +0.000 C 
ATOM     63  C   UNL     1      -8.608   5.868 133.851  0.00  0.00    +0.000 C 
BRANCH  62  65
ATOM     64  C   UNL     1      -9.998   6.574 131.186  0.00  0.00    +0.000 C 
ATOM     65  C   UNL     1      -9.108   6.052 132.727  0.00  0.00    +0.000 C 
ENDBRANCH  62  65
ENDBRANCH   1  62
BRANCH  18  66
ATOM     66  C   UNL     1      -5.998   0.897 131.175  0.00  0.00    +0.000 C 
BRANCH  66  67
ATOM     67  C   UNL     1      -4.693   0.637 131.661  0.00  0.00    +0.000 C 
ATOM     68  N   UNL     1      -4.354   1.701 131.139  0.00  0.00    +0.000 N 
ATOM     69  O   UNL     1      -4.058  -0.132 132.290  0.00  0.00    +0.000 OA
ATOM     70  H   UNL     1      -5.113   2.291 131.645  0.00  0.00    +0.000 HD
ATOM     71  H   UNL     1      -3.441   2.131 131.014  0.00  0.00    +0.000 HD
ENDBRANCH  66  67
ENDBRANCH  18  66
BRANCH   5  72
ATOM     72  C   UNL     1      -7.355   2.331 125.136  0.00  0.00    +0.000 C 
BRANCH  72  73
ATOM     73  C   UNL     1      -7.648   2.784 123.729  0.00  0.00    +0.000 A 
ATOM     74  C   UNL     1      -8.841   2.567 122.979  0.00  0.00    +0.000 A 
ATOM     75  C   UNL     1      -8.922   3.029 121.678  0.00  0.00    +0.000 A 
ATOM     76  C   UNL     1      -7.790   3.592 121.113  0.00  0.00    +0.000 A 
ATOM     77  C   UNL     1      -6.575   3.595 121.777  0.00  0.00    +0.000 A 
ATOM     78  C   UNL     1      -6.499   3.179 123.072  0.00  0.00    +0.000 A 
BRANCH  76  79
ATOM     79  O   UNL     1      -7.778   4.187 119.892  0.00  0.00    +0.000 OA
ATOM     80  H   UNL     1      -8.432   4.899 119.841  0.00  0.00    +0.000 HD
ENDBRANCH  76  79
ENDBRANCH  72  73
ENDBRANCH   5  72
BRANCH  22  81
ATOM     81  C   UNL     1      -6.380   3.311 134.917  0.00  0.00    +0.000 C 
BRANCH  81  82
ATOM     82  C   UNL     1      -5.001   3.363 135.448  0.00  0.00    +0.000 C 
BRANCH  82  83
ATOM     83  C   UNL     1      -3.841   2.614 135.010  0.00  0.00    +0.000 C 
ATOM     84  N   UNL     1      -3.711   1.567 135.827  0.00  0.00    +0.000 N 
ATOM     85  O   UNL     1      -3.184   2.885 134.017  0.00  0.00    +0.000 OA
ATOM     86  H   UNL     1      -4.354   1.421 136.594  0.00  0.00    +0.000 HD
ATOM     87  H   UNL     1      -2.964   0.946 135.629  0.00  0.00    +0.000 HD
ENDBRANCH  82  83
ENDBRANCH  81  82
ENDBRANCH  22  81
TORSDOF 24
ENDMDL
MODEL 4
REMARK VINA RESULT:      -8.1      3.818     10.631
REMARK  Name = CHEMBL4583231
REMARK  28 active torsions:
REMARK  status: ('A' for Active; 'I' for Inactive)
REMARK    1  A    between atoms: C_1  and  C_2
REMARK    2  A    between atoms: C_2  and  C_3
REMARK    3  A    between atoms: C_3  and  C_4
REMARK    4  A    between atoms: C_3  and  C_5
REMARK    5  A    between atoms: C_9  and  C_10
REMARK    6  A    between atoms: C_10  and  C_11
REMARK    7  A    between atoms: C_14  and  O_15
REMARK    8  A    between atoms: C_21  and  N_22
REMARK    9  A    between atoms: C_27  and  C_28
REMARK   10  A    between atoms: N_30  and  C_31
REMARK   11  A    between atoms: N_30  and  C_35
REMARK   12  A    between atoms: C_31  and  C_32
REMARK   13  A    between atoms: C_32  and  C_33
REMARK   14  A    between atoms: C_33  and  O_34
REMARK   15  A    between atoms: C_35  and  C_36
REMARK   16  A    between atoms: N_38  and  C_39
REMARK   17  A    between atoms: C_39  and  C_40
REMARK   18  A    between atoms: C_39  and  C_44
REMARK   19  A    between atoms: C_40  and  C_41
REMARK   20  A    between atoms: C_41  and  C_42
REMARK   21  A    between atoms: C_41  and  C_43
REMARK   22  A    between atoms: N_46  and  C_47
REMARK   23  A    between atoms: C_47  and  C_48
REMARK   24  A    between atoms: C_54  and  C_55
REMARK   25  A    between atoms: C_55  and  C_56
REMARK   26  A    between atoms: C_62  and  C_63
REMARK   27  A    between atoms: C_63  and  C_64
REMARK   28  A    between atoms: C_64  and  C_65
REMARK                            x       y       z     vdW  Elec       q    Type
REMARK                         _______ _______ _______ _____ _____    ______ ____
ROOT
ATOM      1  C   UNL     1      -8.107   4.919 129.244  0.00  0.00    +0.000 C 
ATOM      2  N   UNL     1      -7.041   4.022 127.377  0.00  0.00    +0.000 N 
ATOM      3  C   UNL     1      -6.276   3.518 125.697  0.00  0.00    +0.000 C 
ATOM      4  O   UNL     1      -4.956   3.617 125.103  0.00  0.00    +0.000 OA
ATOM      5  C   UNL     1      -6.347   1.929 124.277  0.00  0.00    +0.000 C 
ATOM      6  N   UNL     1      -6.099   0.279 124.441  0.00  0.00    +0.000 N 
ATOM      7  C   UNL     1      -5.639  -0.274 125.604  0.00  0.00    +0.000 C 
ATOM      8  O   UNL     1      -5.641  -1.478 125.829  0.00  0.00    +0.000 OA
ATOM      9  C   UNL     1      -5.148   0.612 126.709  0.00  0.00    +0.000 C 
ATOM     10  C   UNL     1      -6.140   0.935 127.761  0.00  0.00    +0.000 C 
ATOM     11  S   UNL     1      -5.579  -0.585 128.569  0.00  0.00    +0.000 S 
ATOM     12  S   UNL     1      -6.914  -0.909 129.889  0.00  0.00    +0.000 S 
ATOM     13  C   UNL     1      -6.600  -1.816 131.405  0.00  0.00    +0.000 C 
ATOM     14  C   UNL     1      -7.720  -1.686 132.589  0.00  0.00    +0.000 C 
ATOM     15  N   UNL     1      -7.486  -0.536 133.374  0.00  0.00    +0.000 N 
ATOM     16  C   UNL     1      -7.573   0.673 132.853  0.00  0.00    +0.000 C 
ATOM     17  O   UNL     1      -7.243   1.578 133.593  0.00  0.00    +0.000 OA
ATOM     18  C   UNL     1      -8.144   0.802 131.454  0.00  0.00    +0.000 C 
ATOM     19  N   UNL     1      -9.496   1.418 131.511  0.00  0.00    +0.000 N 
ATOM     20  C   UNL     1      -9.435   2.730 131.648  0.00  0.00    +0.000 C 
ATOM     21  O   UNL     1      -9.807   3.403 130.513  0.00  0.00    +0.000 OA
ATOM     22  C   UNL     1      -7.887   3.689 132.589  0.00  0.00    +0.000 C 
ATOM     23  N   UNL     1      -7.038   5.100 131.781  0.00  0.00    +0.000 N 
ATOM     24  C   UNL     1      -7.484   5.903 130.561  0.00  0.00    +0.000 C 
ATOM     25  O   UNL     1      -7.863   7.090 130.711  0.00  0.00    +0.000 OA
ATOM     26  H   UNL     1      -6.144   4.516 126.726  0.00  0.00    +0.000 HD
ATOM     27  H   UNL     1      -6.337  -0.509 123.752  0.00  0.00    +0.000 HD
ATOM     28  H   UNL     1      -7.192  -0.606 134.336  0.00  0.00    +0.000 HD
ATOM     29  H   UNL     1     -10.233   1.204 130.805  0.00  0.00    +0.000 HD
ATOM     30  H   UNL     1      -6.274   4.750 131.249  0.00  0.00    +0.000 HD
ENDROOT
BRANCH   9  31
ATOM     31  N   UNL     1      -5.114   1.885 126.282  0.00  0.00    +0.000 NA
ATOM     32  H   UNL     1      -6.087   2.019 126.520  0.00  0.00    +0.000 HD
ATOM     33  H   UNL     1      -5.108   1.918 125.261  0.00  0.00    +0.000 HD
ENDBRANCH   9  31
BRANCH  14  34
ATOM     34  C   UNL     1      -7.694  -2.958 133.434  0.00  0.00    +0.000 C 
ATOM     35  O   UNL     1      -8.717  -3.638 133.523  0.00  0.00    +0.000 OA
ATOM     36  N   UNL     1      -6.505  -3.301 134.073  0.00  0.00    +0.000 N 
BRANCH  36  37
ATOM     37  C   UNL     1      -6.502  -4.518 134.980  0.00  0.00    +0.000 C 
BRANCH  37  38
ATOM     38  C   UNL     1      -7.201  -4.336 136.396  0.00  0.00    +0.000 C 
ATOM     39  O   UNL     1      -6.872  -5.043 137.359  0.00  0.00    +0.000 OA
ATOM     40  N   UNL     1      -7.846  -3.121 136.674  0.00  0.00    +0.000 N 
ATOM     41  H   UNL     1      -8.226  -2.535 135.939  0.00  0.00    +0.000 HD
BRANCH  40  42
ATOM     42  C   UNL     1      -8.001  -2.600 138.084  0.00  0.00    +0.000 C 
BRANCH  42  43
ATOM     43  C   UNL     1      -9.475  -2.158 138.311  0.00  0.00    +0.000 C 
ATOM     44  O   UNL     1      -9.723  -1.186 139.025  0.00  0.00    +0.000 OA
ATOM     45  N   UNL     1     -10.478  -2.887 137.700  0.00  0.00    +0.000 N 
ATOM     46  H   UNL     1     -10.260  -3.682 137.127  0.00  0.00    +0.000 HD
BRANCH  45  47
ATOM     47  C   UNL     1     -11.893  -2.536 137.847  0.00  0.00    +0.000 C 
BRANCH  47  48
ATOM     48  C   UNL     1     -12.720  -3.531 138.687  0.00  0.00    +0.000 C 
ATOM     49  N   UNL     1     -12.344  -4.854 138.666  0.00  0.00    +0.000 N 
ATOM     50  O   UNL     1     -13.684  -3.168 139.359  0.00  0.00    +0.000 OA
ATOM     51  H   UNL     1     -11.576  -5.242 138.150  0.00  0.00    +0.000 HD
ATOM     52  H   UNL     1     -12.870  -5.529 139.208  0.00  0.00    +0.000 HD
ENDBRANCH  47  48
ENDBRANCH  45  47
ENDBRANCH  42  43
BRANCH  42  53
ATOM     53  C   UNL     1      -7.076  -1.407 138.460  0.00  0.00    +0.000 C 
BRANCH  53  54
ATOM     54  C   UNL     1      -6.008  -1.755 139.473  0.00  0.00    +0.000 C 
ATOM     55  C   UNL     1      -4.918  -2.499 138.802  0.00  0.00    +0.000 C 
ATOM     56  C   UNL     1      -5.157  -0.630 139.935  0.00  0.00    +0.000 C 
ENDBRANCH  53  54
ENDBRANCH  42  53
ENDBRANCH  40  42
ENDBRANCH  37  38
ENDBRANCH  36  37
BRANCH  36  57
ATOM     57  C   UNL     1      -5.254  -2.537 133.931  0.00  0.00    +0.000 C 
BRANCH  57  58
ATOM     58  C   UNL     1      -4.456  -2.162 135.102  0.00  0.00    +0.000 C 
BRANCH  58  59
ATOM     59  C   UNL     1      -3.970  -0.780 135.262  0.00  0.00    +0.000 C 
BRANCH  59  60
ATOM     60  O   UNL     1      -4.978   0.137 134.841  0.00  0.00    +0.000 OA
ATOM     61  H   UNL     1      -5.290   0.658 135.597  0.00  0.00    +0.000 HD
ENDBRANCH  59  60
ENDBRANCH  58  59
ENDBRANCH  57  58
ENDBRANCH  36  57
ENDBRANCH  14  34
BRANCH   1  62
ATOM     62  C   UNL     1      -9.276   5.259 131.035  0.00  0.00    +0.000 C 
ATOM     63  C   UNL     1     -10.522   6.095 132.596  0.00  0.00    +0.000 C 
BRANCH  62  65
ATOM     64  C   UNL     1     -11.727   6.354 129.764  0.00  0.00    +0.000 C 
ATOM     65  C   UNL     1     -10.919   6.122 131.418  0.00  0.00    +0.000 C 
ENDBRANCH  62  65
ENDBRANCH   1  62
BRANCH  18  66
ATOM     66  C   UNL     1      -6.745   1.570 130.614  0.00  0.00    +0.000 C 
BRANCH  66  67
ATOM     67  C   UNL     1      -5.470   1.591 131.230  0.00  0.00    +0.000 C 
ATOM     68  N   UNL     1      -5.260   2.638 130.616  0.00  0.00    +0.000 N 
ATOM     69  O   UNL     1      -4.783   1.012 131.994  0.00  0.00    +0.000 OA
ATOM     70  H   UNL     1      -6.152   3.136 130.987  0.00  0.00    +0.000 HD
ATOM     71  H   UNL     1      -4.422   3.206 130.515  0.00  0.00    +0.000 HD
ENDBRANCH  66  67
ENDBRANCH  18  66
BRANCH   5  72
ATOM     72  C   UNL     1      -7.693   2.288 124.372  0.00  0.00    +0.000 C 
BRANCH  72  73
ATOM     73  C   UNL     1      -7.832   2.866 122.988  0.00  0.00    +0.000 A 
ATOM     74  C   UNL     1      -9.007   2.914 122.182  0.00  0.00    +0.000 A 
ATOM     75  C   UNL     1      -8.940   3.456 120.911  0.00  0.00    +0.000 A 
ATOM     76  C   UNL     1      -7.700   3.833 120.425  0.00  0.00    +0.000 A 
ATOM     77  C   UNL     1      -6.538   3.576 121.133  0.00  0.00    +0.000 A 
ATOM     78  C   UNL     1      -6.600   3.080 122.400  0.00  0.00    +0.000 A 
BRANCH  76  79
ATOM     79  O   UNL     1      -7.522   4.484 119.246  0.00  0.00    +0.000 OA
ATOM     80  H   UNL     1      -6.973   3.966 118.639  0.00  0.00    +0.000 HD
ENDBRANCH  76  79
ENDBRANCH  72  73
ENDBRANCH   5  72
BRANCH  22  81
ATOM     81  C   UNL     1      -7.985   4.107 134.077  0.00  0.00    +0.000 C 
BRANCH  81  82
ATOM     82  C   UNL     1      -6.702   4.438 134.736  0.00  0.00    +0.000 C 
BRANCH  82  83
ATOM     83  C   UNL     1      -5.387   3.897 134.462  0.00  0.00    +0.000 C 
ATOM     84  N   UNL     1      -5.100   3.032 135.437  0.00  0.00    +0.000 N 
ATOM     85  O   UNL     1      -4.733   4.155 133.464  0.00  0.00    +0.000 OA
ATOM     86  H   UNL     1      -5.751   2.867 136.195  0.00  0.00    +0.000 HD
ATOM     87  H   UNL     1      -4.231   2.563 135.366  0.00  0.00    +0.000 HD
ENDBRANCH  82  83
ENDBRANCH  81  82
ENDBRANCH  22  81
TORSDOF 24
ENDMDL
MODEL 5
REMARK VINA RESULT:      -8.1      2.505      4.838
REMARK  Name = CHEMBL4583231
REMARK  28 active torsions:
REMARK  status: ('A' for Active; 'I' for Inactive)
REMARK    1  A    between atoms: C_1  and  C_2
REMARK    2  A    between atoms: C_2  and  C_3
REMARK    3  A    between atoms: C_3  and  C_4
REMARK    4  A    between atoms: C_3  and  C_5
REMARK    5  A    between atoms: C_9  and  C_10
REMARK    6  A    between atoms: C_10  and  C_11
REMARK    7  A    between atoms: C_14  and  O_15
REMARK    8  A    between atoms: C_21  and  N_22
REMARK    9  A    between atoms: C_27  and  C_28
REMARK   10  A    between atoms: N_30  and  C_31
REMARK   11  A    between atoms: N_30  and  C_35
REMARK   12  A    between atoms: C_31  and  C_32
REMARK   13  A    between atoms: C_32  and  C_33
REMARK   14  A    between atoms: C_33  and  O_34
REMARK   15  A    between atoms: C_35  and  C_36
REMARK   16  A    between atoms: N_38  and  C_39
REMARK   17  A    between atoms: C_39  and  C_40
REMARK   18  A    between atoms: C_39  and  C_44
REMARK   19  A    between atoms: C_40  and  C_41
REMARK   20  A    between atoms: C_41  and  C_42
REMARK   21  A    between atoms: C_41  and  C_43
REMARK   22  A    between atoms: N_46  and  C_47
REMARK   23  A    between atoms: C_47  and  C_48
REMARK   24  A    between atoms: C_54  and  C_55
REMARK   25  A    between atoms: C_55  and  C_56
REMARK   26  A    between atoms: C_62  and  C_63
REMARK   27  A    between atoms: C_63  and  C_64
REMARK   28  A    between atoms: C_64  and  C_65
REMARK                            x       y       z     vdW  Elec       q    Type
REMARK                         _______ _______ _______ _____ _____    ______ ____
ROOT
ATOM      1  C   UNL     1      -4.702   2.484 134.637  0.00  0.00    +0.000 C 
ATOM      2  N   UNL     1      -4.082   0.342 135.314  0.00  0.00    +0.000 N 
ATOM      3  C   UNL     1      -3.460  -1.283 136.108  0.00  0.00    +0.000 C 
ATOM      4  O   UNL     1      -4.080  -2.359 136.857  0.00  0.00    +0.000 OA
ATOM      5  C   UNL     1      -2.112  -2.886 135.711  0.00  0.00    +0.000 C 
ATOM      6  N   UNL     1      -1.980  -3.932 134.407  0.00  0.00    +0.000 N 
ATOM      7  C   UNL     1      -2.911  -3.964 133.405  0.00  0.00    +0.000 C 
ATOM      8  O   UNL     1      -2.748  -4.558 132.346  0.00  0.00    +0.000 OA
ATOM      9  C   UNL     1      -4.191  -3.198 133.551  0.00  0.00    +0.000 C 
ATOM     10  C   UNL     1      -4.207  -1.851 132.935  0.00  0.00    +0.000 C 
ATOM     11  S   UNL     1      -4.744  -2.694 131.426  0.00  0.00    +0.000 S 
ATOM     12  S   UNL     1      -4.513  -1.376 130.070  0.00  0.00    +0.000 S 
ATOM     13  C   UNL     1      -5.469  -1.346 128.552  0.00  0.00    +0.000 C 
ATOM     14  C   UNL     1      -5.425   0.036 127.678  0.00  0.00    +0.000 C 
ATOM     15  N   UNL     1      -6.381   0.958 128.153  0.00  0.00    +0.000 N 
ATOM     16  C   UNL     1      -6.295   1.462 129.369  0.00  0.00    +0.000 C 
ATOM     17  O   UNL     1      -7.232   2.159 129.707  0.00  0.00    +0.000 OA
ATOM     18  C   UNL     1      -5.027   1.197 130.158  0.00  0.00    +0.000 C 
ATOM     19  N   UNL     1      -4.225   2.444 130.267  0.00  0.00    +0.000 N 
ATOM     20  C   UNL     1      -4.688   3.246 131.210  0.00  0.00    +0.000 C 
ATOM     21  O   UNL     1      -3.869   3.307 132.308  0.00  0.00    +0.000 OA
ATOM     22  C   UNL     1      -6.660   3.303 131.766  0.00  0.00    +0.000 C 
ATOM     23  N   UNL     1      -7.131   3.190 133.535  0.00  0.00    +0.000 N 
ATOM     24  C   UNL     1      -6.238   3.331 134.766  0.00  0.00    +0.000 C 
ATOM     25  O   UNL     1      -6.354   4.345 135.496  0.00  0.00    +0.000 OA
ATOM     26  H   UNL     1      -4.456  -0.262 136.297  0.00  0.00    +0.000 HD
ATOM     27  H   UNL     1      -1.173  -4.592 134.151  0.00  0.00    +0.000 HD
ATOM     28  H   UNL     1      -7.185   1.214 127.601  0.00  0.00    +0.000 HD
ATOM     29  H   UNL     1      -3.185   2.430 130.342  0.00  0.00    +0.000 HD
ATOM     30  H   UNL     1      -7.268   2.232 133.767  0.00  0.00    +0.000 HD
ENDROOT
BRANCH   9  31
ATOM     31  N   UNL     1      -4.269  -2.686 134.790  0.00  0.00    +0.000 NA
ATOM     32  H   UNL     1      -5.064  -2.117 134.533  0.00  0.00    +0.000 HD
ATOM     33  H   UNL     1      -3.523  -2.004 134.940  0.00  0.00    +0.000 HD
ENDBRANCH   9  31
BRANCH  14  34
ATOM     34  C   UNL     1      -5.655  -0.305 126.207  0.00  0.00    +0.000 C 
ATOM     35  O   UNL     1      -4.771  -0.051 125.388  0.00  0.00    +0.000 OA
ATOM     36  N   UNL     1      -6.864  -0.895 125.847  0.00  0.00    +0.000 N 
BRANCH  36  37
ATOM     37  C   UNL     1      -7.128  -1.155 124.376  0.00  0.00    +0.000 C 
BRANCH  37  38
ATOM     38  C   UNL     1      -7.823   0.026 123.570  0.00  0.00    +0.000 C 
ATOM     39  O   UNL     1      -9.002  -0.068 123.202  0.00  0.00    +0.000 OA
ATOM     40  N   UNL     1      -7.272   1.313 123.661  0.00  0.00    +0.000 N 
ATOM     41  H   UNL     1      -6.291   1.464 123.865  0.00  0.00    +0.000 HD
BRANCH  40  42
ATOM     42  C   UNL     1      -8.109   2.558 123.477  0.00  0.00    +0.000 C 
BRANCH  42  43
ATOM     43  C   UNL     1      -7.926   3.094 122.028  0.00  0.00    +0.000 C 
ATOM     44  O   UNL     1      -8.912   3.321 121.328  0.00  0.00    +0.000 OA
ATOM     45  N   UNL     1      -6.640   3.294 121.563  0.00  0.00    +0.000 N 
ATOM     46  H   UNL     1      -5.846   3.096 122.144  0.00  0.00    +0.000 HD
BRANCH  45  47
ATOM     47  C   UNL     1      -6.373   3.808 120.217  0.00  0.00    +0.000 C 
BRANCH  47  48
ATOM     48  C   UNL     1      -5.449   5.043 120.170  0.00  0.00    +0.000 C 
ATOM     49  N   UNL     1      -5.405   5.764 119.001  0.00  0.00    +0.000 N 
ATOM     50  O   UNL     1      -4.772   5.383 121.138  0.00  0.00    +0.000 OA
ATOM     51  H   UNL     1      -5.920   5.565 118.163  0.00  0.00    +0.000 HD
ATOM     52  H   UNL     1      -4.807   6.580 118.942  0.00  0.00    +0.000 HD
ENDBRANCH  47  48
ENDBRANCH  45  47
ENDBRANCH  42  43
BRANCH  42  53
ATOM     53  C   UNL     1      -7.803   3.721 124.464  0.00  0.00    +0.000 C 
BRANCH  53  54
ATOM     54  C   UNL     1      -6.564   3.502 125.303  0.00  0.00    +0.000 C 
ATOM     55  C   UNL     1      -5.441   4.285 124.737  0.00  0.00    +0.000 C 
ATOM     56  C   UNL     1      -6.550   4.165 126.632  0.00  0.00    +0.000 C 
ENDBRANCH  53  54
ENDBRANCH  42  53
ENDBRANCH  40  42
ENDBRANCH  37  38
ENDBRANCH  36  37
BRANCH  36  57
ATOM     57  C   UNL     1      -7.911  -1.263 126.816  0.00  0.00    +0.000 C 
BRANCH  57  58
ATOM     58  C   UNL     1      -9.023  -2.138 126.437  0.00  0.00    +0.000 C 
BRANCH  58  59
ATOM     59  C   UNL     1      -8.898  -3.601 126.559  0.00  0.00    +0.000 C 
BRANCH  59  60
ATOM     60  O   UNL     1      -8.333  -4.137 125.364  0.00  0.00    +0.000 OA
ATOM     61  H   UNL     1      -9.030  -4.526 124.812  0.00  0.00    +0.000 HD
ENDBRANCH  59  60
ENDBRANCH  58  59
ENDBRANCH  57  58
ENDBRANCH  36  57
ENDBRANCH  14  34
BRANCH   1  62
ATOM     62  C   UNL     1      -5.058   4.325 133.554  0.00  0.00    +0.000 C 
ATOM     63  C   UNL     1      -5.341   6.390 132.969  0.00  0.00    +0.000 C 
BRANCH  62  65
ATOM     64  C   UNL     1      -2.691   5.871 134.467  0.00  0.00    +0.000 C 
ATOM     65  C   UNL     1      -4.318   6.069 133.599  0.00  0.00    +0.000 C 
ENDBRANCH  62  65
ENDBRANCH   1  62
BRANCH  18  66
ATOM     66  C   UNL     1      -5.719   0.340 131.586  0.00  0.00    +0.000 C 
BRANCH  66  67
ATOM     67  C   UNL     1      -7.054  -0.131 131.553  0.00  0.00    +0.000 C 
ATOM     68  N   UNL     1      -7.065   0.000 132.778  0.00  0.00    +0.000 N 
ATOM     69  O   UNL     1      -7.910  -0.489 130.825  0.00  0.00    +0.000 OA
ATOM     70  H   UNL     1      -6.759   1.043 132.756  0.00  0.00    +0.000 HD
ATOM     71  H   UNL     1      -7.750  -0.266 133.481  0.00  0.00    +0.000 HD
ENDBRANCH  66  67
ENDBRANCH  18  66
BRANCH   5  72
ATOM     72  C   UNL     1      -1.274  -1.775 135.602  0.00  0.00    +0.000 C 
BRANCH  72  73
ATOM     73  C   UNL     1      -0.306  -2.163 136.690  0.00  0.00    +0.000 A 
ATOM     74  C   UNL     1       0.059  -3.479 137.099  0.00  0.00    +0.000 A 
ATOM     75  C   UNL     1       0.944  -3.646 138.148  0.00  0.00    +0.000 A 
ATOM     76  C   UNL     1       1.361  -2.520 138.838  0.00  0.00    +0.000 A 
ATOM     77  C   UNL     1       0.828  -1.271 138.571  0.00  0.00    +0.000 A 
ATOM     78  C   UNL     1      -0.013  -1.093 137.515  0.00  0.00    +0.000 A 
BRANCH  76  79
ATOM     79  O   UNL     1       2.316  -2.543 139.804  0.00  0.00    +0.000 OA
ATOM     80  H   UNL     1       3.095  -2.032 139.539  0.00  0.00    +0.000 HD
ENDBRANCH  76  79
ENDBRANCH  72  73
ENDBRANCH   5  72
BRANCH  22  81
ATOM     81  C   UNL     1      -7.630   4.359 131.183  0.00  0.00    +0.000 C 
BRANCH  81  82
ATOM     82  C   UNL     1      -9.047   4.222 131.587  0.00  0.00    +0.000 C 
BRANCH  82  83
ATOM     83  C   UNL     1     -10.053   3.334 131.042  0.00  0.00    +0.000 C 
ATOM     84  N   UNL     1     -10.213   2.332 131.910  0.00  0.00    +0.000 N 
ATOM     85  O   UNL     1     -10.674   3.548 130.013  0.00  0.00    +0.000 OA
ATOM     86  H   UNL     1      -9.668   2.288 132.761  0.00  0.00    +0.000 HD
ATOM     87  H   UNL     1     -10.896   1.654 131.676  0.00  0.00    +0.000 HD
ENDBRANCH  82  83
ENDBRANCH  81  82
ENDBRANCH  22  81
TORSDOF 24
ENDMDL
MODEL 6
REMARK VINA RESULT:      -8.1      2.911     10.156
REMARK  Name = CHEMBL4583231
REMARK  28 active torsions:
REMARK  status: ('A' for Active; 'I' for Inactive)
REMARK    1  A    between atoms: C_1  and  C_2
REMARK    2  A    between atoms: C_2  and  C_3
REMARK    3  A    between atoms: C_3  and  C_4
REMARK    4  A    between atoms: C_3  and  C_5
REMARK    5  A    between atoms: C_9  and  C_10
REMARK    6  A    between atoms: C_10  and  C_11
REMARK    7  A    between atoms: C_14  and  O_15
REMARK    8  A    between atoms: C_21  and  N_22
REMARK    9  A    between atoms: C_27  and  C_28
REMARK   10  A    between atoms: N_30  and  C_31
REMARK   11  A    between atoms: N_30  and  C_35
REMARK   12  A    between atoms: C_31  and  C_32
REMARK   13  A    between atoms: C_32  and  C_33
REMARK   14  A    between atoms: C_33  and  O_34
REMARK   15  A    between atoms: C_35  and  C_36
REMARK   16  A    between atoms: N_38  and  C_39
REMARK   17  A    between atoms: C_39  and  C_40
REMARK   18  A    between atoms: C_39  and  C_44
REMARK   19  A    between atoms: C_40  and  C_41
REMARK   20  A    between atoms: C_41  and  C_42
REMARK   21  A    between atoms: C_41  and  C_43
REMARK   22  A    between atoms: N_46  and  C_47
REMARK   23  A    between atoms: C_47  and  C_48
REMARK   24  A    between atoms: C_54  and  C_55
REMARK   25  A    between atoms: C_55  and  C_56
REMARK   26  A    between atoms: C_62  and  C_63
REMARK   27  A    between atoms: C_63  and  C_64
REMARK   28  A    between atoms: C_64  and  C_65
REMARK                            x       y       z     vdW  Elec       q    Type
REMARK                         _______ _______ _______ _____ _____    ______ ____
ROOT
ATOM      1  C   UNL     1      -7.734   3.942 129.862  0.00  0.00    +0.000 C 
ATOM      2  N   UNL     1      -6.889   2.355 128.379  0.00  0.00    +0.000 N 
ATOM      3  C   UNL     1      -6.380   1.173 126.964  0.00  0.00    +0.000 C 
ATOM      4  O   UNL     1      -5.255   1.095 126.051  0.00  0.00    +0.000 OA
ATOM      5  C   UNL     1      -6.387  -0.905 126.485  0.00  0.00    +0.000 C 
ATOM      6  N   UNL     1      -5.762  -2.234 127.293  0.00  0.00    +0.000 N 
ATOM      7  C   UNL     1      -4.974  -2.105 128.403  0.00  0.00    +0.000 C 
ATOM      8  O   UNL     1      -4.672  -3.042 129.134  0.00  0.00    +0.000 OA
ATOM      9  C   UNL     1      -4.477  -0.752 128.813  0.00  0.00    +0.000 C 
ATOM     10  C   UNL     1      -5.288  -0.053 129.837  0.00  0.00    +0.000 C 
ATOM     11  S   UNL     1      -4.266  -0.927 131.049  0.00  0.00    +0.000 S 
ATOM     12  S   UNL     1      -5.212  -0.692 132.685  0.00  0.00    +0.000 S 
ATOM     13  C   UNL     1      -4.419  -0.712 134.294  0.00  0.00    +0.000 C 
ATOM     14  C   UNL     1      -5.285  -0.129 135.553  0.00  0.00    +0.000 C 
ATOM     15  N   UNL     1      -5.153   1.273 135.642  0.00  0.00    +0.000 N 
ATOM     16  C   UNL     1      -5.599   2.062 134.683  0.00  0.00    +0.000 C 
ATOM     17  O   UNL     1      -5.332   3.239 134.818  0.00  0.00    +0.000 OA
ATOM     18  C   UNL     1      -6.449   1.439 133.592  0.00  0.00    +0.000 C 
ATOM     19  N   UNL     1      -7.863   1.873 133.738  0.00  0.00    +0.000 N 
ATOM     20  C   UNL     1      -8.059   3.085 133.251  0.00  0.00    +0.000 C 
ATOM     21  O   UNL     1      -8.784   3.082 132.087  0.00  0.00    +0.000 OA
ATOM     22  C   UNL     1      -6.599   4.523 133.197  0.00  0.00    +0.000 C 
ATOM     23  N   UNL     1      -6.250   5.436 131.645  0.00  0.00    +0.000 N 
ATOM     24  C   UNL     1      -7.090   5.497 130.371  0.00  0.00    +0.000 C 
ATOM     25  O   UNL     1      -7.677   6.564 130.073  0.00  0.00    +0.000 OA
ATOM     26  H   UNL     1      -6.265   2.552 127.357  0.00  0.00    +0.000 HD
ATOM     27  H   UNL     1      -5.956  -3.277 127.125  0.00  0.00    +0.000 HD
ATOM     28  H   UNL     1      -4.668   1.708 136.412  0.00  0.00    +0.000 HD
ATOM     29  H   UNL     1      -8.661   1.274 133.436  0.00  0.00    +0.000 HD
ATOM     30  H   UNL     1      -5.549   4.944 131.138  0.00  0.00    +0.000 HD
ENDROOT
BRANCH   9  31
ATOM     31  N   UNL     1      -4.802   0.149 127.871  0.00  0.00    +0.000 NA
ATOM     32  H   UNL     1      -5.757   0.188 128.200  0.00  0.00    +0.000 HD
ATOM     33  H   UNL     1      -4.879  -0.302 126.958  0.00  0.00    +0.000 HD
ENDBRANCH   9  31
BRANCH  14  34
ATOM     34  C   UNL     1      -4.820  -0.820 136.833  0.00  0.00    +0.000 C 
ATOM     35  O   UNL     1      -3.889  -0.329 137.473  0.00  0.00    +0.000 OA
ATOM     36  N   UNL     1      -5.472  -1.984 137.230  0.00  0.00    +0.000 N 
BRANCH  36  37
ATOM     37  C   UNL     1      -4.956  -2.717 138.455  0.00  0.00    +0.000 C 
BRANCH  37  38
ATOM     38  C   UNL     1      -3.832  -3.811 138.193  0.00  0.00    +0.000 C 
ATOM     39  O   UNL     1      -3.700  -4.777 138.957  0.00  0.00    +0.000 OA
ATOM     40  N   UNL     1      -3.301  -3.930 136.899  0.00  0.00    +0.000 N 
ATOM     41  H   UNL     1      -3.289  -3.151 136.250  0.00  0.00    +0.000 HD
BRANCH  40  42
ATOM     42  C   UNL     1      -2.730  -5.230 136.384  0.00  0.00    +0.000 C 
BRANCH  42  43
ATOM     43  C   UNL     1      -1.209  -5.052 136.109  0.00  0.00    +0.000 C 
ATOM     44  O   UNL     1      -0.405  -5.872 136.552  0.00  0.00    +0.000 OA
ATOM     45  N   UNL     1      -0.802  -3.957 135.372  0.00  0.00    +0.000 N 
ATOM     46  H   UNL     1      -1.470  -3.293 135.025  0.00  0.00    +0.000 HD
BRANCH  45  47
ATOM     47  C   UNL     1       0.608  -3.717 135.054  0.00  0.00    +0.000 C 
BRANCH  47  48
ATOM     48  C   UNL     1       0.888  -2.382 134.333  0.00  0.00    +0.000 C 
ATOM     49  N   UNL     1       0.251  -1.256 134.801  0.00  0.00    +0.000 N 
ATOM     50  O   UNL     1       1.652  -2.311 133.372  0.00  0.00    +0.000 OA
ATOM     51  H   UNL     1      -0.386  -1.216 135.574  0.00  0.00    +0.000 HD
ATOM     52  H   UNL     1       0.416  -0.366 134.345  0.00  0.00    +0.000 HD
ENDBRANCH  47  48
ENDBRANCH  45  47
ENDBRANCH  42  43
BRANCH  42  53
ATOM     53  C   UNL     1      -3.393  -5.785 135.090  0.00  0.00    +0.000 C 
BRANCH  53  54
ATOM     54  C   UNL     1      -4.275  -4.786 134.376  0.00  0.00    +0.000 C 
ATOM     55  C   UNL     1      -3.658  -4.421 133.080  0.00  0.00    +0.000 C 
ATOM     56  C   UNL     1      -5.531  -5.323 133.795  0.00  0.00    +0.000 C 
ENDBRANCH  53  54
ENDBRANCH  42  53
ENDBRANCH  40  42
ENDBRANCH  37  38
ENDBRANCH  36  37
BRANCH  36  57
ATOM     57  C   UNL     1      -6.626  -2.555 136.514  0.00  0.00    +0.000 C 
BRANCH  57  58
ATOM     58  C   UNL     1      -7.172  -3.866 136.876  0.00  0.00    +0.000 C 
BRANCH  58  59
ATOM     59  C   UNL     1      -8.537  -4.244 136.471  0.00  0.00    +0.000 C 
BRANCH  59  60
ATOM     60  O   UNL     1      -8.943  -3.454 135.354  0.00  0.00    +0.000 OA
ATOM     61  H   UNL     1      -9.884  -3.231 135.430  0.00  0.00    +0.000 HD
ENDBRANCH  59  60
ENDBRANCH  58  59
ENDBRANCH  57  58
ENDBRANCH  36  57
ENDBRANCH  14  34
BRANCH   1  62
ATOM     62  C   UNL     1      -8.571   4.998 131.556  0.00  0.00    +0.000 C 
ATOM     63  C   UNL     1      -9.652   6.353 132.855  0.00  0.00    +0.000 C 
BRANCH  62  65
ATOM     64  C   UNL     1     -11.342   5.287 130.524  0.00  0.00    +0.000 C 
ATOM     65  C   UNL     1     -10.268   5.734 131.969  0.00  0.00    +0.000 C 
ENDBRANCH  62  65
ENDBRANCH   1  62
BRANCH  18  66
ATOM     66  C   UNL     1      -5.441   1.829 132.148  0.00  0.00    +0.000 C 
BRANCH  66  67
ATOM     67  C   UNL     1      -4.101   2.259 132.312  0.00  0.00    +0.000 C 
ATOM     68  N   UNL     1      -4.231   2.864 131.246  0.00  0.00    +0.000 N 
ATOM     69  O   UNL     1      -3.176   2.201 133.040  0.00  0.00    +0.000 OA
ATOM     70  H   UNL     1      -5.116   3.410 131.564  0.00  0.00    +0.000 HD
ATOM     71  H   UNL     1      -3.561   3.365 130.667  0.00  0.00    +0.000 HD
ENDBRANCH  66  67
ENDBRANCH  18  66
BRANCH   5  72
ATOM     72  C   UNL     1      -7.732  -0.674 126.777  0.00  0.00    +0.000 C 
BRANCH  72  73
ATOM     73  C   UNL     1      -8.311  -1.440 125.615  0.00  0.00    +0.000 A 
ATOM     74  C   UNL     1      -8.475  -0.987 124.273  0.00  0.00    +0.000 A 
ATOM     75  C   UNL     1      -9.061  -1.821 123.339  0.00  0.00    +0.000 A 
ATOM     76  C   UNL     1      -9.571  -3.033 123.773  0.00  0.00    +0.000 A 
ATOM     77  C   UNL     1      -9.603  -3.363 125.117  0.00  0.00    +0.000 A 
ATOM     78  C   UNL     1      -8.992  -2.566 126.036  0.00  0.00    +0.000 A 
BRANCH  76  79
ATOM     79  O   UNL     1     -10.060  -3.984 122.935  0.00  0.00    +0.000 OA
ATOM     80  H   UNL     1     -10.848  -3.670 122.469  0.00  0.00    +0.000 HD
ENDBRANCH  76  79
ENDBRANCH  72  73
ENDBRANCH   5  72
BRANCH  22  81
ATOM     81  C   UNL     1      -6.489   5.600 134.304  0.00  0.00    +0.000 C 
BRANCH  81  82
ATOM     82  C   UNL     1      -7.538   5.559 135.347  0.00  0.00    +0.000 C 
BRANCH  82  83
ATOM     83  C   UNL     1      -7.458   6.017 136.718  0.00  0.00    +0.000 C 
ATOM     84  N   UNL     1      -8.580   6.691 136.979  0.00  0.00    +0.000 N 
ATOM     85  O   UNL     1      -6.546   5.741 137.482  0.00  0.00    +0.000 OA
ATOM     86  H   UNL     1      -9.291   6.813 136.271  0.00  0.00    +0.000 HD
ATOM     87  H   UNL     1      -8.674   7.046 137.899  0.00  0.00    +0.000 HD
ENDBRANCH  82  83
ENDBRANCH  81  82
ENDBRANCH  22  81
TORSDOF 24
ENDMDL
MODEL 7
REMARK VINA RESULT:      -8.0      3.042     10.212
REMARK  Name = CHEMBL4583231
REMARK  28 active torsions:
REMARK  status: ('A' for Active; 'I' for Inactive)
REMARK    1  A    between atoms: C_1  and  C_2
REMARK    2  A    between atoms: C_2  and  C_3
REMARK    3  A    between atoms: C_3  and  C_4
REMARK    4  A    between atoms: C_3  and  C_5
REMARK    5  A    between atoms: C_9  and  C_10
REMARK    6  A    between atoms: C_10  and  C_11
REMARK    7  A    between atoms: C_14  and  O_15
REMARK    8  A    between atoms: C_21  and  N_22
REMARK    9  A    between atoms: C_27  and  C_28
REMARK   10  A    between atoms: N_30  and  C_31
REMARK   11  A    between atoms: N_30  and  C_35
REMARK   12  A    between atoms: C_31  and  C_32
REMARK   13  A    between atoms: C_32  and  C_33
REMARK   14  A    between atoms: C_33  and  O_34
REMARK   15  A    between atoms: C_35  and  C_36
REMARK   16  A    between atoms: N_38  and  C_39
REMARK   17  A    between atoms: C_39  and  C_40
REMARK   18  A    between atoms: C_39  and  C_44
REMARK   19  A    between atoms: C_40  and  C_41
REMARK   20  A    between atoms: C_41  and  C_42
REMARK   21  A    between atoms: C_41  and  C_43
REMARK   22  A    between atoms: N_46  and  C_47
REMARK   23  A    between atoms: C_47  and  C_48
REMARK   24  A    between atoms: C_54  and  C_55
REMARK   25  A    between atoms: C_55  and  C_56
REMARK   26  A    between atoms: C_62  and  C_63
REMARK   27  A    between atoms: C_63  and  C_64
REMARK   28  A    between atoms: C_64  and  C_65
REMARK                            x       y       z     vdW  Elec       q    Type
REMARK                         _______ _______ _______ _____ _____    ______ ____
ROOT
ATOM      1  C   UNL     1      -8.728   5.265 128.944  0.00  0.00    +0.000 C 
ATOM      2  N   UNL     1      -7.435   4.478 127.173  0.00  0.00    +0.000 N 
ATOM      3  C   UNL     1      -6.514   4.035 125.556  0.00  0.00    +0.000 C 
ATOM      4  O   UNL     1      -5.202   4.330 125.011  0.00  0.00    +0.000 OA
ATOM      5  C   UNL     1      -6.246   2.393 124.222  0.00  0.00    +0.000 C 
ATOM      6  N   UNL     1      -5.732   0.819 124.484  0.00  0.00    +0.000 N 
ATOM      7  C   UNL     1      -5.243   0.407 125.693  0.00  0.00    +0.000 C 
ATOM      8  O   UNL     1      -5.053  -0.768 125.983  0.00  0.00    +0.000 OA
ATOM      9  C   UNL     1      -4.964   1.414 126.768  0.00  0.00    +0.000 C 
ATOM     10  C   UNL     1      -6.046   1.611 127.760  0.00  0.00    +0.000 C 
ATOM     11  S   UNL     1      -5.278   0.249 128.670  0.00  0.00    +0.000 S 
ATOM     12  S   UNL     1      -6.603  -0.237 129.951  0.00  0.00    +0.000 S 
ATOM     13  C   UNL     1      -6.216  -1.006 131.525  0.00  0.00    +0.000 C 
ATOM     14  C   UNL     1      -7.399  -1.014 132.654  0.00  0.00    +0.000 C 
ATOM     15  N   UNL     1      -7.401   0.194 133.384  0.00  0.00    +0.000 N 
ATOM     16  C   UNL     1      -7.664   1.345 132.796  0.00  0.00    +0.000 C 
ATOM     17  O   UNL     1      -7.529   2.327 133.499  0.00  0.00    +0.000 OA
ATOM     18  C   UNL     1      -8.179   1.309 131.370  0.00  0.00    +0.000 C 
ATOM     19  N   UNL     1      -9.617   1.687 131.338  0.00  0.00    +0.000 N 
ATOM     20  C   UNL     1      -9.784   2.996 131.406  0.00  0.00    +0.000 C 
ATOM     21  O   UNL     1     -10.209   3.542 130.222  0.00  0.00    +0.000 OA
ATOM     22  C   UNL     1      -8.469   4.248 132.357  0.00  0.00    +0.000 C 
ATOM     23  N   UNL     1      -7.831   5.744 131.509  0.00  0.00    +0.000 N 
ATOM     24  C   UNL     1      -8.345   6.401 130.230  0.00  0.00    +0.000 C 
ATOM     25  O   UNL     1      -8.925   7.512 130.300  0.00  0.00    +0.000 OA
ATOM     26  H   UNL     1      -6.603   5.087 126.533  0.00  0.00    +0.000 HD
ATOM     27  H   UNL     1      -5.799  -0.029 123.830  0.00  0.00    +0.000 HD
ATOM     28  H   UNL     1      -7.147   0.219 134.360  0.00  0.00    +0.000 HD
ATOM     29  H   UNL     1     -10.272   1.318 130.616  0.00  0.00    +0.000 HD
ATOM     30  H   UNL     1      -6.994   5.505 131.028  0.00  0.00    +0.000 HD
ENDROOT
BRANCH   9  31
ATOM     31  N   UNL     1      -5.124   2.653 126.275  0.00  0.00    +0.000 NA
ATOM     32  H   UNL     1      -5.858   2.340 125.655  0.00  0.00    +0.000 HD
ATOM     33  H   UNL     1      -4.356   2.885 125.642  0.00  0.00    +0.000 HD
ENDBRANCH   9  31
BRANCH  14  34
ATOM     34  C   UNL     1      -7.200  -2.222 133.567  0.00  0.00    +0.000 C 
ATOM     35  O   UNL     1      -7.356  -2.086 134.782  0.00  0.00    +0.000 OA
ATOM     36  N   UNL     1      -6.852  -3.439 132.986  0.00  0.00    +0.000 N 
BRANCH  36  37
ATOM     37  C   UNL     1      -6.572  -4.618 133.899  0.00  0.00    +0.000 C 
BRANCH  37  38
ATOM     38  C   UNL     1      -5.132  -4.654 134.575  0.00  0.00    +0.000 C 
ATOM     39  O   UNL     1      -4.141  -5.019 133.930  0.00  0.00    +0.000 OA
ATOM     40  N   UNL     1      -4.911  -3.873 135.720  0.00  0.00    +0.000 N 
ATOM     41  H   UNL     1      -5.663  -3.614 136.347  0.00  0.00    +0.000 HD
BRANCH  40  42
ATOM     42  C   UNL     1      -3.539  -3.352 136.081  0.00  0.00    +0.000 C 
BRANCH  42  43
ATOM     43  C   UNL     1      -3.234  -2.078 135.243  0.00  0.00    +0.000 C 
ATOM     44  O   UNL     1      -2.431  -2.133 134.311  0.00  0.00    +0.000 OA
ATOM     45  N   UNL     1      -3.878  -0.904 135.581  0.00  0.00    +0.000 N 
ATOM     46  H   UNL     1      -4.524  -0.874 136.348  0.00  0.00    +0.000 HD
BRANCH  45  47
ATOM     47  C   UNL     1      -3.662   0.342 134.839  0.00  0.00    +0.000 C 
BRANCH  47  48
ATOM     48  C   UNL     1      -4.095   1.620 135.586  0.00  0.00    +0.000 C 
ATOM     49  N   UNL     1      -4.912   2.504 134.921  0.00  0.00    +0.000 N 
ATOM     50  O   UNL     1      -3.731   1.854 136.737  0.00  0.00    +0.000 OA
ATOM     51  H   UNL     1      -5.259   2.400 133.985  0.00  0.00    +0.000 HD
ATOM     52  H   UNL     1      -5.211   3.353 135.388  0.00  0.00    +0.000 HD
ENDBRANCH  47  48
ENDBRANCH  45  47
ENDBRANCH  42  43
BRANCH  42  53
ATOM     53  C   UNL     1      -2.368  -4.357 135.876  0.00  0.00    +0.000 C 
BRANCH  53  54
ATOM     54  C   UNL     1      -1.253  -4.212 136.887  0.00  0.00    +0.000 C 
ATOM     55  C   UNL     1      -0.849  -5.553 137.370  0.00  0.00    +0.000 C 
ATOM     56  C   UNL     1       0.078  -3.844 136.343  0.00  0.00    +0.000 C 
ENDBRANCH  53  54
ENDBRANCH  42  53
ENDBRANCH  40  42
ENDBRANCH  37  38
ENDBRANCH  36  37
BRANCH  36  57
ATOM     57  C   UNL     1      -6.721  -3.639 131.533  0.00  0.00    +0.000 C 
BRANCH  57  58
ATOM     58  C   UNL     1      -5.669  -4.493 130.975  0.00  0.00    +0.000 C 
BRANCH  58  59
ATOM     59  C   UNL     1      -4.405  -3.906 130.498  0.00  0.00    +0.000 C 
BRANCH  59  60
ATOM     60  O   UNL     1      -3.577  -3.576 131.612  0.00  0.00    +0.000 OA
ATOM     61  H   UNL     1      -3.393  -4.372 132.136  0.00  0.00    +0.000 HD
ENDBRANCH  59  60
ENDBRANCH  58  59
ENDBRANCH  57  58
ENDBRANCH  36  57
ENDBRANCH  14  34
BRANCH   1  62
ATOM     62  C   UNL     1     -10.024   5.484 130.665  0.00  0.00    +0.000 C 
ATOM     63  C   UNL     1     -11.448   6.179 132.140  0.00  0.00    +0.000 C 
BRANCH  62  65
ATOM     64  C   UNL     1     -12.481   6.348 129.238  0.00  0.00    +0.000 C 
ATOM     65  C   UNL     1     -11.782   6.133 130.943  0.00  0.00    +0.000 C 
ENDBRANCH  62  65
ENDBRANCH   1  62
BRANCH  18  66
ATOM     66  C   UNL     1      -6.890   2.265 130.547  0.00  0.00    +0.000 C 
BRANCH  66  67
ATOM     67  C   UNL     1      -5.670   2.534 131.214  0.00  0.00    +0.000 C 
ATOM     68  N   UNL     1      -5.600   3.562 130.538  0.00  0.00    +0.000 N 
ATOM     69  O   UNL     1      -4.940   2.124 132.044  0.00  0.00    +0.000 OA
ATOM     70  H   UNL     1      -6.579   3.928 130.836  0.00  0.00    +0.000 HD
ATOM     71  H   UNL     1      -4.860   4.252 130.433  0.00  0.00    +0.000 HD
ENDBRANCH  66  67
ENDBRANCH  18  66
BRANCH   5  72
ATOM     72  C   UNL     1      -7.637   2.521 124.242  0.00  0.00    +0.000 C 
BRANCH  72  73
ATOM     73  C   UNL     1      -7.798   3.046 122.839  0.00  0.00    +0.000 A 
ATOM     74  C   UNL     1      -8.974   3.019 122.033  0.00  0.00    +0.000 A 
ATOM     75  C   UNL     1      -8.928   3.521 120.745  0.00  0.00    +0.000 A 
ATOM     76  C   UNL     1      -7.704   3.932 120.246  0.00  0.00    +0.000 A 
ATOM     77  C   UNL     1      -6.533   3.746 120.961  0.00  0.00    +0.000 A 
ATOM     78  C   UNL     1      -6.575   3.291 122.244  0.00  0.00    +0.000 A 
BRANCH  76  79
ATOM     79  O   UNL     1      -7.552   4.550 119.046  0.00  0.00    +0.000 OA
ATOM     80  H   UNL     1      -7.056   5.376 119.137  0.00  0.00    +0.000 HD
ENDBRANCH  76  79
ENDBRANCH  72  73
ENDBRANCH   5  72
BRANCH  22  81
ATOM     81  C   UNL     1      -8.709   4.711 133.814  0.00  0.00    +0.000 C 
BRANCH  81  82
ATOM     82  C   UNL     1      -7.781   5.748 134.319  0.00  0.00    +0.000 C 
BRANCH  82  83
ATOM     83  C   UNL     1      -6.367   5.623 134.606  0.00  0.00    +0.000 C 
ATOM     84  N   UNL     1      -6.198   5.888 135.903  0.00  0.00    +0.000 N 
ATOM     85  O   UNL     1      -5.531   5.259 133.794  0.00  0.00    +0.000 OA
ATOM     86  H   UNL     1      -6.984   6.134 136.491  0.00  0.00    +0.000 HD
ATOM     87  H   UNL     1      -5.273   5.817 136.249  0.00  0.00    +0.000 HD
ENDBRANCH  82  83
ENDBRANCH  81  82
ENDBRANCH  22  81
TORSDOF 24
ENDMDL
MODEL 8
REMARK VINA RESULT:      -7.9      4.284     12.389
REMARK  Name = CHEMBL4583231
REMARK  28 active torsions:
REMARK  status: ('A' for Active; 'I' for Inactive)
REMARK    1  A    between atoms: C_1  and  C_2
REMARK    2  A    between atoms: C_2  and  C_3
REMARK    3  A    between atoms: C_3  and  C_4
REMARK    4  A    between atoms: C_3  and  C_5
REMARK    5  A    between atoms: C_9  and  C_10
REMARK    6  A    between atoms: C_10  and  C_11
REMARK    7  A    between atoms: C_14  and  O_15
REMARK    8  A    between atoms: C_21  and  N_22
REMARK    9  A    between atoms: C_27  and  C_28
REMARK   10  A    between atoms: N_30  and  C_31
REMARK   11  A    between atoms: N_30  and  C_35
REMARK   12  A    between atoms: C_31  and  C_32
REMARK   13  A    between atoms: C_32  and  C_33
REMARK   14  A    between atoms: C_33  and  O_34
REMARK   15  A    between atoms: C_35  and  C_36
REMARK   16  A    between atoms: N_38  and  C_39
REMARK   17  A    between atoms: C_39  and  C_40
REMARK   18  A    between atoms: C_39  and  C_44
REMARK   19  A    between atoms: C_40  and  C_41
REMARK   20  A    between atoms: C_41  and  C_42
REMARK   21  A    between atoms: C_41  and  C_43
REMARK   22  A    between atoms: N_46  and  C_47
REMARK   23  A    between atoms: C_47  and  C_48
REMARK   24  A    between atoms: C_54  and  C_55
REMARK   25  A    between atoms: C_55  and  C_56
REMARK   26  A    between atoms: C_62  and  C_63
REMARK   27  A    between atoms: C_63  and  C_64
REMARK   28  A    between atoms: C_64  and  C_65
REMARK                            x       y       z     vdW  Elec       q    Type
REMARK                         _______ _______ _______ _____ _____    ______ ____
ROOT
ATOM      1  C   UNL     1      -5.880  -0.233 131.858  0.00  0.00    +0.000 C 
ATOM      2  N   UNL     1      -6.453   0.687 129.796  0.00  0.00    +0.000 N 
ATOM      3  C   UNL     1      -6.989   1.165 128.023  0.00  0.00    +0.000 C 
ATOM      4  O   UNL     1      -8.182   1.747 127.436  0.00  0.00    +0.000 OA
ATOM      5  C   UNL     1      -6.188   2.038 126.250  0.00  0.00    +0.000 C 
ATOM      6  N   UNL     1      -5.403   3.496 125.985  0.00  0.00    +0.000 N 
ATOM      7  C   UNL     1      -5.300   4.452 126.957  0.00  0.00    +0.000 C 
ATOM      8  O   UNL     1      -4.566   5.430 126.871  0.00  0.00    +0.000 OA
ATOM      9  C   UNL     1      -6.067   4.303 128.236  0.00  0.00    +0.000 C 
ATOM     10  C   UNL     1      -5.325   3.691 129.363  0.00  0.00    +0.000 C 
ATOM     11  S   UNL     1      -4.784   5.376 129.745  0.00  0.00    +0.000 S 
ATOM     12  S   UNL     1      -3.354   5.118 130.977  0.00  0.00    +0.000 S 
ATOM     13  C   UNL     1      -2.881   6.337 132.206  0.00  0.00    +0.000 C 
ATOM     14  C   UNL     1      -1.905   5.827 133.415  0.00  0.00    +0.000 C 
ATOM     15  N   UNL     1      -2.663   5.251 134.458  0.00  0.00    +0.000 N 
ATOM     16  C   UNL     1      -3.366   4.153 134.262  0.00  0.00    +0.000 C 
ATOM     17  O   UNL     1      -4.063   3.812 135.197  0.00  0.00    +0.000 OA
ATOM     18  C   UNL     1      -3.164   3.406 132.957  0.00  0.00    +0.000 C 
ATOM     19  N   UNL     1      -2.431   2.136 133.206  0.00  0.00    +0.000 N 
ATOM     20  C   UNL     1      -3.229   1.189 133.668  0.00  0.00    +0.000 C 
ATOM     21  O   UNL     1      -3.470   0.199 132.750  0.00  0.00    +0.000 OA
ATOM     22  C   UNL     1      -4.908   1.579 134.777  0.00  0.00    +0.000 C 
ATOM     23  N   UNL     1      -6.516   0.820 134.328  0.00  0.00    +0.000 N 
ATOM     24  C   UNL     1      -6.784  -0.333 133.363  0.00  0.00    +0.000 C 
ATOM     25  O   UNL     1      -7.154  -1.442 133.819  0.00  0.00    +0.000 OA
ATOM     26  H   UNL     1      -7.545   0.699 129.266  0.00  0.00    +0.000 HD
ATOM     27  H   UNL     1      -4.842   3.811 125.127  0.00  0.00    +0.000 HD
ATOM     28  H   UNL     1      -2.733   5.692 135.362  0.00  0.00    +0.000 HD
ATOM     29  H   UNL     1      -1.807   1.707 132.490  0.00  0.00    +0.000 HD
ATOM     30  H   UNL     1      -6.993   1.430 133.703  0.00  0.00    +0.000 HD
ENDROOT
BRANCH   9  31
ATOM     31  N   UNL     1      -6.893   3.247 128.144  0.00  0.00    +0.000 NA
ATOM     32  H   UNL     1      -6.700   3.149 127.156  0.00  0.00    +0.000 HD
ATOM     33  H   UNL     1      -7.867   3.554 128.170  0.00  0.00    +0.000 HD
ENDBRANCH   9  31
BRANCH  14  34
ATOM     34  C   UNL     1      -1.076   7.010 133.911  0.00  0.00    +0.000 C 
ATOM     35  O   UNL     1       0.057   7.178 133.456  0.00  0.00    +0.000 OA
ATOM     36  N   UNL     1      -1.637   7.858 134.862  0.00  0.00    +0.000 N 
BRANCH  36  37
ATOM     37  C   UNL     1      -0.782   8.983 135.417  0.00  0.00    +0.000 C 
BRANCH  37  38
ATOM     38  C   UNL     1      -1.052  10.429 134.813  0.00  0.00    +0.000 C 
ATOM     39  O   UNL     1      -1.795  11.229 135.398  0.00  0.00    +0.000 OA
ATOM     40  N   UNL     1      -0.133  10.952 133.891  0.00  0.00    +0.000 N 
ATOM     41  H   UNL     1       0.443  10.354 133.309  0.00  0.00    +0.000 HD
BRANCH  40  42
ATOM     42  C   UNL     1       0.071  12.439 133.718  0.00  0.00    +0.000 C 
BRANCH  42  43
ATOM     43  C   UNL     1      -1.135  13.038 132.939  0.00  0.00    +0.000 C 
ATOM     44  O   UNL     1      -1.221  12.876 131.721  0.00  0.00    +0.000 OA
ATOM     45  N   UNL     1      -2.083  13.750 133.648  0.00  0.00    +0.000 N 
ATOM     46  H   UNL     1      -1.994  13.879 134.639  0.00  0.00    +0.000 HD
BRANCH  45  47
ATOM     47  C   UNL     1      -3.258  14.338 132.999  0.00  0.00    +0.000 C 
BRANCH  47  48
ATOM     48  C   UNL     1      -3.009  15.705 132.329  0.00  0.00    +0.000 C 
ATOM     49  N   UNL     1      -2.625  15.710 131.009  0.00  0.00    +0.000 N 
ATOM     50  O   UNL     1      -3.147  16.762 132.942  0.00  0.00    +0.000 OA
ATOM     51  H   UNL     1      -2.487  14.902 130.430  0.00  0.00    +0.000 HD
ATOM     52  H   UNL     1      -2.454  16.594 130.544  0.00  0.00    +0.000 HD
ENDBRANCH  47  48
ENDBRANCH  45  47
ENDBRANCH  42  43
BRANCH  42  53
ATOM     53  C   UNL     1       1.377  12.854 132.980  0.00  0.00    +0.000 C 
BRANCH  53  54
ATOM     54  C   UNL     1       2.420  13.474 133.882  0.00  0.00    +0.000 C 
ATOM     55  C   UNL     1       1.763  14.021 135.092  0.00  0.00    +0.000 C 
ATOM     56  C   UNL     1       3.302  12.526 134.609  0.00  0.00    +0.000 C 
ENDBRANCH  53  54
ENDBRANCH  42  53
ENDBRANCH  40  42
ENDBRANCH  37  38
ENDBRANCH  36  37
BRANCH  36  57
ATOM     57  C   UNL     1      -3.010   7.711 135.374  0.00  0.00    +0.000 C 
BRANCH  57  58
ATOM     58  C   UNL     1      -3.356   8.103 136.743  0.00  0.00    +0.000 C 
BRANCH  58  59
ATOM     59  C   UNL     1      -4.529   8.957 137.001  0.00  0.00    +0.000 C 
BRANCH  59  60
ATOM     60  O   UNL     1      -4.224  10.309 136.662  0.00  0.00    +0.000 OA
ATOM     61  H   UNL     1      -5.029  10.770 136.378  0.00  0.00    +0.000 HD
ENDBRANCH  59  60
ENDBRANCH  58  59
ENDBRANCH  57  58
ENDBRANCH  36  57
ENDBRANCH  14  34
BRANCH   1  62
ATOM     62  C   UNL     1      -4.911  -0.802 133.710  0.00  0.00    +0.000 C 
ATOM     63  C   UNL     1      -4.182  -1.855 135.455  0.00  0.00    +0.000 C 
BRANCH  62  65
ATOM     64  C   UNL     1      -3.762  -3.390 132.811  0.00  0.00    +0.000 C 
ATOM     65  C   UNL     1      -4.005  -2.347 134.326  0.00  0.00    +0.000 C 
ENDBRANCH  62  65
ENDBRANCH   1  62
BRANCH  18  66
ATOM     66  C   UNL     1      -4.842   3.464 132.299  0.00  0.00    +0.000 C 
BRANCH  66  67
ATOM     67  C   UNL     1      -5.796   4.345 132.864  0.00  0.00    +0.000 C 
ATOM     68  N   UNL     1      -6.659   3.548 132.492  0.00  0.00    +0.000 N 
ATOM     69  O   UNL     1      -5.908   5.359 133.457  0.00  0.00    +0.000 OA
ATOM     70  H   UNL     1      -6.210   2.695 132.993  0.00  0.00    +0.000 HD
ATOM     71  H   UNL     1      -7.675   3.603 132.494  0.00  0.00    +0.000 HD
ENDBRANCH  66  67
ENDBRANCH  18  66
BRANCH   5  72
ATOM     72  C   UNL     1      -5.306   0.978 126.470  0.00  0.00    +0.000 C 
BRANCH  72  73
ATOM     73  C   UNL     1      -5.856   0.053 125.415  0.00  0.00    +0.000 A 
ATOM     74  C   UNL     1      -5.466  -1.292 125.153  0.00  0.00    +0.000 A 
ATOM     75  C   UNL     1      -6.060  -1.984 124.113  0.00  0.00    +0.000 A 
ATOM     76  C   UNL     1      -6.939  -1.300 123.291  0.00  0.00    +0.000 A 
ATOM     77  C   UNL     1      -7.139   0.064 123.422  0.00  0.00    +0.000 A 
ATOM     78  C   UNL     1      -6.589   0.742 124.468  0.00  0.00    +0.000 A 
BRANCH  76  79
ATOM     79  O   UNL     1      -7.672  -1.896 122.315  0.00  0.00    +0.000 OA
ATOM     80  H   UNL     1      -7.282  -1.748 121.442  0.00  0.00    +0.000 HD
ENDBRANCH  76  79
ENDBRANCH  72  73
ENDBRANCH   5  72
BRANCH  22  81
ATOM     81  C   UNL     1      -4.882   1.524 136.324  0.00  0.00    +0.000 C 
BRANCH  81  82
ATOM     82  C   UNL     1      -3.551   1.315 136.936  0.00  0.00    +0.000 C 
BRANCH  82  83
ATOM     83  C   UNL     1      -3.025   1.889 138.157  0.00  0.00    +0.000 C 
ATOM     84  N   UNL     1      -2.601   3.121 137.869  0.00  0.00    +0.000 N 
ATOM     85  O   UNL     1      -3.061   1.337 139.246  0.00  0.00    +0.000 OA
ATOM     86  H   UNL     1      -2.669   3.488 136.929  0.00  0.00    +0.000 HD
ATOM     87  H   UNL     1      -2.234   3.647 138.624  0.00  0.00    +0.000 HD
ENDBRANCH  82  83
ENDBRANCH  81  82
ENDBRANCH  22  81
TORSDOF 24
ENDMDL
MODEL 9
REMARK VINA RESULT:      -7.8      3.447     12.050
REMARK  Name = CHEMBL4583231
REMARK  28 active torsions:
REMARK  status: ('A' for Active; 'I' for Inactive)
REMARK    1  A    between atoms: C_1  and  C_2
REMARK    2  A    between atoms: C_2  and  C_3
REMARK    3  A    between atoms: C_3  and  C_4
REMARK    4  A    between atoms: C_3  and  C_5
REMARK    5  A    between atoms: C_9  and  C_10
REMARK    6  A    between atoms: C_10  and  C_11
REMARK    7  A    between atoms: C_14  and  O_15
REMARK    8  A    between atoms: C_21  and  N_22
REMARK    9  A    between atoms: C_27  and  C_28
REMARK   10  A    between atoms: N_30  and  C_31
REMARK   11  A    between atoms: N_30  and  C_35
REMARK   12  A    between atoms: C_31  and  C_32
REMARK   13  A    between atoms: C_32  and  C_33
REMARK   14  A    between atoms: C_33  and  O_34
REMARK   15  A    between atoms: C_35  and  C_36
REMARK   16  A    between atoms: N_38  and  C_39
REMARK   17  A    between atoms: C_39  and  C_40
REMARK   18  A    between atoms: C_39  and  C_44
REMARK   19  A    between atoms: C_40  and  C_41
REMARK   20  A    between atoms: C_41  and  C_42
REMARK   21  A    between atoms: C_41  and  C_43
REMARK   22  A    between atoms: N_46  and  C_47
REMARK   23  A    between atoms: C_47  and  C_48
REMARK   24  A    between atoms: C_54  and  C_55
REMARK   25  A    between atoms: C_55  and  C_56
REMARK   26  A    between atoms: C_62  and  C_63
REMARK   27  A    between atoms: C_63  and  C_64
REMARK   28  A    between atoms: C_64  and  C_65
REMARK                            x       y       z     vdW  Elec       q    Type
REMARK                         _______ _______ _______ _____ _____    ______ ____
ROOT
ATOM      1  C   UNL     1      -6.215  -1.681 129.270  0.00  0.00    +0.000 C 
ATOM      2  N   UNL     1      -7.284  -0.135 127.893  0.00  0.00    +0.000 N 
ATOM      3  C   UNL     1      -8.094   0.949 126.541  0.00  0.00    +0.000 C 
ATOM      4  O   UNL     1      -9.455   1.181 126.095  0.00  0.00    +0.000 OA
ATOM      5  C   UNL     1      -7.913   2.887 125.671  0.00  0.00    +0.000 C 
ATOM      6  N   UNL     1      -7.925   4.418 126.354  0.00  0.00    +0.000 N 
ATOM      7  C   UNL     1      -8.222   4.623 127.673  0.00  0.00    +0.000 C 
ATOM      8  O   UNL     1      -8.042   5.688 128.251  0.00  0.00    +0.000 OA
ATOM      9  C   UNL     1      -8.746   3.491 128.504  0.00  0.00    +0.000 C 
ATOM     10  C   UNL     1      -7.733   2.750 129.293  0.00  0.00    +0.000 C 
ATOM     11  S   UNL     1      -8.025   3.989 130.580  0.00  0.00    +0.000 S 
ATOM     12  S   UNL     1      -6.567   3.739 131.780  0.00  0.00    +0.000 S 
ATOM     13  C   UNL     1      -6.645   4.151 133.525  0.00  0.00    +0.000 C 
ATOM     14  C   UNL     1      -5.469   3.538 134.483  0.00  0.00    +0.000 C 
ATOM     15  N   UNL     1      -5.798   2.231 134.902  0.00  0.00    +0.000 N 
ATOM     16  C   UNL     1      -5.913   1.245 134.033  0.00  0.00    +0.000 C 
ATOM     17  O   UNL     1      -6.306   0.193 134.495  0.00  0.00    +0.000 OA
ATOM     18  C   UNL     1      -5.466   1.504 132.607  0.00  0.00    +0.000 C 
ATOM     19  N   UNL     1      -4.208   0.763 132.324  0.00  0.00    +0.000 N 
ATOM     20  C   UNL     1      -4.435  -0.511 132.062  0.00  0.00    +0.000 C 
ATOM     21  O   UNL     1      -4.240  -0.829 130.743  0.00  0.00    +0.000 OA
ATOM     22  C   UNL     1      -6.026  -1.550 132.834  0.00  0.00    +0.000 C 
ATOM     23  N   UNL     1      -7.112  -2.538 131.735  0.00  0.00    +0.000 N 
ATOM     24  C   UNL     1      -6.867  -2.958 130.287  0.00  0.00    +0.000 C 
ATOM     25  O   UNL     1      -6.642  -4.165 130.027  0.00  0.00    +0.000 OA
ATOM     26  H   UNL     1      -8.284  -0.302 127.226  0.00  0.00    +0.000 HD
ATOM     27  H   UNL     1      -7.635   5.353 125.915  0.00  0.00    +0.000 HD
ATOM     28  H   UNL     1      -6.010   2.026 135.867  0.00  0.00    +0.000 HD
ATOM     29  H   UNL     1      -3.503   1.110 131.640  0.00  0.00    +0.000 HD
ATOM     30  H   UNL     1      -7.859  -1.960 131.421  0.00  0.00    +0.000 HD
ENDROOT
BRANCH   9  31
ATOM     31  N   UNL     1      -8.981   2.428 127.718  0.00  0.00    +0.000 NA
ATOM     32  H   UNL     1      -9.945   2.385 128.019  0.00  0.00    +0.000 HD
ATOM     33  H   UNL     1      -8.564   1.587 128.123  0.00  0.00    +0.000 HD
ENDBRANCH   9  31
BRANCH  14  34
ATOM     34  C   UNL     1      -5.264   4.475 135.671  0.00  0.00    +0.000 C 
ATOM     35  O   UNL     1      -6.074   4.451 136.599  0.00  0.00    +0.000 OA
ATOM     36  N   UNL     1      -4.160   5.323 135.660  0.00  0.00    +0.000 N 
BRANCH  36  37
ATOM     37  C   UNL     1      -4.002   6.312 136.800  0.00  0.00    +0.000 C 
BRANCH  37  38
ATOM     38  C   UNL     1      -2.894   7.436 136.602  0.00  0.00    +0.000 C 
ATOM     39  O   UNL     1      -1.704   7.201 136.852  0.00  0.00    +0.000 OA
ATOM     40  N   UNL     1      -3.178   8.513 135.748  0.00  0.00    +0.000 N 
ATOM     41  H   UNL     1      -4.126   8.822 135.570  0.00  0.00    +0.000 HD
BRANCH  40  42
ATOM     42  C   UNL     1      -2.088   9.269 135.023  0.00  0.00    +0.000 C 
BRANCH  42  43
ATOM     43  C   UNL     1      -2.318  10.798 135.200  0.00  0.00    +0.000 C 
ATOM     44  O   UNL     1      -2.934  11.218 136.179  0.00  0.00    +0.000 OA
ATOM     45  N   UNL     1      -1.822  11.649 134.231  0.00  0.00    +0.000 N 
ATOM     46  H   UNL     1      -1.329  11.291 133.434  0.00  0.00    +0.000 HD
BRANCH  45  47
ATOM     47  C   UNL     1      -1.980  13.104 134.322  0.00  0.00    +0.000 C 
BRANCH  47  48
ATOM     48  C   UNL     1      -2.245  13.808 132.975  0.00  0.00    +0.000 C 
ATOM     49  N   UNL     1      -3.360  14.606 132.880  0.00  0.00    +0.000 N 
ATOM     50  O   UNL     1      -1.493  13.672 132.012  0.00  0.00    +0.000 OA
ATOM     51  H   UNL     1      -4.029  14.778 133.609  0.00  0.00    +0.000 HD
ATOM     52  H   UNL     1      -3.559  15.081 132.007  0.00  0.00    +0.000 HD
ENDBRANCH  47  48
ENDBRANCH  45  47
ENDBRANCH  42  43
BRANCH  42  53
ATOM     53  C   UNL     1      -1.967   8.972 133.501  0.00  0.00    +0.000 C 
BRANCH  53  54
ATOM     54  C   UNL     1      -0.627   8.402 133.093  0.00  0.00    +0.000 C 
ATOM     55  C   UNL     1       0.439   9.382 133.399  0.00  0.00    +0.000 C 
ATOM     56  C   UNL     1      -0.087   7.322 133.957  0.00  0.00    +0.000 C 
ENDBRANCH  53  54
ENDBRANCH  42  53
ENDBRANCH  40  42
ENDBRANCH  37  38
ENDBRANCH  36  37
BRANCH  36  57
ATOM     57  C   UNL     1      -3.145   5.325 134.592  0.00  0.00    +0.000 C 
BRANCH  57  58
ATOM     58  C   UNL     1      -3.450   5.845 133.256  0.00  0.00    +0.000 C 
BRANCH  58  59
ATOM     59  C   UNL     1      -2.711   5.357 132.079  0.00  0.00    +0.000 C 
BRANCH  59  60
ATOM     60  O   UNL     1      -1.681   4.460 132.495  0.00  0.00    +0.000 OA
ATOM     61  H   UNL     1      -1.464   4.614 133.428  0.00  0.00    +0.000 HD
ENDBRANCH  59  60
ENDBRANCH  58  59
ENDBRANCH  57  58
ENDBRANCH  36  57
ENDBRANCH  14  34
BRANCH   1  62
ATOM     62  C   UNL     1      -4.976  -2.688 130.733  0.00  0.00    +0.000 C 
ATOM     63  C   UNL     1      -3.751  -4.102 131.823  0.00  0.00    +0.000 C 
BRANCH  62  65
ATOM     64  C   UNL     1      -2.994  -3.856 128.854  0.00  0.00    +0.000 C 
ATOM     65  C   UNL     1      -3.454  -3.813 130.650  0.00  0.00    +0.000 C 
ENDBRANCH  62  65
ENDBRANCH   1  62
BRANCH  18  66
ATOM     66  C   UNL     1      -7.013   1.191 131.733  0.00  0.00    +0.000 C 
BRANCH  66  67
ATOM     67  C   UNL     1      -8.245   1.238 132.430  0.00  0.00    +0.000 C 
ATOM     68  N   UNL     1      -8.644   0.366 131.656  0.00  0.00    +0.000 N 
ATOM     69  O   UNL     1      -8.797   1.755 133.335  0.00  0.00    +0.000 OA
ATOM     70  H   UNL     1      -7.824  -0.316 131.863  0.00  0.00    +0.000 HD
ATOM     71  H   UNL     1      -9.565  -0.045 131.518  0.00  0.00    +0.000 HD
ENDBRANCH  66  67
ENDBRANCH  18  66
BRANCH   5  72
ATOM     72  C   UNL     1      -6.624   2.377 125.503  0.00  0.00    +0.000 C 
BRANCH  72  73
ATOM     73  C   UNL     1      -6.374   2.946 124.130  0.00  0.00    +0.000 A 
ATOM     74  C   UNL     1      -6.777   2.397 122.878  0.00  0.00    +0.000 A 
ATOM     75  C   UNL     1      -6.426   3.044 121.706  0.00  0.00    +0.000 A 
ATOM     76  C   UNL     1      -5.596   4.149 121.792  0.00  0.00    +0.000 A 
ATOM     77  C   UNL     1      -5.033   4.537 122.996  0.00  0.00    +0.000 A 
ATOM     78  C   UNL     1      -5.405   3.931 124.157  0.00  0.00    +0.000 A 
BRANCH  76  79
ATOM     79  O   UNL     1      -5.281   4.935 120.730  0.00  0.00    +0.000 OA
ATOM     80  H   UNL     1      -5.756   5.778 120.764  0.00  0.00    +0.000 HD
ENDBRANCH  76  79
ENDBRANCH  72  73
ENDBRANCH   5  72
BRANCH  22  81
ATOM     81  C   UNL     1      -5.877  -2.423 134.104  0.00  0.00    +0.000 C 
BRANCH  81  82
ATOM     82  C   UNL     1      -7.142  -2.889 134.713  0.00  0.00    +0.000 C 
BRANCH  82  83
ATOM     83  C   UNL     1      -7.636  -4.246 134.828  0.00  0.00    +0.000 C 
ATOM     84  N   UNL     1      -8.969  -4.186 134.832  0.00  0.00    +0.000 N 
ATOM     85  O   UNL     1      -6.924  -5.238 134.833  0.00  0.00    +0.000 OA
ATOM     86  H   UNL     1      -9.451  -3.299 134.775  0.00  0.00    +0.000 HD
ATOM     87  H   UNL     1      -9.447  -5.052 134.882  0.00  0.00    +0.000 HD
ENDBRANCH  82  83
ENDBRANCH  81  82
ENDBRANCH  22  81
TORSDOF 24
ENDMDL
