MODEL 1
REMARK VINA RESULT:      -7.4      0.000      0.000
REMARK  Name = CHEMBL1089682
REMARK  7 active torsions:
REMARK  status: ('A' for Active; 'I' for Inactive)
REMARK    1  A    between atoms: C_1  and  O_2
REMARK    2  A    between atoms: O_2  and  C_3
REMARK    3  A    between atoms: C_6  and  N_7
REMARK    4  A    between atoms: N_7  and  C_8
REMARK    5  A    between atoms: C_9  and  C_11
REMARK    6  A    between atoms: C_14  and  C_15
REMARK    7  A    between atoms: C_20  and  C_21
REMARK                            x       y       z     vdW  Elec       q    Type
REMARK                         _______ _______ _______ _____ _____    ______ ____
ROOT
ATOM      1  C   UNL     1      -7.317   0.242 125.190  0.00  0.00    +0.000 A 
ATOM      2  C   UNL     1      -6.250   0.281 126.066  0.00  0.00    +0.000 A 
ATOM      3  N   UNL     1      -6.247  -0.372 127.246  0.00  0.00    +0.000 NA
ATOM      4  C   UNL     1      -7.411  -0.972 127.597  0.00  0.00    +0.000 A 
ATOM      5  C   UNL     1      -8.524  -0.921 126.760  0.00  0.00    +0.000 A 
ATOM      6  N   UNL     1      -8.499  -0.339 125.533  0.00  0.00    +0.000 NA
ENDROOT
BRANCH   4   7
ATOM      7  C   UNL     1      -7.423  -1.602 128.917  0.00  0.00    +0.000 A 
ATOM      8  C   UNL     1      -7.096  -2.965 129.054  0.00  0.00    +0.000 A 
ATOM      9  C   UNL     1      -7.073  -3.574 130.308  0.00  0.00    +0.000 A 
ATOM     10  C   UNL     1      -7.372  -2.832 131.447  0.00  0.00    +0.000 A 
ATOM     11  C   UNL     1      -7.708  -1.484 131.333  0.00  0.00    +0.000 A 
ATOM     12  C   UNL     1      -7.741  -0.859 130.079  0.00  0.00    +0.000 A 
ATOM     13  C   UNL     1      -8.142   0.591 129.990  0.00  0.00    +0.000 C 
ENDBRANCH   4   7
BRANCH   1  16
ATOM     14  N   UNL     1      -7.595   2.258 123.698  0.00  0.00    +0.000 N 
ATOM     15  C   UNL     1      -7.989   3.050 124.876  0.00  0.00    +0.000 C 
ATOM     16  C   UNL     1      -7.214   0.888 123.852  0.00  0.00    +0.000 C 
ATOM     17  O   UNL     1      -6.802   0.143 122.957  0.00  0.00    +0.000 OA
BRANCH  14  21
ATOM     18  C   UNL     1      -7.313   4.222 119.924  0.00  0.00    +0.000 A 
ATOM     19  C   UNL     1      -8.563   3.883 120.403  0.00  0.00    +0.000 A 
ATOM     20  C   UNL     1      -8.663   3.242 121.646  0.00  0.00    +0.000 A 
ATOM     21  C   UNL     1      -7.533   2.934 122.409  0.00  0.00    +0.000 A 
ATOM     22  C   UNL     1      -6.330   3.328 121.810  0.00  0.00    +0.000 A 
ATOM     23  N   UNL     1      -6.193   3.950 120.608  0.00  0.00    +0.000 NA
BRANCH  18  25
ATOM     24  C   UNL     1      -6.028   5.691 118.614  0.00  0.00    +0.000 C 
ATOM     25  O   UNL     1      -7.082   4.742 118.685  0.00  0.00    +0.000 OA
ENDBRANCH  18  25
ENDBRANCH  14  21
ENDBRANCH   1  16
TORSDOF 4
ENDMDL
MODEL 2
REMARK VINA RESULT:      -7.3      6.341     10.167
REMARK  Name = CHEMBL1089682
REMARK  7 active torsions:
REMARK  status: ('A' for Active; 'I' for Inactive)
REMARK    1  A    between atoms: C_1  and  O_2
REMARK    2  A    between atoms: O_2  and  C_3
REMARK    3  A    between atoms: C_6  and  N_7
REMARK    4  A    between atoms: N_7  and  C_8
REMARK    5  A    between atoms: C_9  and  C_11
REMARK    6  A    between atoms: C_14  and  C_15
REMARK    7  A    between atoms: C_20  and  C_21
REMARK                            x       y       z     vdW  Elec       q    Type
REMARK                         _______ _______ _______ _____ _____    ______ ____
ROOT
ATOM      1  C   UNL     1      -9.270   3.210 130.762  0.00  0.00    +0.000 A 
ATOM      2  C   UNL     1     -10.608   3.263 130.423  0.00  0.00    +0.000 A 
ATOM      3  N   UNL     1     -11.202   4.380 129.955  0.00  0.00    +0.000 NA
ATOM      4  C   UNL     1     -10.442   5.503 129.956  0.00  0.00    +0.000 A 
ATOM      5  C   UNL     1      -9.121   5.473 130.397  0.00  0.00    +0.000 A 
ATOM      6  N   UNL     1      -8.497   4.331 130.785  0.00  0.00    +0.000 NA
ENDROOT
BRANCH   4   7
ATOM      7  C   UNL     1     -11.123   6.725 129.528  0.00  0.00    +0.000 A 
ATOM      8  C   UNL     1     -10.926   7.227 128.228  0.00  0.00    +0.000 A 
ATOM      9  C   UNL     1     -11.590   8.375 127.793  0.00  0.00    +0.000 A 
ATOM     10  C   UNL     1     -12.464   9.037 128.650  0.00  0.00    +0.000 A 
ATOM     11  C   UNL     1     -12.666   8.562 129.945  0.00  0.00    +0.000 A 
ATOM     12  C   UNL     1     -12.002   7.414 130.397  0.00  0.00    +0.000 A 
ATOM     13  C   UNL     1     -12.217   6.950 131.815  0.00  0.00    +0.000 C 
ENDBRANCH   4   7
BRANCH   1  16
ATOM     14  N   UNL     1      -8.036   1.091 130.169  0.00  0.00    +0.000 N 
ATOM     15  C   UNL     1      -7.934   1.565 128.777  0.00  0.00    +0.000 C 
ATOM     16  C   UNL     1      -8.647   1.919 131.162  0.00  0.00    +0.000 C 
ATOM     17  O   UNL     1      -8.732   1.665 132.368  0.00  0.00    +0.000 OA
BRANCH  14  21
ATOM     18  C   UNL     1      -6.191  -2.613 131.198  0.00  0.00    +0.000 A 
ATOM     19  C   UNL     1      -7.437  -2.635 130.603  0.00  0.00    +0.000 A 
ATOM     20  C   UNL     1      -8.047  -1.421 130.257  0.00  0.00    +0.000 A 
ATOM     21  C   UNL     1      -7.430  -0.191 130.502  0.00  0.00    +0.000 A 
ATOM     22  C   UNL     1      -6.174  -0.307 131.109  0.00  0.00    +0.000 A 
ATOM     23  N   UNL     1      -5.551  -1.465 131.459  0.00  0.00    +0.000 NA
BRANCH  18  25
ATOM     24  C   UNL     1      -5.594  -4.857 130.836  0.00  0.00    +0.000 C 
ATOM     25  O   UNL     1      -5.551  -3.716 131.680  0.00  0.00    +0.000 OA
ENDBRANCH  18  25
ENDBRANCH  14  21
ENDBRANCH   1  16
TORSDOF 4
ENDMDL
MODEL 3
REMARK VINA RESULT:      -7.0      7.597      8.709
REMARK  Name = CHEMBL1089682
REMARK  7 active torsions:
REMARK  status: ('A' for Active; 'I' for Inactive)
REMARK    1  A    between atoms: C_1  and  O_2
REMARK    2  A    between atoms: O_2  and  C_3
REMARK    3  A    between atoms: C_6  and  N_7
REMARK    4  A    between atoms: N_7  and  C_8
REMARK    5  A    between atoms: C_9  and  C_11
REMARK    6  A    between atoms: C_14  and  C_15
REMARK    7  A    between atoms: C_20  and  C_21
REMARK                            x       y       z     vdW  Elec       q    Type
REMARK                         _______ _______ _______ _____ _____    ______ ____
ROOT
ATOM      1  C   UNL     1      -8.773   4.425 131.961  0.00  0.00    +0.000 A 
ATOM      2  C   UNL     1      -9.232   3.723 133.059  0.00  0.00    +0.000 A 
ATOM      3  N   UNL     1      -8.598   2.642 133.554  0.00  0.00    +0.000 NA
ATOM      4  C   UNL     1      -7.541   2.190 132.835  0.00  0.00    +0.000 A 
ATOM      5  C   UNL     1      -7.141   2.836 131.668  0.00  0.00    +0.000 A 
ATOM      6  N   UNL     1      -7.725   3.976 131.217  0.00  0.00    +0.000 NA
ENDROOT
BRANCH   4   7
ATOM      7  C   UNL     1      -6.915   0.966 133.336  0.00  0.00    +0.000 A 
ATOM      8  C   UNL     1      -5.910   1.036 134.318  0.00  0.00    +0.000 A 
ATOM      9  C   UNL     1      -5.323  -0.123 134.828  0.00  0.00    +0.000 A 
ATOM     10  C   UNL     1      -5.733  -1.370 134.367  0.00  0.00    +0.000 A 
ATOM     11  C   UNL     1      -6.720  -1.461 133.387  0.00  0.00    +0.000 A 
ATOM     12  C   UNL     1      -7.315  -0.306 132.861  0.00  0.00    +0.000 A 
ATOM     13  C   UNL     1      -8.354  -0.442 131.777  0.00  0.00    +0.000 C 
ENDBRANCH   4   7
BRANCH   1  16
ATOM     14  N   UNL     1     -10.598   5.604 130.679  0.00  0.00    +0.000 N 
ATOM     15  C   UNL     1     -11.160   4.291 130.312  0.00  0.00    +0.000 C 
ATOM     16  C   UNL     1      -9.454   5.678 131.532  0.00  0.00    +0.000 C 
ATOM     17  O   UNL     1      -8.934   6.713 131.963  0.00  0.00    +0.000 OA
BRANCH  14  21
ATOM     18  C   UNL     1     -12.675   9.103 129.405  0.00  0.00    +0.000 A 
ATOM     19  C   UNL     1     -11.597   8.664 128.662  0.00  0.00    +0.000 A 
ATOM     20  C   UNL     1     -10.913   7.511 129.071  0.00  0.00    +0.000 A 
ATOM     21  C   UNL     1     -11.291   6.798 130.213  0.00  0.00    +0.000 A 
ATOM     22  C   UNL     1     -12.394   7.348 130.876  0.00  0.00    +0.000 A 
ATOM     23  N   UNL     1     -13.082   8.463 130.510  0.00  0.00    +0.000 NA
BRANCH  18  25
ATOM     24  C   UNL     1     -13.491  11.117 130.300  0.00  0.00    +0.000 C 
ATOM     25  O   UNL     1     -13.343  10.268 129.172  0.00  0.00    +0.000 OA
ENDBRANCH  18  25
ENDBRANCH  14  21
ENDBRANCH   1  16
TORSDOF 4
ENDMDL
MODEL 4
REMARK VINA RESULT:      -6.9      2.537      9.385
REMARK  Name = CHEMBL1089682
REMARK  7 active torsions:
REMARK  status: ('A' for Active; 'I' for Inactive)
REMARK    1  A    between atoms: C_1  and  O_2
REMARK    2  A    between atoms: O_2  and  C_3
REMARK    3  A    between atoms: C_6  and  N_7
REMARK    4  A    between atoms: N_7  and  C_8
REMARK    5  A    between atoms: C_9  and  C_11
REMARK    6  A    between atoms: C_14  and  C_15
REMARK    7  A    between atoms: C_20  and  C_21
REMARK                            x       y       z     vdW  Elec       q    Type
REMARK                         _______ _______ _______ _____ _____    ______ ____
ROOT
ATOM      1  C   UNL     1      -6.521   1.985 124.985  0.00  0.00    +0.000 A 
ATOM      2  C   UNL     1      -6.215   3.323 124.829  0.00  0.00    +0.000 A 
ATOM      3  N   UNL     1      -6.280   3.954 123.639  0.00  0.00    +0.000 NA
ATOM      4  C   UNL     1      -6.538   3.172 122.563  0.00  0.00    +0.000 A 
ATOM      5  C   UNL     1      -6.743   1.802 122.706  0.00  0.00    +0.000 A 
ATOM      6  N   UNL     1      -6.765   1.181 123.914  0.00  0.00    +0.000 NA
ENDROOT
BRANCH   4   7
ATOM      7  C   UNL     1      -6.521   3.854 121.268  0.00  0.00    +0.000 A 
ATOM      8  C   UNL     1      -5.335   4.447 120.797  0.00  0.00    +0.000 A 
ATOM      9  C   UNL     1      -5.292   5.076 119.552  0.00  0.00    +0.000 A 
ATOM     10  C   UNL     1      -6.434   5.119 118.757  0.00  0.00    +0.000 A 
ATOM     11  C   UNL     1      -7.622   4.547 119.209  0.00  0.00    +0.000 A 
ATOM     12  C   UNL     1      -7.681   3.916 120.460  0.00  0.00    +0.000 A 
ATOM     13  C   UNL     1      -8.991   3.340 120.932  0.00  0.00    +0.000 C 
ENDBRANCH   4   7
BRANCH   1  16
ATOM     14  N   UNL     1      -7.794   1.041 126.948  0.00  0.00    +0.000 N 
ATOM     15  C   UNL     1      -9.046   1.208 126.190  0.00  0.00    +0.000 C 
ATOM     16  C   UNL     1      -6.542   1.373 126.342  0.00  0.00    +0.000 C 
ATOM     17  O   UNL     1      -5.425   1.215 126.847  0.00  0.00    +0.000 OA
BRANCH  14  21
ATOM     18  C   UNL     1      -7.982  -0.746 130.815  0.00  0.00    +0.000 A 
ATOM     19  C   UNL     1      -8.266   0.600 130.691  0.00  0.00    +0.000 A 
ATOM     20  C   UNL     1      -8.212   1.192 129.422  0.00  0.00    +0.000 A 
ATOM     21  C   UNL     1      -7.874   0.459 128.281  0.00  0.00    +0.000 A 
ATOM     22  C   UNL     1      -7.608  -0.891 128.543  0.00  0.00    +0.000 A 
ATOM     23  N   UNL     1      -7.651  -1.501 129.758  0.00  0.00    +0.000 NA
BRANCH  18  25
ATOM     24  C   UNL     1      -6.930  -0.887 132.912  0.00  0.00    +0.000 C 
ATOM     25  O   UNL     1      -7.892  -1.405 132.005  0.00  0.00    +0.000 OA
ENDBRANCH  18  25
ENDBRANCH  14  21
ENDBRANCH   1  16
TORSDOF 4
ENDMDL
MODEL 5
REMARK VINA RESULT:      -6.8      7.420      9.985
REMARK  Name = CHEMBL1089682
REMARK  7 active torsions:
REMARK  status: ('A' for Active; 'I' for Inactive)
REMARK    1  A    between atoms: C_1  and  O_2
REMARK    2  A    between atoms: O_2  and  C_3
REMARK    3  A    between atoms: C_6  and  N_7
REMARK    4  A    between atoms: N_7  and  C_8
REMARK    5  A    between atoms: C_9  and  C_11
REMARK    6  A    between atoms: C_14  and  C_15
REMARK    7  A    between atoms: C_20  and  C_21
REMARK                            x       y       z     vdW  Elec       q    Type
REMARK                         _______ _______ _______ _____ _____    ______ ____
ROOT
ATOM      1  C   UNL     1      -3.865   5.106 127.867  0.00  0.00    +0.000 A 
ATOM      2  C   UNL     1      -3.203   4.174 127.092  0.00  0.00    +0.000 A 
ATOM      3  N   UNL     1      -3.828   3.407 126.175  0.00  0.00    +0.000 NA
ATOM      4  C   UNL     1      -5.180   3.505 126.139  0.00  0.00    +0.000 A 
ATOM      5  C   UNL     1      -5.858   4.369 126.995  0.00  0.00    +0.000 A 
ATOM      6  N   UNL     1      -5.223   5.205 127.857  0.00  0.00    +0.000 NA
ENDROOT
BRANCH   4   7
ATOM      7  C   UNL     1      -5.852   2.605 125.201  0.00  0.00    +0.000 A 
ATOM      8  C   UNL     1      -6.243   1.317 125.611  0.00  0.00    +0.000 A 
ATOM      9  C   UNL     1      -6.911   0.458 124.738  0.00  0.00    +0.000 A 
ATOM     10  C   UNL     1      -7.203   0.874 123.443  0.00  0.00    +0.000 A 
ATOM     11  C   UNL     1      -6.816   2.142 123.013  0.00  0.00    +0.000 A 
ATOM     12  C   UNL     1      -6.139   3.014 123.876  0.00  0.00    +0.000 A 
ATOM     13  C   UNL     1      -5.705   4.365 123.366  0.00  0.00    +0.000 C 
ENDBRANCH   4   7
BRANCH   1  16
ATOM     14  N   UNL     1      -3.145   5.776 130.190  0.00  0.00    +0.000 N 
ATOM     15  C   UNL     1      -3.857   4.603 130.727  0.00  0.00    +0.000 C 
ATOM     16  C   UNL     1      -3.102   6.002 128.779  0.00  0.00    +0.000 C 
ATOM     17  O   UNL     1      -2.485   6.906 128.206  0.00  0.00    +0.000 OA
BRANCH  14  21
ATOM     18  C   UNL     1      -1.149   8.333 132.957  0.00  0.00    +0.000 A 
ATOM     19  C   UNL     1      -0.492   7.207 132.501  0.00  0.00    +0.000 A 
ATOM     20  C   UNL     1      -1.140   6.365 131.587  0.00  0.00    +0.000 A 
ATOM     21  C   UNL     1      -2.434   6.633 131.129  0.00  0.00    +0.000 A 
ATOM     22  C   UNL     1      -2.987   7.801 131.668  0.00  0.00    +0.000 A 
ATOM     23  N   UNL     1      -2.390   8.641 132.556  0.00  0.00    +0.000 NA
BRANCH  18  25
ATOM     24  C   UNL     1       0.503   9.884 133.582  0.00  0.00    +0.000 C 
ATOM     25  O   UNL     1      -0.669   9.161 133.928  0.00  0.00    +0.000 OA
ENDBRANCH  18  25
ENDBRANCH  14  21
ENDBRANCH   1  16
TORSDOF 4
ENDMDL
MODEL 6
REMARK VINA RESULT:      -6.7      1.775      2.812
REMARK  Name = CHEMBL1089682
REMARK  7 active torsions:
REMARK  status: ('A' for Active; 'I' for Inactive)
REMARK    1  A    between atoms: C_1  and  O_2
REMARK    2  A    between atoms: O_2  and  C_3
REMARK    3  A    between atoms: C_6  and  N_7
REMARK    4  A    between atoms: N_7  and  C_8
REMARK    5  A    between atoms: C_9  and  C_11
REMARK    6  A    between atoms: C_14  and  C_15
REMARK    7  A    between atoms: C_20  and  C_21
REMARK                            x       y       z     vdW  Elec       q    Type
REMARK                         _______ _______ _______ _____ _____    ______ ____
ROOT
ATOM      1  C   UNL     1      -6.731  -1.224 127.247  0.00  0.00    +0.000 A 
ATOM      2  C   UNL     1      -5.676  -1.026 128.116  0.00  0.00    +0.000 A 
ATOM      3  N   UNL     1      -5.497  -1.762 129.231  0.00  0.00    +0.000 NA
ATOM      4  C   UNL     1      -6.489  -2.635 129.534  0.00  0.00    +0.000 A 
ATOM      5  C   UNL     1      -7.607  -2.761 128.713  0.00  0.00    +0.000 A 
ATOM      6  N   UNL     1      -7.745  -2.083 127.544  0.00  0.00    +0.000 NA
ENDROOT
BRANCH   4   7
ATOM      7  C   UNL     1      -6.325  -3.365 130.791  0.00  0.00    +0.000 A 
ATOM      8  C   UNL     1      -5.609  -4.576 130.818  0.00  0.00    +0.000 A 
ATOM      9  C   UNL     1      -5.417  -5.271 132.013  0.00  0.00    +0.000 A 
ATOM     10  C   UNL     1      -5.935  -4.764 133.201  0.00  0.00    +0.000 A 
ATOM     11  C   UNL     1      -6.657  -3.571 133.195  0.00  0.00    +0.000 A 
ATOM     12  C   UNL     1      -6.862  -2.865 132.002  0.00  0.00    +0.000 A 
ATOM     13  C   UNL     1      -7.677  -1.598 132.028  0.00  0.00    +0.000 C 
ENDBRANCH   4   7
BRANCH   1  16
ATOM     14  N   UNL     1      -7.556   0.762 125.929  0.00  0.00    +0.000 N 
ATOM     15  C   UNL     1      -8.155   1.306 127.161  0.00  0.00    +0.000 C 
ATOM     16  C   UNL     1      -6.810  -0.457 125.974  0.00  0.00    +0.000 C 
ATOM     17  O   UNL     1      -6.207  -0.975 125.029  0.00  0.00    +0.000 OA
BRANCH  14  21
ATOM     18  C   UNL     1      -7.826   3.064 122.349  0.00  0.00    +0.000 A 
ATOM     19  C   UNL     1      -8.917   2.312 122.739  0.00  0.00    +0.000 A 
ATOM     20  C   UNL     1      -8.837   1.557 123.917  0.00  0.00    +0.000 A 
ATOM     21  C   UNL     1      -7.682   1.543 124.705  0.00  0.00    +0.000 A 
ATOM     22  C   UNL     1      -6.651   2.344 124.200  0.00  0.00    +0.000 A 
ATOM     23  N   UNL     1      -6.691   3.089 123.062  0.00  0.00    +0.000 NA
BRANCH  18  25
ATOM     24  C   UNL     1      -8.957   3.835 120.439  0.00  0.00    +0.000 C 
ATOM     25  O   UNL     1      -7.744   3.744 121.171  0.00  0.00    +0.000 OA
ENDBRANCH  18  25
ENDBRANCH  14  21
ENDBRANCH   1  16
TORSDOF 4
ENDMDL
MODEL 7
REMARK VINA RESULT:      -6.7      7.500     10.313
REMARK  Name = CHEMBL1089682
REMARK  7 active torsions:
REMARK  status: ('A' for Active; 'I' for Inactive)
REMARK    1  A    between atoms: C_1  and  O_2
REMARK    2  A    between atoms: O_2  and  C_3
REMARK    3  A    between atoms: C_6  and  N_7
REMARK    4  A    between atoms: N_7  and  C_8
REMARK    5  A    between atoms: C_9  and  C_11
REMARK    6  A    between atoms: C_14  and  C_15
REMARK    7  A    between atoms: C_20  and  C_21
REMARK                            x       y       z     vdW  Elec       q    Type
REMARK                         _______ _______ _______ _____ _____    ______ ____
ROOT
ATOM      1  C   UNL     1      -3.373   5.362 127.782  0.00  0.00    +0.000 A 
ATOM      2  C   UNL     1      -4.650   5.734 127.407  0.00  0.00    +0.000 A 
ATOM      3  N   UNL     1      -5.404   5.008 126.557  0.00  0.00    +0.000 NA
ATOM      4  C   UNL     1      -4.793   3.946 125.978  0.00  0.00    +0.000 A 
ATOM      5  C   UNL     1      -3.469   3.631 126.276  0.00  0.00    +0.000 A 
ATOM      6  N   UNL     1      -2.738   4.310 127.197  0.00  0.00    +0.000 NA
ENDROOT
BRANCH   4   7
ATOM      7  C   UNL     1      -5.594   3.217 124.994  0.00  0.00    +0.000 A 
ATOM      8  C   UNL     1      -5.773   3.741 123.700  0.00  0.00    +0.000 A 
ATOM      9  C   UNL     1      -6.509   3.045 122.740  0.00  0.00    +0.000 A 
ATOM     10  C   UNL     1      -7.075   1.814 123.057  0.00  0.00    +0.000 A 
ATOM     11  C   UNL     1      -6.918   1.282 124.336  0.00  0.00    +0.000 A 
ATOM     12  C   UNL     1      -6.186   1.971 125.312  0.00  0.00    +0.000 A 
ATOM     13  C   UNL     1      -6.067   1.383 126.695  0.00  0.00    +0.000 C 
ENDBRANCH   4   7
BRANCH   1  16
ATOM     14  N   UNL     1      -2.875   5.889 130.198  0.00  0.00    +0.000 N 
ATOM     15  C   UNL     1      -3.768   4.788 130.601  0.00  0.00    +0.000 C 
ATOM     16  C   UNL     1      -2.636   6.145 128.812  0.00  0.00    +0.000 C 
ATOM     17  O   UNL     1      -1.861   6.989 128.351  0.00  0.00    +0.000 OA
BRANCH  14  21
ATOM     18  C   UNL     1      -0.801   8.032 133.246  0.00  0.00    +0.000 A 
ATOM     19  C   UNL     1      -2.062   8.456 132.878  0.00  0.00    +0.000 A 
ATOM     20  C   UNL     1      -2.752   7.753 131.880  0.00  0.00    +0.000 A 
ATOM     21  C   UNL     1      -2.195   6.638 131.247  0.00  0.00    +0.000 A 
ATOM     22  C   UNL     1      -0.915   6.314 131.711  0.00  0.00    +0.000 A 
ATOM     23  N   UNL     1      -0.215   6.971 132.674  0.00  0.00    +0.000 NA
BRANCH  18  25
ATOM     24  C   UNL     1       0.551   7.908 135.165  0.00  0.00    +0.000 C 
ATOM     25  O   UNL     1       0.009   8.698 134.118  0.00  0.00    +0.000 OA
ENDBRANCH  18  25
ENDBRANCH  14  21
ENDBRANCH   1  16
TORSDOF 4
ENDMDL
MODEL 8
REMARK VINA RESULT:      -6.6      6.777     10.610
REMARK  Name = CHEMBL1089682
REMARK  7 active torsions:
REMARK  status: ('A' for Active; 'I' for Inactive)
REMARK    1  A    between atoms: C_1  and  O_2
REMARK    2  A    between atoms: O_2  and  C_3
REMARK    3  A    between atoms: C_6  and  N_7
REMARK    4  A    between atoms: N_7  and  C_8
REMARK    5  A    between atoms: C_9  and  C_11
REMARK    6  A    between atoms: C_14  and  C_15
REMARK    7  A    between atoms: C_20  and  C_21
REMARK                            x       y       z     vdW  Elec       q    Type
REMARK                         _______ _______ _______ _____ _____    ______ ____
ROOT
ATOM      1  C   UNL     1      -7.529   4.166 130.431  0.00  0.00    +0.000 A 
ATOM      2  C   UNL     1      -8.689   3.861 129.745  0.00  0.00    +0.000 A 
ATOM      3  N   UNL     1      -9.621   4.785 129.436  0.00  0.00    +0.000 NA
ATOM      4  C   UNL     1      -9.426   6.024 129.951  0.00  0.00    +0.000 A 
ATOM      5  C   UNL     1      -8.308   6.306 130.733  0.00  0.00    +0.000 A 
ATOM      6  N   UNL     1      -7.325   5.399 130.971  0.00  0.00    +0.000 NA
ENDROOT
BRANCH   4   7
ATOM      7  C   UNL     1     -10.488   6.993 129.681  0.00  0.00    +0.000 A 
ATOM      8  C   UNL     1     -10.457   7.767 128.506  0.00  0.00    +0.000 A 
ATOM      9  C   UNL     1     -11.477   8.675 128.218  0.00  0.00    +0.000 A 
ATOM     10  C   UNL     1     -12.545   8.822 129.098  0.00  0.00    +0.000 A 
ATOM     11  C   UNL     1     -12.590   8.072 130.272  0.00  0.00    +0.000 A 
ATOM     12  C   UNL     1     -11.570   7.160 130.578  0.00  0.00    +0.000 A 
ATOM     13  C   UNL     1     -11.634   6.392 131.873  0.00  0.00    +0.000 C 
ENDBRANCH   4   7
BRANCH   1  16
ATOM     14  N   UNL     1      -6.486   2.357 131.847  0.00  0.00    +0.000 N 
ATOM     15  C   UNL     1      -7.575   2.525 132.826  0.00  0.00    +0.000 C 
ATOM     16  C   UNL     1      -6.485   3.126 130.641  0.00  0.00    +0.000 C 
ATOM     17  O   UNL     1      -5.670   3.028 129.717  0.00  0.00    +0.000 OA
BRANCH  14  21
ATOM     18  C   UNL     1      -3.580  -0.681 132.559  0.00  0.00    +0.000 A 
ATOM     19  C   UNL     1      -3.339   0.593 133.035  0.00  0.00    +0.000 A 
ATOM     20  C   UNL     1      -4.292   1.596 132.809  0.00  0.00    +0.000 A 
ATOM     21  C   UNL     1      -5.478   1.340 132.113  0.00  0.00    +0.000 A 
ATOM     22  C   UNL     1      -5.599   0.013 131.684  0.00  0.00    +0.000 A 
ATOM     23  N   UNL     1      -4.697  -0.985 131.883  0.00  0.00    +0.000 NA
BRANCH  18  25
ATOM     24  C   UNL     1      -2.500  -2.278 133.903  0.00  0.00    +0.000 C 
ATOM     25  O   UNL     1      -2.682  -1.704 132.617  0.00  0.00    +0.000 OA
ENDBRANCH  18  25
ENDBRANCH  14  21
ENDBRANCH   1  16
TORSDOF 4
ENDMDL
MODEL 9
REMARK VINA RESULT:      -6.5      4.728      9.057
REMARK  Name = CHEMBL1089682
REMARK  7 active torsions:
REMARK  status: ('A' for Active; 'I' for Inactive)
REMARK    1  A    between atoms: C_1  and  O_2
REMARK    2  A    between atoms: O_2  and  C_3
REMARK    3  A    between atoms: C_6  and  N_7
REMARK    4  A    between atoms: N_7  and  C_8
REMARK    5  A    between atoms: C_9  and  C_11
REMARK    6  A    between atoms: C_14  and  C_15
REMARK    7  A    between atoms: C_20  and  C_21
REMARK                            x       y       z     vdW  Elec       q    Type
REMARK                         _______ _______ _______ _____ _____    ______ ____
ROOT
ATOM      1  C   UNL     1      -7.997   1.315 128.672  0.00  0.00    +0.000 A 
ATOM      2  C   UNL     1      -7.287   0.139 128.530  0.00  0.00    +0.000 A 
ATOM      3  N   UNL     1      -7.362  -0.633 127.427  0.00  0.00    +0.000 NA
ATOM      4  C   UNL     1      -8.281  -0.261 126.502  0.00  0.00    +0.000 A 
ATOM      5  C   UNL     1      -9.073   0.868 126.693  0.00  0.00    +0.000 A 
ATOM      6  N   UNL     1      -8.936   1.694 127.762  0.00  0.00    +0.000 NA
ENDROOT
BRANCH   4   7
ATOM      7  C   UNL     1      -8.413  -1.155 125.351  0.00  0.00    +0.000 A 
ATOM      8  C   UNL     1      -9.144  -2.352 125.464  0.00  0.00    +0.000 A 
ATOM      9  C   UNL     1      -9.305  -3.201 124.368  0.00  0.00    +0.000 A 
ATOM     10  C   UNL     1      -8.740  -2.865 123.141  0.00  0.00    +0.000 A 
ATOM     11  C   UNL     1      -8.004  -1.689 123.010  0.00  0.00    +0.000 A 
ATOM     12  C   UNL     1      -7.829  -0.829 124.103  0.00  0.00    +0.000 A 
ATOM     13  C   UNL     1      -6.997   0.417 123.934  0.00  0.00    +0.000 C 
ENDBRANCH   4   7
BRANCH   1  16
ATOM     14  N   UNL     1      -8.270   1.759 131.141  0.00  0.00    +0.000 N 
ATOM     15  C   UNL     1      -8.885   0.428 131.291  0.00  0.00    +0.000 C 
ATOM     16  C   UNL     1      -7.783   2.182 129.864  0.00  0.00    +0.000 C 
ATOM     17  O   UNL     1      -7.191   3.239 129.626  0.00  0.00    +0.000 OA
BRANCH  14  21
ATOM     18  C   UNL     1      -7.690   4.149 134.624  0.00  0.00    +0.000 A 
ATOM     19  C   UNL     1      -8.971   3.994 134.132  0.00  0.00    +0.000 A 
ATOM     20  C   UNL     1      -9.169   3.205 132.990  0.00  0.00    +0.000 A 
ATOM     21  C   UNL     1      -8.106   2.576 132.336  0.00  0.00    +0.000 A 
ATOM     22  C   UNL     1      -6.863   2.814 132.934  0.00  0.00    +0.000 A 
ATOM     23  N   UNL     1      -6.631   3.572 134.040  0.00  0.00    +0.000 NA
BRANCH  18  25
ATOM     24  C   UNL     1      -5.995   4.945 136.045  0.00  0.00    +0.000 C 
ATOM     25  O   UNL     1      -7.360   4.979 135.654  0.00  0.00    +0.000 OA
ENDBRANCH  18  25
ENDBRANCH  14  21
ENDBRANCH   1  16
TORSDOF 4
ENDMDL
