MODEL 1
REMARK VINA RESULT:      -7.4      0.000      0.000
REMARK  Name = CHEMBL1093365
REMARK  10 active torsions:
REMARK  status: ('A' for Active; 'I' for Inactive)
REMARK    1  A    between atoms: C_1  and  O_2
REMARK    2  A    between atoms: O_2  and  C_3
REMARK    3  A    between atoms: C_3  and  C_4
REMARK    4  A    between atoms: C_4  and  N_5
REMARK    5  A    between atoms: N_5  and  C_21
REMARK    6  A    between atoms: C_6  and  C_8
REMARK    7  A    between atoms: C_11  and  C_12
REMARK    8  A    between atoms: C_17  and  C_18
REMARK    9  A    between atoms: C_24  and  O_25
REMARK   10  A    between atoms: O_25  and  C_26
REMARK                            x       y       z     vdW  Elec       q    Type
REMARK                         _______ _______ _______ _____ _____    ______ ____
ROOT
ATOM      1  N   UNL     1      -9.868   5.582 130.448  0.00  0.00    +0.000 N 
ATOM      2  C   UNL     1     -10.394   4.242 130.364  0.00  0.00    +0.000 C 
ATOM      3  O   UNL     1     -11.524   3.996 129.956  0.00  0.00    +0.000 OA
ENDROOT
BRANCH   2   4
ATOM      4  C   UNL     1      -9.598   3.026 130.727  0.00  0.00    +0.000 A 
ATOM      5  C   UNL     1      -8.456   2.685 130.033  0.00  0.00    +0.000 A 
ATOM      6  N   UNL     1      -7.913   1.441 130.105  0.00  0.00    +0.000 NA
ATOM      7  C   UNL     1      -8.411   0.591 131.041  0.00  0.00    +0.000 A 
ATOM      8  C   UNL     1      -9.430   1.027 131.877  0.00  0.00    +0.000 A 
ATOM      9  N   UNL     1     -10.081   2.216 131.710  0.00  0.00    +0.000 NA
BRANCH   7  10
ATOM     10  C   UNL     1      -7.753  -0.727 131.166  0.00  0.00    +0.000 A 
ATOM     11  C   UNL     1      -8.019  -1.776 130.255  0.00  0.00    +0.000 A 
ATOM     12  C   UNL     1      -7.467  -3.051 130.431  0.00  0.00    +0.000 A 
ATOM     13  C   UNL     1      -6.624  -3.302 131.508  0.00  0.00    +0.000 A 
ATOM     14  C   UNL     1      -6.317  -2.277 132.399  0.00  0.00    +0.000 A 
ATOM     15  C   UNL     1      -6.866  -0.994 132.237  0.00  0.00    +0.000 A 
ATOM     16  C   UNL     1      -6.526   0.073 133.246  0.00  0.00    +0.000 C 
ENDBRANCH   7  10
ENDBRANCH   2   4
BRANCH   1  17
ATOM     17  C   UNL     1     -10.790   6.673 130.156  0.00  0.00    +0.000 A 
ATOM     18  C   UNL     1     -11.869   6.967 130.991  0.00  0.00    +0.000 A 
ATOM     19  C   UNL     1     -12.718   8.046 130.716  0.00  0.00    +0.000 A 
ATOM     20  C   UNL     1     -12.504   8.810 129.580  0.00  0.00    +0.000 A 
ATOM     21  N   UNL     1     -11.501   8.532 128.723  0.00  0.00    +0.000 NA
ATOM     22  C   UNL     1     -10.667   7.498 129.035  0.00  0.00    +0.000 A 
BRANCH  20  23
ATOM     23  O   UNL     1     -13.257   9.894 129.219  0.00  0.00    +0.000 OA
ATOM     24  C   UNL     1     -13.417  10.914 130.198  0.00  0.00    +0.000 C 
ENDBRANCH  20  23
ENDBRANCH   1  17
BRANCH   1  25
ATOM     25  C   UNL     1      -8.460   6.044 130.794  0.00  0.00    +0.000 C 
BRANCH  25  26
ATOM     26  C   UNL     1      -8.087   5.975 132.259  0.00  0.00    +0.000 C 
BRANCH  26  28
ATOM     27  C   UNL     1      -8.598   4.572 134.000  0.00  0.00    +0.000 C 
ATOM     28  O   UNL     1      -9.042   5.751 133.283  0.00  0.00    +0.000 OA
ENDBRANCH  26  28
ENDBRANCH  25  26
ENDBRANCH   1  25
TORSDOF 7
ENDMDL
MODEL 2
REMARK VINA RESULT:      -7.0      2.702      9.256
REMARK  Name = CHEMBL1093365
REMARK  10 active torsions:
REMARK  status: ('A' for Active; 'I' for Inactive)
REMARK    1  A    between atoms: C_1  and  O_2
REMARK    2  A    between atoms: O_2  and  C_3
REMARK    3  A    between atoms: C_3  and  C_4
REMARK    4  A    between atoms: C_4  and  N_5
REMARK    5  A    between atoms: N_5  and  C_21
REMARK    6  A    between atoms: C_6  and  C_8
REMARK    7  A    between atoms: C_11  and  C_12
REMARK    8  A    between atoms: C_17  and  C_18
REMARK    9  A    between atoms: C_24  and  O_25
REMARK   10  A    between atoms: O_25  and  C_26
REMARK                            x       y       z     vdW  Elec       q    Type
REMARK                         _______ _______ _______ _____ _____    ______ ____
ROOT
ATOM      1  N   UNL     1      -8.082   1.566 129.608  0.00  0.00    +0.000 N 
ATOM      2  C   UNL     1      -8.432   2.311 130.791  0.00  0.00    +0.000 C 
ATOM      3  O   UNL     1      -8.067   1.984 131.915  0.00  0.00    +0.000 OA
ENDROOT
BRANCH   2   4
ATOM      4  C   UNL     1      -9.239   3.574 130.755  0.00  0.00    +0.000 A 
ATOM      5  C   UNL     1     -10.589   3.552 130.472  0.00  0.00    +0.000 A 
ATOM      6  N   UNL     1     -11.264   4.672 130.100  0.00  0.00    +0.000 NA
ATOM      7  C   UNL     1     -10.618   5.862 130.208  0.00  0.00    +0.000 A 
ATOM      8  C   UNL     1      -9.318   5.884 130.695  0.00  0.00    +0.000 A 
ATOM      9  N   UNL     1      -8.584   4.756 130.924  0.00  0.00    +0.000 NA
BRANCH   7  10
ATOM     10  C   UNL     1     -11.395   7.077 129.883  0.00  0.00    +0.000 A 
ATOM     11  C   UNL     1     -12.272   7.668 130.822  0.00  0.00    +0.000 A 
ATOM     12  C   UNL     1     -13.076   8.762 130.480  0.00  0.00    +0.000 A 
ATOM     13  C   UNL     1     -13.009   9.302 129.200  0.00  0.00    +0.000 A 
ATOM     14  C   UNL     1     -12.127   8.761 128.268  0.00  0.00    +0.000 A 
ATOM     15  C   UNL     1     -11.317   7.663 128.596  0.00  0.00    +0.000 A 
ATOM     16  C   UNL     1     -10.401   7.097 127.541  0.00  0.00    +0.000 C 
ENDBRANCH   7  10
ENDBRANCH   2   4
BRANCH   1  17
ATOM     17  C   UNL     1      -7.377   0.306 129.806  0.00  0.00    +0.000 A 
ATOM     18  C   UNL     1      -8.052  -0.869 130.143  0.00  0.00    +0.000 A 
ATOM     19  C   UNL     1      -7.362  -2.078 130.287  0.00  0.00    +0.000 A 
ATOM     20  C   UNL     1      -5.986  -2.103 130.127  0.00  0.00    +0.000 A 
ATOM     21  N   UNL     1      -5.290  -0.983 129.846  0.00  0.00    +0.000 NA
ATOM     22  C   UNL     1      -5.993   0.175 129.675  0.00  0.00    +0.000 A 
BRANCH  20  23
ATOM     23  O   UNL     1      -5.211  -3.226 130.228  0.00  0.00    +0.000 OA
ATOM     24  C   UNL     1      -5.897  -4.460 130.402  0.00  0.00    +0.000 C 
ENDBRANCH  20  23
ENDBRANCH   1  17
BRANCH   1  25
ATOM     25  C   UNL     1      -8.331   1.907 128.146  0.00  0.00    +0.000 C 
BRANCH  25  26
ATOM     26  C   UNL     1      -7.603   3.127 127.622  0.00  0.00    +0.000 C 
BRANCH  26  28
ATOM     27  C   UNL     1      -8.008   4.516 125.843  0.00  0.00    +0.000 C 
ATOM     28  O   UNL     1      -8.275   4.320 127.254  0.00  0.00    +0.000 OA
ENDBRANCH  26  28
ENDBRANCH  25  26
ENDBRANCH   1  25
TORSDOF 7
ENDMDL
MODEL 3
REMARK VINA RESULT:      -7.0      6.767      8.575
REMARK  Name = CHEMBL1093365
REMARK  10 active torsions:
REMARK  status: ('A' for Active; 'I' for Inactive)
REMARK    1  A    between atoms: C_1  and  O_2
REMARK    2  A    between atoms: O_2  and  C_3
REMARK    3  A    between atoms: C_3  and  C_4
REMARK    4  A    between atoms: C_4  and  N_5
REMARK    5  A    between atoms: N_5  and  C_21
REMARK    6  A    between atoms: C_6  and  C_8
REMARK    7  A    between atoms: C_11  and  C_12
REMARK    8  A    between atoms: C_17  and  C_18
REMARK    9  A    between atoms: C_24  and  O_25
REMARK   10  A    between atoms: O_25  and  C_26
REMARK                            x       y       z     vdW  Elec       q    Type
REMARK                         _______ _______ _______ _____ _____    ______ ____
ROOT
ATOM      1  N   UNL     1      -6.492   2.996 124.283  0.00  0.00    +0.000 N 
ATOM      2  C   UNL     1      -5.988   4.097 125.066  0.00  0.00    +0.000 C 
ATOM      3  O   UNL     1      -6.044   5.262 124.687  0.00  0.00    +0.000 OA
ENDROOT
BRANCH   2   4
ATOM      4  C   UNL     1      -5.389   3.926 126.428  0.00  0.00    +0.000 A 
ATOM      5  C   UNL     1      -6.032   4.391 127.557  0.00  0.00    +0.000 A 
ATOM      6  N   UNL     1      -5.382   4.558 128.739  0.00  0.00    +0.000 NA
ATOM      7  C   UNL     1      -4.121   4.064 128.839  0.00  0.00    +0.000 A 
ATOM      8  C   UNL     1      -3.562   3.412 127.749  0.00  0.00    +0.000 A 
ATOM      9  N   UNL     1      -4.146   3.374 126.515  0.00  0.00    +0.000 NA
BRANCH   7  10
ATOM     10  C   UNL     1      -3.460   4.177 130.157  0.00  0.00    +0.000 A 
ATOM     11  C   UNL     1      -3.706   3.243 131.190  0.00  0.00    +0.000 A 
ATOM     12  C   UNL     1      -3.153   3.406 132.466  0.00  0.00    +0.000 A 
ATOM     13  C   UNL     1      -2.328   4.493 132.733  0.00  0.00    +0.000 A 
ATOM     14  C   UNL     1      -2.041   5.407 131.723  0.00  0.00    +0.000 A 
ATOM     15  C   UNL     1      -2.591   5.258 130.440  0.00  0.00    +0.000 A 
ATOM     16  C   UNL     1      -2.272   6.292 129.390  0.00  0.00    +0.000 C 
ENDBRANCH   7  10
ENDBRANCH   2   4
BRANCH   1  17
ATOM     17  C   UNL     1      -6.957   3.302 122.936  0.00  0.00    +0.000 A 
ATOM     18  C   UNL     1      -8.296   3.159 122.569  0.00  0.00    +0.000 A 
ATOM     19  C   UNL     1      -8.729   3.499 121.282  0.00  0.00    +0.000 A 
ATOM     20  C   UNL     1      -7.810   3.952 120.350  0.00  0.00    +0.000 A 
ATOM     21  N   UNL     1      -6.500   4.064 120.649  0.00  0.00    +0.000 NA
ATOM     22  C   UNL     1      -6.111   3.760 121.922  0.00  0.00    +0.000 A 
BRANCH  20  23
ATOM     23  O   UNL     1      -8.120   4.329 119.071  0.00  0.00    +0.000 OA
ATOM     24  C   UNL     1      -9.501   4.360 118.733  0.00  0.00    +0.000 C 
ENDBRANCH  20  23
ENDBRANCH   1  17
BRANCH   1  25
ATOM     25  C   UNL     1      -6.626   1.529 124.661  0.00  0.00    +0.000 C 
BRANCH  25  26
ATOM     26  C   UNL     1      -7.923   1.140 125.338  0.00  0.00    +0.000 C 
BRANCH  26  28
ATOM     27  C   UNL     1      -8.447   1.627 127.517  0.00  0.00    +0.000 C 
ATOM     28  O   UNL     1      -8.665   2.040 126.145  0.00  0.00    +0.000 OA
ENDBRANCH  26  28
ENDBRANCH  25  26
ENDBRANCH   1  25
TORSDOF 7
ENDMDL
MODEL 4
REMARK VINA RESULT:      -7.0      6.400      7.850
REMARK  Name = CHEMBL1093365
REMARK  10 active torsions:
REMARK  status: ('A' for Active; 'I' for Inactive)
REMARK    1  A    between atoms: C_1  and  O_2
REMARK    2  A    between atoms: O_2  and  C_3
REMARK    3  A    between atoms: C_3  and  C_4
REMARK    4  A    between atoms: C_4  and  N_5
REMARK    5  A    between atoms: N_5  and  C_21
REMARK    6  A    between atoms: C_6  and  C_8
REMARK    7  A    between atoms: C_11  and  C_12
REMARK    8  A    between atoms: C_17  and  C_18
REMARK    9  A    between atoms: C_24  and  O_25
REMARK   10  A    between atoms: O_25  and  C_26
REMARK                            x       y       z     vdW  Elec       q    Type
REMARK                         _______ _______ _______ _____ _____    ______ ____
ROOT
ATOM      1  N   UNL     1      -6.974   2.324 123.840  0.00  0.00    +0.000 N 
ATOM      2  C   UNL     1      -7.138   0.893 123.922  0.00  0.00    +0.000 C 
ATOM      3  O   UNL     1      -7.238   0.178 122.931  0.00  0.00    +0.000 OA
ENDROOT
BRANCH   2   4
ATOM      4  C   UNL     1      -7.160   0.145 125.220  0.00  0.00    +0.000 A 
ATOM      5  C   UNL     1      -8.284   0.131 126.019  0.00  0.00    +0.000 A 
ATOM      6  N   UNL     1      -8.234  -0.237 127.326  0.00  0.00    +0.000 NA
ATOM      7  C   UNL     1      -7.078  -0.788 127.781  0.00  0.00    +0.000 A 
ATOM      8  C   UNL     1      -6.017  -0.957 126.901  0.00  0.00    +0.000 A 
ATOM      9  N   UNL     1      -6.007  -0.453 125.632  0.00  0.00    +0.000 NA
BRANCH   7  10
ATOM     10  C   UNL     1      -7.068  -1.263 129.181  0.00  0.00    +0.000 A 
ATOM     11  C   UNL     1      -6.495  -0.492 130.220  0.00  0.00    +0.000 A 
ATOM     12  C   UNL     1      -6.403  -0.985 131.527  0.00  0.00    +0.000 A 
ATOM     13  C   UNL     1      -6.896  -2.249 131.830  0.00  0.00    +0.000 A 
ATOM     14  C   UNL     1      -7.498  -3.014 130.834  0.00  0.00    +0.000 A 
ATOM     15  C   UNL     1      -7.594  -2.533 129.518  0.00  0.00    +0.000 A 
ATOM     16  C   UNL     1      -8.228  -3.412 128.470  0.00  0.00    +0.000 C 
ENDBRANCH   7  10
ENDBRANCH   2   4
BRANCH   1  17
ATOM     17  C   UNL     1      -7.071   2.924 122.515  0.00  0.00    +0.000 A 
ATOM     18  C   UNL     1      -8.303   3.185 121.915  0.00  0.00    +0.000 A 
ATOM     19  C   UNL     1      -8.375   3.803 120.660  0.00  0.00    +0.000 A 
ATOM     20  C   UNL     1      -7.206   4.126 119.991  0.00  0.00    +0.000 A 
ATOM     21  N   UNL     1      -5.996   3.851 120.515  0.00  0.00    +0.000 NA
ATOM     22  C   UNL     1      -5.955   3.282 121.756  0.00  0.00    +0.000 A 
BRANCH  20  23
ATOM     23  O   UNL     1      -7.154   4.744 118.770  0.00  0.00    +0.000 OA
ATOM     24  C   UNL     1      -6.031   5.584 118.529  0.00  0.00    +0.000 C 
ENDBRANCH  20  23
ENDBRANCH   1  17
BRANCH   1  25
ATOM     25  C   UNL     1      -6.698   3.326 124.950  0.00  0.00    +0.000 C 
BRANCH  25  26
ATOM     26  C   UNL     1      -7.914   3.829 125.699  0.00  0.00    +0.000 C 
BRANCH  26  28
ATOM     27  C   UNL     1      -7.853   4.084 127.978  0.00  0.00    +0.000 C 
ATOM     28  O   UNL     1      -7.832   4.808 126.722  0.00  0.00    +0.000 OA
ENDBRANCH  26  28
ENDBRANCH  25  26
ENDBRANCH   1  25
TORSDOF 7
ENDMDL
MODEL 5
REMARK VINA RESULT:      -7.0      1.559      2.533
REMARK  Name = CHEMBL1093365
REMARK  10 active torsions:
REMARK  status: ('A' for Active; 'I' for Inactive)
REMARK    1  A    between atoms: C_1  and  O_2
REMARK    2  A    between atoms: O_2  and  C_3
REMARK    3  A    between atoms: C_3  and  C_4
REMARK    4  A    between atoms: C_4  and  N_5
REMARK    5  A    between atoms: N_5  and  C_21
REMARK    6  A    between atoms: C_6  and  C_8
REMARK    7  A    between atoms: C_11  and  C_12
REMARK    8  A    between atoms: C_17  and  C_18
REMARK    9  A    between atoms: C_24  and  O_25
REMARK   10  A    between atoms: O_25  and  C_26
REMARK                            x       y       z     vdW  Elec       q    Type
REMARK                         _______ _______ _______ _____ _____    ______ ____
ROOT
ATOM      1  N   UNL     1      -9.782   5.679 131.233  0.00  0.00    +0.000 N 
ATOM      2  C   UNL     1      -9.955   4.308 130.820  0.00  0.00    +0.000 C 
ATOM      3  O   UNL     1     -10.772   3.968 129.971  0.00  0.00    +0.000 OA
ENDROOT
BRANCH   2   4
ATOM      4  C   UNL     1      -9.129   3.180 131.359  0.00  0.00    +0.000 A 
ATOM      5  C   UNL     1      -9.335   2.685 132.630  0.00  0.00    +0.000 A 
ATOM      6  N   UNL     1      -8.408   1.919 133.263  0.00  0.00    +0.000 NA
ATOM      7  C   UNL     1      -7.349   1.481 132.534  0.00  0.00    +0.000 A 
ATOM      8  C   UNL     1      -7.266   1.821 131.191  0.00  0.00    +0.000 A 
ATOM      9  N   UNL     1      -8.107   2.712 130.589  0.00  0.00    +0.000 NA
BRANCH   7  10
ATOM     10  C   UNL     1      -6.396   0.577 133.214  0.00  0.00    +0.000 A 
ATOM     11  C   UNL     1      -5.214   1.067 133.817  0.00  0.00    +0.000 A 
ATOM     12  C   UNL     1      -4.268   0.199 134.377  0.00  0.00    +0.000 A 
ATOM     13  C   UNL     1      -4.490  -1.173 134.363  0.00  0.00    +0.000 A 
ATOM     14  C   UNL     1      -5.662  -1.679 133.807  0.00  0.00    +0.000 A 
ATOM     15  C   UNL     1      -6.618  -0.821 133.240  0.00  0.00    +0.000 A 
ATOM     16  C   UNL     1      -7.857  -1.421 132.626  0.00  0.00    +0.000 C 
ENDBRANCH   7  10
ENDBRANCH   2   4
BRANCH   1  17
ATOM     17  C   UNL     1     -10.724   6.654 130.697  0.00  0.00    +0.000 A 
ATOM     18  C   UNL     1     -11.985   6.846 131.263  0.00  0.00    +0.000 A 
ATOM     19  C   UNL     1     -12.858   7.818 130.759  0.00  0.00    +0.000 A 
ATOM     20  C   UNL     1     -12.478   8.574 129.663  0.00  0.00    +0.000 A 
ATOM     21  N   UNL     1     -11.288   8.389 129.058  0.00  0.00    +0.000 NA
ATOM     22  C   UNL     1     -10.441   7.461 129.592  0.00  0.00    +0.000 A 
BRANCH  20  23
ATOM     23  O   UNL     1     -13.240   9.560 129.096  0.00  0.00    +0.000 OA
ATOM     24  C   UNL     1     -13.414  10.749 129.858  0.00  0.00    +0.000 C 
ENDBRANCH  20  23
ENDBRANCH   1  17
BRANCH   1  25
ATOM     25  C   UNL     1      -8.735   6.280 132.158  0.00  0.00    +0.000 C 
BRANCH  25  26
ATOM     26  C   UNL     1      -7.319   6.301 131.622  0.00  0.00    +0.000 C 
BRANCH  26  28
ATOM     27  C   UNL     1      -5.403   7.202 130.739  0.00  0.00    +0.000 C 
ATOM     28  O   UNL     1      -6.849   7.308 130.741  0.00  0.00    +0.000 OA
ENDBRANCH  26  28
ENDBRANCH  25  26
ENDBRANCH   1  25
TORSDOF 7
ENDMDL
MODEL 6
REMARK VINA RESULT:      -6.9      5.908      8.317
REMARK  Name = CHEMBL1093365
REMARK  10 active torsions:
REMARK  status: ('A' for Active; 'I' for Inactive)
REMARK    1  A    between atoms: C_1  and  O_2
REMARK    2  A    between atoms: O_2  and  C_3
REMARK    3  A    between atoms: C_3  and  C_4
REMARK    4  A    between atoms: C_4  and  N_5
REMARK    5  A    between atoms: N_5  and  C_21
REMARK    6  A    between atoms: C_6  and  C_8
REMARK    7  A    between atoms: C_11  and  C_12
REMARK    8  A    between atoms: C_17  and  C_18
REMARK    9  A    between atoms: C_24  and  O_25
REMARK   10  A    between atoms: O_25  and  C_26
REMARK                            x       y       z     vdW  Elec       q    Type
REMARK                         _______ _______ _______ _____ _____    ______ ____
ROOT
ATOM      1  N   UNL     1      -6.426   3.237 125.162  0.00  0.00    +0.000 N 
ATOM      2  C   UNL     1      -6.887   4.282 126.044  0.00  0.00    +0.000 C 
ATOM      3  O   UNL     1      -7.294   5.364 125.636  0.00  0.00    +0.000 OA
ENDROOT
BRANCH   2   4
ATOM      4  C   UNL     1      -6.951   4.127 127.532  0.00  0.00    +0.000 A 
ATOM      5  C   UNL     1      -8.012   3.489 128.141  0.00  0.00    +0.000 A 
ATOM      6  N   UNL     1      -8.270   3.627 129.468  0.00  0.00    +0.000 NA
ATOM      7  C   UNL     1      -7.335   4.253 130.230  0.00  0.00    +0.000 A 
ATOM      8  C   UNL     1      -6.169   4.708 129.629  0.00  0.00    +0.000 A 
ATOM      9  N   UNL     1      -5.971   4.710 128.278  0.00  0.00    +0.000 NA
BRANCH   7  10
ATOM     10  C   UNL     1      -7.590   4.318 131.684  0.00  0.00    +0.000 A 
ATOM     11  C   UNL     1      -7.291   3.229 132.537  0.00  0.00    +0.000 A 
ATOM     12  C   UNL     1      -7.621   3.259 133.898  0.00  0.00    +0.000 A 
ATOM     13  C   UNL     1      -8.238   4.380 134.440  0.00  0.00    +0.000 A 
ATOM     14  C   UNL     1      -8.510   5.480 133.630  0.00  0.00    +0.000 A 
ATOM     15  C   UNL     1      -8.188   5.463 132.263  0.00  0.00    +0.000 A 
ATOM     16  C   UNL     1      -8.530   6.667 131.423  0.00  0.00    +0.000 C 
ENDBRANCH   7  10
ENDBRANCH   2   4
BRANCH   1  17
ATOM     17  C   UNL     1      -6.327   3.566 123.745  0.00  0.00    +0.000 A 
ATOM     18  C   UNL     1      -5.215   4.227 123.220  0.00  0.00    +0.000 A 
ATOM     19  C   UNL     1      -5.121   4.495 121.849  0.00  0.00    +0.000 A 
ATOM     20  C   UNL     1      -6.159   4.131 121.008  0.00  0.00    +0.000 A 
ATOM     21  N   UNL     1      -7.270   3.531 121.481  0.00  0.00    +0.000 NA
ATOM     22  C   UNL     1      -7.321   3.248 122.816  0.00  0.00    +0.000 A 
BRANCH  20  23
ATOM     23  O   UNL     1      -6.170   4.327 119.654  0.00  0.00    +0.000 OA
ATOM     24  C   UNL     1      -7.447   4.403 119.031  0.00  0.00    +0.000 C 
ENDBRANCH  20  23
ENDBRANCH   1  17
BRANCH   1  25
ATOM     25  C   UNL     1      -6.028   1.807 125.490  0.00  0.00    +0.000 C 
BRANCH  25  26
ATOM     26  C   UNL     1      -7.161   0.805 125.546  0.00  0.00    +0.000 C 
BRANCH  26  28
ATOM     27  C   UNL     1      -6.876  -0.579 123.739  0.00  0.00    +0.000 C 
ATOM     28  O   UNL     1      -6.997  -0.557 125.183  0.00  0.00    +0.000 OA
ENDBRANCH  26  28
ENDBRANCH  25  26
ENDBRANCH   1  25
TORSDOF 7
ENDMDL
MODEL 7
REMARK VINA RESULT:      -6.9      6.751      9.330
REMARK  Name = CHEMBL1093365
REMARK  10 active torsions:
REMARK  status: ('A' for Active; 'I' for Inactive)
REMARK    1  A    between atoms: C_1  and  O_2
REMARK    2  A    between atoms: O_2  and  C_3
REMARK    3  A    between atoms: C_3  and  C_4
REMARK    4  A    between atoms: C_4  and  N_5
REMARK    5  A    between atoms: N_5  and  C_21
REMARK    6  A    between atoms: C_6  and  C_8
REMARK    7  A    between atoms: C_11  and  C_12
REMARK    8  A    between atoms: C_17  and  C_18
REMARK    9  A    between atoms: C_24  and  O_25
REMARK   10  A    between atoms: O_25  and  C_26
REMARK                            x       y       z     vdW  Elec       q    Type
REMARK                         _______ _______ _______ _____ _____    ______ ____
ROOT
ATOM      1  N   UNL     1      -6.762   2.145 125.515  0.00  0.00    +0.000 N 
ATOM      2  C   UNL     1      -5.925   1.725 126.612  0.00  0.00    +0.000 C 
ATOM      3  O   UNL     1      -5.756   0.547 126.906  0.00  0.00    +0.000 OA
ENDROOT
BRANCH   2   4
ATOM      4  C   UNL     1      -5.154   2.684 127.466  0.00  0.00    +0.000 A 
ATOM      5  C   UNL     1      -3.776   2.734 127.421  0.00  0.00    +0.000 A 
ATOM      6  N   UNL     1      -3.045   3.330 128.399  0.00  0.00    +0.000 NA
ATOM      7  C   UNL     1      -3.714   4.056 129.332  0.00  0.00    +0.000 A 
ATOM      8  C   UNL     1      -5.095   4.165 129.241  0.00  0.00    +0.000 A 
ATOM      9  N   UNL     1      -5.847   3.449 128.355  0.00  0.00    +0.000 NA
BRANCH   7  10
ATOM     10  C   UNL     1      -2.898   4.768 130.338  0.00  0.00    +0.000 A 
ATOM     11  C   UNL     1      -2.760   4.280 131.659  0.00  0.00    +0.000 A 
ATOM     12  C   UNL     1      -2.065   5.005 132.635  0.00  0.00    +0.000 A 
ATOM     13  C   UNL     1      -1.477   6.223 132.310  0.00  0.00    +0.000 A 
ATOM     14  C   UNL     1      -1.567   6.708 131.008  0.00  0.00    +0.000 A 
ATOM     15  C   UNL     1      -2.263   5.993 130.020  0.00  0.00    +0.000 A 
ATOM     16  C   UNL     1      -2.356   6.576 128.633  0.00  0.00    +0.000 C 
ENDBRANCH   7  10
ENDBRANCH   2   4
BRANCH   1  17
ATOM     17  C   UNL     1      -7.529   1.107 124.836  0.00  0.00    +0.000 A 
ATOM     18  C   UNL     1      -6.989   0.364 123.785  0.00  0.00    +0.000 A 
ATOM     19  C   UNL     1      -7.727  -0.658 123.174  0.00  0.00    +0.000 A 
ATOM     20  C   UNL     1      -9.022  -0.910 123.596  0.00  0.00    +0.000 A 
ATOM     21  N   UNL     1      -9.597  -0.186 124.577  0.00  0.00    +0.000 NA
ATOM     22  C   UNL     1      -8.842   0.779 125.180  0.00  0.00    +0.000 A 
BRANCH  20  23
ATOM     23  O   UNL     1      -9.830  -1.890 123.086  0.00  0.00    +0.000 OA
ATOM     24  C   UNL     1      -9.531  -3.227 123.471  0.00  0.00    +0.000 C 
ENDBRANCH  20  23
ENDBRANCH   1  17
BRANCH   1  25
ATOM     25  C   UNL     1      -6.965   3.537 124.937  0.00  0.00    +0.000 C 
BRANCH  25  26
ATOM     26  C   UNL     1      -5.907   4.005 123.961  0.00  0.00    +0.000 C 
BRANCH  26  28
ATOM     27  C   UNL     1      -4.929   4.505 121.947  0.00  0.00    +0.000 C 
ATOM     28  O   UNL     1      -5.947   3.689 122.579  0.00  0.00    +0.000 OA
ENDBRANCH  26  28
ENDBRANCH  25  26
ENDBRANCH   1  25
TORSDOF 7
ENDMDL
MODEL 8
REMARK VINA RESULT:      -6.9      1.622      2.322
REMARK  Name = CHEMBL1093365
REMARK  10 active torsions:
REMARK  status: ('A' for Active; 'I' for Inactive)
REMARK    1  A    between atoms: C_1  and  O_2
REMARK    2  A    between atoms: O_2  and  C_3
REMARK    3  A    between atoms: C_3  and  C_4
REMARK    4  A    between atoms: C_4  and  N_5
REMARK    5  A    between atoms: N_5  and  C_21
REMARK    6  A    between atoms: C_6  and  C_8
REMARK    7  A    between atoms: C_11  and  C_12
REMARK    8  A    between atoms: C_17  and  C_18
REMARK    9  A    between atoms: C_24  and  O_25
REMARK   10  A    between atoms: O_25  and  C_26
REMARK                            x       y       z     vdW  Elec       q    Type
REMARK                         _______ _______ _______ _____ _____    ______ ____
ROOT
ATOM      1  N   UNL     1      -9.193   4.251 131.160  0.00  0.00    +0.000 N 
ATOM      2  C   UNL     1      -9.095   3.103 130.292  0.00  0.00    +0.000 C 
ATOM      3  O   UNL     1      -9.502   3.108 129.136  0.00  0.00    +0.000 OA
ENDROOT
BRANCH   2   4
ATOM      4  C   UNL     1      -8.453   1.816 130.708  0.00  0.00    +0.000 A 
ATOM      5  C   UNL     1      -7.153   1.517 130.354  0.00  0.00    +0.000 A 
ATOM      6  N   UNL     1      -6.663   0.251 130.415  0.00  0.00    +0.000 NA
ATOM      7  C   UNL     1      -7.427  -0.691 131.028  0.00  0.00    +0.000 A 
ATOM      8  C   UNL     1      -8.652  -0.323 131.566  0.00  0.00    +0.000 A 
ATOM      9  N   UNL     1      -9.217   0.906 131.375  0.00  0.00    +0.000 NA
BRANCH   7  10
ATOM     10  C   UNL     1      -6.843  -2.042 131.163  0.00  0.00    +0.000 A 
ATOM     11  C   UNL     1      -6.075  -2.407 132.295  0.00  0.00    +0.000 A 
ATOM     12  C   UNL     1      -5.445  -3.655 132.376  0.00  0.00    +0.000 A 
ATOM     13  C   UNL     1      -5.582  -4.572 131.340  0.00  0.00    +0.000 A 
ATOM     14  C   UNL     1      -6.362  -4.252 130.231  0.00  0.00    +0.000 A 
ATOM     15  C   UNL     1      -6.997  -3.004 130.135  0.00  0.00    +0.000 A 
ATOM     16  C   UNL     1      -7.806  -2.695 128.901  0.00  0.00    +0.000 C 
ENDBRANCH   7  10
ENDBRANCH   2   4
BRANCH   1  17
ATOM     17  C   UNL     1      -9.931   5.401 130.652  0.00  0.00    +0.000 A 
ATOM     18  C   UNL     1     -11.311   5.523 130.824  0.00  0.00    +0.000 A 
ATOM     19  C   UNL     1     -11.995   6.656 130.367  0.00  0.00    +0.000 A 
ATOM     20  C   UNL     1     -11.298   7.653 129.704  0.00  0.00    +0.000 A 
ATOM     21  N   UNL     1      -9.973   7.554 129.478  0.00  0.00    +0.000 NA
ATOM     22  C   UNL     1      -9.325   6.456 129.966  0.00  0.00    +0.000 A 
BRANCH  20  23
ATOM     23  O   UNL     1     -11.857   8.809 129.229  0.00  0.00    +0.000 OA
ATOM     24  C   UNL     1     -13.051   8.673 128.467  0.00  0.00    +0.000 C 
ENDBRANCH  20  23
ENDBRANCH   1  17
BRANCH   1  25
ATOM     25  C   UNL     1      -8.620   4.456 132.554  0.00  0.00    +0.000 C 
BRANCH  25  26
ATOM     26  C   UNL     1      -7.123   4.669 132.626  0.00  0.00    +0.000 C 
BRANCH  26  28
ATOM     27  C   UNL     1      -7.024   2.753 133.882  0.00  0.00    +0.000 C 
ATOM     28  O   UNL     1      -6.229   3.671 133.090  0.00  0.00    +0.000 OA
ENDBRANCH  26  28
ENDBRANCH  25  26
ENDBRANCH   1  25
TORSDOF 7
ENDMDL
MODEL 9
REMARK VINA RESULT:      -6.9      6.806      7.882
REMARK  Name = CHEMBL1093365
REMARK  10 active torsions:
REMARK  status: ('A' for Active; 'I' for Inactive)
REMARK    1  A    between atoms: C_1  and  O_2
REMARK    2  A    between atoms: O_2  and  C_3
REMARK    3  A    between atoms: C_3  and  C_4
REMARK    4  A    between atoms: C_4  and  N_5
REMARK    5  A    between atoms: N_5  and  C_21
REMARK    6  A    between atoms: C_6  and  C_8
REMARK    7  A    between atoms: C_11  and  C_12
REMARK    8  A    between atoms: C_17  and  C_18
REMARK    9  A    between atoms: C_24  and  O_25
REMARK   10  A    between atoms: O_25  and  C_26
REMARK                            x       y       z     vdW  Elec       q    Type
REMARK                         _______ _______ _______ _____ _____    ______ ____
ROOT
ATOM      1  N   UNL     1      -6.677   2.374 124.292  0.00  0.00    +0.000 N 
ATOM      2  C   UNL     1      -6.679   0.940 124.440  0.00  0.00    +0.000 C 
ATOM      3  O   UNL     1      -6.904   0.176 123.508  0.00  0.00    +0.000 OA
ENDROOT
BRANCH   2   4
ATOM      4  C   UNL     1      -6.365   0.250 125.732  0.00  0.00    +0.000 A 
ATOM      5  C   UNL     1      -5.330  -0.657 125.827  0.00  0.00    +0.000 A 
ATOM      6  N   UNL     1      -5.234  -1.534 126.860  0.00  0.00    +0.000 NA
ATOM      7  C   UNL     1      -6.077  -1.364 127.912  0.00  0.00    +0.000 A 
ATOM      8  C   UNL     1      -6.980  -0.310 127.890  0.00  0.00    +0.000 A 
ATOM      9  N   UNL     1      -7.187   0.479 126.795  0.00  0.00    +0.000 NA
BRANCH   7  10
ATOM     10  C   UNL     1      -5.901  -2.272 129.065  0.00  0.00    +0.000 A 
ATOM     11  C   UNL     1      -4.734  -2.238 129.863  0.00  0.00    +0.000 A 
ATOM     12  C   UNL     1      -4.530  -3.162 130.896  0.00  0.00    +0.000 A 
ATOM     13  C   UNL     1      -5.493  -4.127 131.165  0.00  0.00    +0.000 A 
ATOM     14  C   UNL     1      -6.667  -4.160 130.418  0.00  0.00    +0.000 A 
ATOM     15  C   UNL     1      -6.884  -3.242 129.378  0.00  0.00    +0.000 A 
ATOM     16  C   UNL     1      -8.159  -3.339 128.580  0.00  0.00    +0.000 C 
ENDBRANCH   7  10
ENDBRANCH   2   4
BRANCH   1  17
ATOM     17  C   UNL     1      -7.097   2.905 123.001  0.00  0.00    +0.000 A 
ATOM     18  C   UNL     1      -6.174   3.347 122.052  0.00  0.00    +0.000 A 
ATOM     19  C   UNL     1      -6.597   3.813 120.801  0.00  0.00    +0.000 A 
ATOM     20  C   UNL     1      -7.951   3.868 120.515  0.00  0.00    +0.000 A 
ATOM     21  N   UNL     1      -8.877   3.493 121.419  0.00  0.00    +0.000 NA
ATOM     22  C   UNL     1      -8.436   3.008 122.617  0.00  0.00    +0.000 A 
BRANCH  20  23
ATOM     23  O   UNL     1      -8.478   4.289 119.324  0.00  0.00    +0.000 OA
ATOM     24  C   UNL     1      -7.549   4.644 118.306  0.00  0.00    +0.000 C 
ENDBRANCH  20  23
ENDBRANCH   1  17
BRANCH   1  25
ATOM     25  C   UNL     1      -6.285   3.445 125.298  0.00  0.00    +0.000 C 
BRANCH  25  26
ATOM     26  C   UNL     1      -4.798   3.652 125.493  0.00  0.00    +0.000 C 
BRANCH  26  28
ATOM     27  C   UNL     1      -3.285   3.564 127.214  0.00  0.00    +0.000 C 
ATOM     28  O   UNL     1      -3.992   2.756 126.240  0.00  0.00    +0.000 OA
ENDBRANCH  26  28
ENDBRANCH  25  26
ENDBRANCH   1  25
TORSDOF 7
ENDMDL
