MODEL 1
REMARK VINA RESULT:      -7.7      0.000      0.000
REMARK  Name = CHEMBL512257
REMARK  8 active torsions:
REMARK  status: ('A' for Active; 'I' for Inactive)
REMARK    1  A    between atoms: C_1  and  O_2
REMARK    2  A    between atoms: O_2  and  C_3
REMARK    3  A    between atoms: C_3  and  C_4
REMARK    4  A    between atoms: C_7  and  C_8
REMARK    5  A    between atoms: C_11  and  C_12
REMARK    6  A    between atoms: N_20  and  C_21
REMARK    7  A    between atoms: C_24  and  O_25
REMARK    8  A    between atoms: O_25  and  C_26
REMARK                            x       y       z     vdW  Elec       q    Type
REMARK                         _______ _______ _______ _____ _____    ______ ____
ROOT
ATOM      1  C   UNL     1      -6.766   2.378 132.901  0.00  0.00    +0.000 A 
ATOM      2  N   UNL     1      -7.713   1.566 133.340  0.00  0.00    +0.000 NA
ATOM      3  N   UNL     1      -8.942   2.134 133.060  0.00  0.00    +0.000 NA
ATOM      4  C   UNL     1      -8.741   3.284 132.437  0.00  0.00    +0.000 A 
ATOM      5  N   UNL     1      -7.375   3.481 132.344  0.00  0.00    +0.000 N 
ENDROOT
BRANCH   4   6
ATOM      6  C   UNL     1      -9.724   4.169 131.805  0.00  0.00    +0.000 A 
ATOM      7  C   UNL     1     -10.266   3.885 130.549  0.00  0.00    +0.000 A 
ATOM      8  N   UNL     1     -11.040   4.753 129.843  0.00  0.00    +0.000 NA
ATOM      9  C   UNL     1     -11.255   5.954 130.431  0.00  0.00    +0.000 A 
ATOM     10  C   UNL     1     -10.723   6.230 131.693  0.00  0.00    +0.000 A 
ATOM     11  N   UNL     1      -9.947   5.362 132.402  0.00  0.00    +0.000 NA
BRANCH   9  12
ATOM     12  C   UNL     1     -12.122   6.910 129.731  0.00  0.00    +0.000 A 
ATOM     13  C   UNL     1     -13.012   6.492 128.725  0.00  0.00    +0.000 A 
ATOM     14  C   UNL     1     -13.702   7.422 127.942  0.00  0.00    +0.000 A 
ATOM     15  C   UNL     1     -13.564   8.785 128.194  0.00  0.00    +0.000 A 
ATOM     16  C   UNL     1     -12.730   9.218 129.222  0.00  0.00    +0.000 A 
ATOM     17  C   UNL     1     -12.016   8.288 129.984  0.00  0.00    +0.000 A 
ENDBRANCH   9  12
ENDBRANCH   4   6
BRANCH   5  18
ATOM     18  C   UNL     1      -6.761   4.568 131.710  0.00  0.00    +0.000 A 
ATOM     19  C   UNL     1      -6.365   5.671 132.452  0.00  0.00    +0.000 A 
ATOM     20  C   UNL     1      -5.714   6.697 131.784  0.00  0.00    +0.000 A 
ATOM     21  C   UNL     1      -5.489   6.579 130.413  0.00  0.00    +0.000 A 
ATOM     22  N   UNL     1      -5.874   5.502 129.695  0.00  0.00    +0.000 NA
ATOM     23  C   UNL     1      -6.504   4.509 130.352  0.00  0.00    +0.000 A 
BRANCH  21  24
ATOM     24  O   UNL     1      -4.863   7.524 129.651  0.00  0.00    +0.000 OA
ATOM     25  C   UNL     1      -3.677   7.107 128.995  0.00  0.00    +0.000 C 
ENDBRANCH  21  24
ENDBRANCH   5  18
BRANCH   1  26
ATOM     26  C   UNL     1      -5.285   2.169 133.016  0.00  0.00    +0.000 C 
BRANCH  26  28
ATOM     27  C   UNL     1      -4.436   1.477 130.906  0.00  0.00    +0.000 C 
ATOM     28  O   UNL     1      -4.901   1.070 132.186  0.00  0.00    +0.000 OA
ENDBRANCH  26  28
ENDBRANCH   1  26
TORSDOF 6
ENDMDL
MODEL 2
REMARK VINA RESULT:      -7.5      1.727      2.166
REMARK  Name = CHEMBL512257
REMARK  8 active torsions:
REMARK  status: ('A' for Active; 'I' for Inactive)
REMARK    1  A    between atoms: C_1  and  O_2
REMARK    2  A    between atoms: O_2  and  C_3
REMARK    3  A    between atoms: C_3  and  C_4
REMARK    4  A    between atoms: C_7  and  C_8
REMARK    5  A    between atoms: C_11  and  C_12
REMARK    6  A    between atoms: N_20  and  C_21
REMARK    7  A    between atoms: C_24  and  O_25
REMARK    8  A    between atoms: O_25  and  C_26
REMARK                            x       y       z     vdW  Elec       q    Type
REMARK                         _______ _______ _______ _____ _____    ______ ____
ROOT
ATOM      1  C   UNL     1      -7.170   1.762 132.221  0.00  0.00    +0.000 A 
ATOM      2  N   UNL     1      -7.877   1.634 133.331  0.00  0.00    +0.000 NA
ATOM      3  N   UNL     1      -8.914   2.549 133.299  0.00  0.00    +0.000 NA
ATOM      4  C   UNL     1      -8.844   3.222 132.162  0.00  0.00    +0.000 A 
ATOM      5  N   UNL     1      -7.736   2.768 131.469  0.00  0.00    +0.000 N 
ENDROOT
BRANCH   4   6
ATOM      6  C   UNL     1      -9.802   4.181 131.604  0.00  0.00    +0.000 A 
ATOM      7  C   UNL     1     -10.733   3.806 130.631  0.00  0.00    +0.000 A 
ATOM      8  N   UNL     1     -11.519   4.686 129.955  0.00  0.00    +0.000 NA
ATOM      9  C   UNL     1     -11.341   5.991 130.271  0.00  0.00    +0.000 A 
ATOM     10  C   UNL     1     -10.419   6.361 131.253  0.00  0.00    +0.000 A 
ATOM     11  N   UNL     1      -9.629   5.481 131.932  0.00  0.00    +0.000 NA
BRANCH   9  12
ATOM     12  C   UNL     1     -12.198   6.978 129.602  0.00  0.00    +0.000 A 
ATOM     13  C   UNL     1     -12.988   6.629 128.492  0.00  0.00    +0.000 A 
ATOM     14  C   UNL     1     -13.662   7.606 127.754  0.00  0.00    +0.000 A 
ATOM     15  C   UNL     1     -13.609   8.941 128.150  0.00  0.00    +0.000 A 
ATOM     16  C   UNL     1     -12.877   9.299 129.278  0.00  0.00    +0.000 A 
ATOM     17  C   UNL     1     -12.178   8.326 129.999  0.00  0.00    +0.000 A 
ENDBRANCH   9  12
ENDBRANCH   4   6
BRANCH   5  18
ATOM     18  C   UNL     1      -7.348   3.207 130.197  0.00  0.00    +0.000 A 
ATOM     19  C   UNL     1      -7.804   2.546 129.066  0.00  0.00    +0.000 A 
ATOM     20  C   UNL     1      -7.434   3.054 127.830  0.00  0.00    +0.000 A 
ATOM     21  C   UNL     1      -6.628   4.189 127.777  0.00  0.00    +0.000 A 
ATOM     22  N   UNL     1      -6.189   4.832 128.881  0.00  0.00    +0.000 NA
ATOM     23  C   UNL     1      -6.554   4.334 130.077  0.00  0.00    +0.000 A 
BRANCH  21  24
ATOM     24  O   UNL     1      -6.198   4.776 126.620  0.00  0.00    +0.000 OA
ATOM     25  C   UNL     1      -4.816   4.642 126.332  0.00  0.00    +0.000 C 
ENDBRANCH  21  24
ENDBRANCH   5  18
BRANCH   1  26
ATOM     26  C   UNL     1      -5.941   0.987 131.849  0.00  0.00    +0.000 C 
BRANCH  26  28
ATOM     27  C   UNL     1      -7.042  -0.765 130.678  0.00  0.00    +0.000 C 
ATOM     28  O   UNL     1      -6.261  -0.406 131.809  0.00  0.00    +0.000 OA
ENDBRANCH  26  28
ENDBRANCH   1  26
TORSDOF 6
ENDMDL
MODEL 3
REMARK VINA RESULT:      -7.4      6.635      9.106
REMARK  Name = CHEMBL512257
REMARK  8 active torsions:
REMARK  status: ('A' for Active; 'I' for Inactive)
REMARK    1  A    between atoms: C_1  and  O_2
REMARK    2  A    between atoms: O_2  and  C_3
REMARK    3  A    between atoms: C_3  and  C_4
REMARK    4  A    between atoms: C_7  and  C_8
REMARK    5  A    between atoms: C_11  and  C_12
REMARK    6  A    between atoms: N_20  and  C_21
REMARK    7  A    between atoms: C_24  and  O_25
REMARK    8  A    between atoms: O_25  and  C_26
REMARK                            x       y       z     vdW  Elec       q    Type
REMARK                         _______ _______ _______ _____ _____    ______ ____
ROOT
ATOM      1  C   UNL     1      -5.910   3.733 122.241  0.00  0.00    +0.000 A 
ATOM      2  N   UNL     1      -5.208   4.755 122.701  0.00  0.00    +0.000 NA
ATOM      3  N   UNL     1      -5.550   4.963 124.025  0.00  0.00    +0.000 NA
ATOM      4  C   UNL     1      -6.450   4.057 124.372  0.00  0.00    +0.000 A 
ATOM      5  N   UNL     1      -6.720   3.280 123.260  0.00  0.00    +0.000 N 
ENDROOT
BRANCH   4   6
ATOM      6  C   UNL     1      -6.998   3.772 125.702  0.00  0.00    +0.000 A 
ATOM      7  C   UNL     1      -7.971   4.589 126.284  0.00  0.00    +0.000 A 
ATOM      8  N   UNL     1      -8.382   4.476 127.576  0.00  0.00    +0.000 NA
ATOM      9  C   UNL     1      -7.769   3.509 128.301  0.00  0.00    +0.000 A 
ATOM     10  C   UNL     1      -6.806   2.686 127.712  0.00  0.00    +0.000 A 
ATOM     11  N   UNL     1      -6.393   2.797 126.417  0.00  0.00    +0.000 NA
BRANCH   9  12
ATOM     12  C   UNL     1      -8.209   3.316 129.688  0.00  0.00    +0.000 A 
ATOM     13  C   UNL     1      -7.286   3.256 130.747  0.00  0.00    +0.000 A 
ATOM     14  C   UNL     1      -7.691   2.897 132.036  0.00  0.00    +0.000 A 
ATOM     15  C   UNL     1      -9.037   2.653 132.302  0.00  0.00    +0.000 A 
ATOM     16  C   UNL     1      -9.975   2.760 131.278  0.00  0.00    +0.000 A 
ATOM     17  C   UNL     1      -9.564   3.090 129.983  0.00  0.00    +0.000 A 
ENDBRANCH   9  12
ENDBRANCH   4   6
BRANCH   5  18
ATOM     18  C   UNL     1      -7.590   2.185 123.237  0.00  0.00    +0.000 A 
ATOM     19  C   UNL     1      -8.937   2.374 122.964  0.00  0.00    +0.000 A 
ATOM     20  C   UNL     1      -9.746   1.249 122.901  0.00  0.00    +0.000 A 
ATOM     21  C   UNL     1      -9.181  -0.007 123.113  0.00  0.00    +0.000 A 
ATOM     22  N   UNL     1      -7.868  -0.187 123.376  0.00  0.00    +0.000 NA
ATOM     23  C   UNL     1      -7.089   0.910 123.433  0.00  0.00    +0.000 A 
BRANCH  21  24
ATOM     24  O   UNL     1      -9.877  -1.182 123.079  0.00  0.00    +0.000 OA
ATOM     25  C   UNL     1      -9.119  -2.360 123.300  0.00  0.00    +0.000 C 
ENDBRANCH  21  24
ENDBRANCH   5  18
BRANCH   1  26
ATOM     26  C   UNL     1      -5.874   3.178 120.848  0.00  0.00    +0.000 C 
BRANCH  26  28
ATOM     27  C   UNL     1      -7.734   4.166 119.743  0.00  0.00    +0.000 C 
ATOM     28  O   UNL     1      -6.326   4.181 119.934  0.00  0.00    +0.000 OA
ENDBRANCH  26  28
ENDBRANCH   1  26
TORSDOF 6
ENDMDL
MODEL 4
REMARK VINA RESULT:      -7.2      6.788      9.605
REMARK  Name = CHEMBL512257
REMARK  8 active torsions:
REMARK  status: ('A' for Active; 'I' for Inactive)
REMARK    1  A    between atoms: C_1  and  O_2
REMARK    2  A    between atoms: O_2  and  C_3
REMARK    3  A    between atoms: C_3  and  C_4
REMARK    4  A    between atoms: C_7  and  C_8
REMARK    5  A    between atoms: C_11  and  C_12
REMARK    6  A    between atoms: N_20  and  C_21
REMARK    7  A    between atoms: C_24  and  O_25
REMARK    8  A    between atoms: O_25  and  C_26
REMARK                            x       y       z     vdW  Elec       q    Type
REMARK                         _______ _______ _______ _____ _____    ______ ____
ROOT
ATOM      1  C   UNL     1      -6.326   3.445 122.605  0.00  0.00    +0.000 A 
ATOM      2  N   UNL     1      -5.716   4.474 123.169  0.00  0.00    +0.000 NA
ATOM      3  N   UNL     1      -5.896   4.395 124.538  0.00  0.00    +0.000 NA
ATOM      4  C   UNL     1      -6.604   3.309 124.805  0.00  0.00    +0.000 A 
ATOM      5  N   UNL     1      -6.916   2.700 123.603  0.00  0.00    +0.000 N 
ENDROOT
BRANCH   4   6
ATOM      6  C   UNL     1      -6.917   2.716 126.109  0.00  0.00    +0.000 A 
ATOM      7  C   UNL     1      -6.037   1.837 126.745  0.00  0.00    +0.000 A 
ATOM      8  N   UNL     1      -6.351   1.125 127.861  0.00  0.00    +0.000 NA
ATOM      9  C   UNL     1      -7.607   1.305 128.334  0.00  0.00    +0.000 A 
ATOM     10  C   UNL     1      -8.480   2.195 127.703  0.00  0.00    +0.000 A 
ATOM     11  N   UNL     1      -8.168   2.910 126.585  0.00  0.00    +0.000 NA
BRANCH   9  12
ATOM     12  C   UNL     1      -7.981   0.595 129.563  0.00  0.00    +0.000 A 
ATOM     13  C   UNL     1      -8.634   1.253 130.621  0.00  0.00    +0.000 A 
ATOM     14  C   UNL     1      -8.828   0.621 131.852  0.00  0.00    +0.000 A 
ATOM     15  C   UNL     1      -8.430  -0.703 132.027  0.00  0.00    +0.000 A 
ATOM     16  C   UNL     1      -7.831  -1.390 130.975  0.00  0.00    +0.000 A 
ATOM     17  C   UNL     1      -7.610  -0.747 129.753  0.00  0.00    +0.000 A 
ENDBRANCH   9  12
ENDBRANCH   4   6
BRANCH   5  18
ATOM     18  C   UNL     1      -7.620   1.498 123.469  0.00  0.00    +0.000 A 
ATOM     19  C   UNL     1      -6.937   0.291 123.461  0.00  0.00    +0.000 A 
ATOM     20  C   UNL     1      -7.687  -0.873 123.380  0.00  0.00    +0.000 A 
ATOM     21  C   UNL     1      -9.076  -0.782 123.309  0.00  0.00    +0.000 A 
ATOM     22  N   UNL     1      -9.737   0.396 123.321  0.00  0.00    +0.000 NA
ATOM     23  C   UNL     1      -9.002   1.521 123.402  0.00  0.00    +0.000 A 
BRANCH  21  24
ATOM     24  O   UNL     1      -9.916  -1.857 123.223  0.00  0.00    +0.000 OA
ATOM     25  C   UNL     1      -9.312  -3.131 123.374  0.00  0.00    +0.000 C 
ENDBRANCH  21  24
ENDBRANCH   5  18
BRANCH   1  26
ATOM     26  C   UNL     1      -6.408   3.150 121.137  0.00  0.00    +0.000 C 
BRANCH  26  28
ATOM     27  C   UNL     1      -8.606   3.831 120.537  0.00  0.00    +0.000 C 
ATOM     28  O   UNL     1      -7.220   4.143 120.504  0.00  0.00    +0.000 OA
ENDBRANCH  26  28
ENDBRANCH   1  26
TORSDOF 6
ENDMDL
MODEL 5
REMARK VINA RESULT:      -7.2      7.527      9.010
REMARK  Name = CHEMBL512257
REMARK  8 active torsions:
REMARK  status: ('A' for Active; 'I' for Inactive)
REMARK    1  A    between atoms: C_1  and  O_2
REMARK    2  A    between atoms: O_2  and  C_3
REMARK    3  A    between atoms: C_3  and  C_4
REMARK    4  A    between atoms: C_7  and  C_8
REMARK    5  A    between atoms: C_11  and  C_12
REMARK    6  A    between atoms: N_20  and  C_21
REMARK    7  A    between atoms: C_24  and  O_25
REMARK    8  A    between atoms: O_25  and  C_26
REMARK                            x       y       z     vdW  Elec       q    Type
REMARK                         _______ _______ _______ _____ _____    ______ ____
ROOT
ATOM      1  C   UNL     1      -7.882   0.480 128.229  0.00  0.00    +0.000 A 
ATOM      2  N   UNL     1      -8.232   1.714 128.554  0.00  0.00    +0.000 NA
ATOM      3  N   UNL     1      -8.181   2.498 127.416  0.00  0.00    +0.000 NA
ATOM      4  C   UNL     1      -7.814   1.737 126.398  0.00  0.00    +0.000 A 
ATOM      5  N   UNL     1      -7.590   0.461 126.883  0.00  0.00    +0.000 N 
ENDROOT
BRANCH   4   6
ATOM      6  C   UNL     1      -7.769   2.073 124.972  0.00  0.00    +0.000 A 
ATOM      7  C   UNL     1      -6.628   2.625 124.383  0.00  0.00    +0.000 A 
ATOM      8  N   UNL     1      -6.591   3.118 123.116  0.00  0.00    +0.000 NA
ATOM      9  C   UNL     1      -7.759   3.059 122.432  0.00  0.00    +0.000 A 
ATOM     10  C   UNL     1      -8.895   2.496 123.019  0.00  0.00    +0.000 A 
ATOM     11  N   UNL     1      -8.934   2.001 124.289  0.00  0.00    +0.000 NA
BRANCH   9  12
ATOM     12  C   UNL     1      -7.761   3.536 121.044  0.00  0.00    +0.000 A 
ATOM     13  C   UNL     1      -6.569   3.901 120.393  0.00  0.00    +0.000 A 
ATOM     14  C   UNL     1      -6.593   4.519 119.139  0.00  0.00    +0.000 A 
ATOM     15  C   UNL     1      -7.806   4.725 118.486  0.00  0.00    +0.000 A 
ATOM     16  C   UNL     1      -8.994   4.321 119.090  0.00  0.00    +0.000 A 
ATOM     17  C   UNL     1      -8.971   3.731 120.357  0.00  0.00    +0.000 A 
ENDBRANCH   9  12
ENDBRANCH   4   6
BRANCH   5  18
ATOM     18  C   UNL     1      -7.228  -0.643 126.102  0.00  0.00    +0.000 A 
ATOM     19  C   UNL     1      -8.204  -1.383 125.452  0.00  0.00    +0.000 A 
ATOM     20  C   UNL     1      -7.787  -2.434 124.648  0.00  0.00    +0.000 A 
ATOM     21  C   UNL     1      -6.424  -2.700 124.531  0.00  0.00    +0.000 A 
ATOM     22  N   UNL     1      -5.476  -1.974 125.164  0.00  0.00    +0.000 NA
ATOM     23  C   UNL     1      -5.889  -0.955 125.940  0.00  0.00    +0.000 A 
BRANCH  21  24
ATOM     24  O   UNL     1      -5.897  -3.708 123.774  0.00  0.00    +0.000 OA
ATOM     25  C   UNL     1      -4.500  -3.916 123.901  0.00  0.00    +0.000 C 
ENDBRANCH  21  24
ENDBRANCH   5  18
BRANCH   1  26
ATOM     26  C   UNL     1      -7.774  -0.693 129.157  0.00  0.00    +0.000 C 
BRANCH  26  28
ATOM     27  C   UNL     1      -6.233  -1.809 130.584  0.00  0.00    +0.000 C 
ATOM     28  O   UNL     1      -6.405  -0.870 129.531  0.00  0.00    +0.000 OA
ENDBRANCH  26  28
ENDBRANCH   1  26
TORSDOF 6
ENDMDL
MODEL 6
REMARK VINA RESULT:      -7.0      4.587      7.992
REMARK  Name = CHEMBL512257
REMARK  8 active torsions:
REMARK  status: ('A' for Active; 'I' for Inactive)
REMARK    1  A    between atoms: C_1  and  O_2
REMARK    2  A    between atoms: O_2  and  C_3
REMARK    3  A    between atoms: C_3  and  C_4
REMARK    4  A    between atoms: C_7  and  C_8
REMARK    5  A    between atoms: C_11  and  C_12
REMARK    6  A    between atoms: N_20  and  C_21
REMARK    7  A    between atoms: C_24  and  O_25
REMARK    8  A    between atoms: O_25  and  C_26
REMARK                            x       y       z     vdW  Elec       q    Type
REMARK                         _______ _______ _______ _____ _____    ______ ____
ROOT
ATOM      1  C   UNL     1      -8.921   5.162 130.304  0.00  0.00    +0.000 A 
ATOM      2  N   UNL     1      -8.982   5.884 129.198  0.00  0.00    +0.000 NA
ATOM      3  N   UNL     1      -8.545   5.105 128.142  0.00  0.00    +0.000 NA
ATOM      4  C   UNL     1      -8.232   3.906 128.606  0.00  0.00    +0.000 A 
ATOM      5  N   UNL     1      -8.433   3.917 129.974  0.00  0.00    +0.000 N 
ENDROOT
BRANCH   4   6
ATOM      6  C   UNL     1      -7.872   2.698 127.857  0.00  0.00    +0.000 A 
ATOM      7  C   UNL     1      -6.548   2.416 127.513  0.00  0.00    +0.000 A 
ATOM      8  N   UNL     1      -6.181   1.411 126.672  0.00  0.00    +0.000 NA
ATOM      9  C   UNL     1      -7.198   0.682 126.155  0.00  0.00    +0.000 A 
ATOM     10  C   UNL     1      -8.520   0.959 126.511  0.00  0.00    +0.000 A 
ATOM     11  N   UNL     1      -8.891   1.965 127.353  0.00  0.00    +0.000 NA
BRANCH   9  12
ATOM     12  C   UNL     1      -6.852  -0.443 125.277  0.00  0.00    +0.000 A 
ATOM     13  C   UNL     1      -5.652  -1.159 125.441  0.00  0.00    +0.000 A 
ATOM     14  C   UNL     1      -5.246  -2.108 124.500  0.00  0.00    +0.000 A 
ATOM     15  C   UNL     1      -6.063  -2.406 123.411  0.00  0.00    +0.000 A 
ATOM     16  C   UNL     1      -7.281  -1.748 123.260  0.00  0.00    +0.000 A 
ATOM     17  C   UNL     1      -7.673  -0.776 124.186  0.00  0.00    +0.000 A 
ENDBRANCH   9  12
ENDBRANCH   4   6
BRANCH   5  18
ATOM     18  C   UNL     1      -8.253   2.817 130.821  0.00  0.00    +0.000 A 
ATOM     19  C   UNL     1      -9.315   1.965 131.087  0.00  0.00    +0.000 A 
ATOM     20  C   UNL     1      -9.071   0.861 131.889  0.00  0.00    +0.000 A 
ATOM     21  C   UNL     1      -7.786   0.657 132.391  0.00  0.00    +0.000 A 
ATOM     22  N   UNL     1      -6.754   1.488 132.127  0.00  0.00    +0.000 NA
ATOM     23  C   UNL     1      -7.000   2.556 131.346  0.00  0.00    +0.000 A 
BRANCH  21  24
ATOM     24  O   UNL     1      -7.428  -0.390 133.192  0.00  0.00    +0.000 OA
ATOM     25  C   UNL     1      -7.642  -1.685 132.655  0.00  0.00    +0.000 C 
ENDBRANCH  21  24
ENDBRANCH   5  18
BRANCH   1  26
ATOM     26  C   UNL     1      -9.277   5.616 131.689  0.00  0.00    +0.000 C 
BRANCH  26  28
ATOM     27  C   UNL     1     -11.494   6.465 131.828  0.00  0.00    +0.000 C 
ATOM     28  O   UNL     1     -10.124   6.765 131.601  0.00  0.00    +0.000 OA
ENDBRANCH  26  28
ENDBRANCH   1  26
TORSDOF 6
ENDMDL
MODEL 7
REMARK VINA RESULT:      -6.8      4.250      6.266
REMARK  Name = CHEMBL512257
REMARK  8 active torsions:
REMARK  status: ('A' for Active; 'I' for Inactive)
REMARK    1  A    between atoms: C_1  and  O_2
REMARK    2  A    between atoms: O_2  and  C_3
REMARK    3  A    between atoms: C_3  and  C_4
REMARK    4  A    between atoms: C_7  and  C_8
REMARK    5  A    between atoms: C_11  and  C_12
REMARK    6  A    between atoms: N_20  and  C_21
REMARK    7  A    between atoms: C_24  and  O_25
REMARK    8  A    between atoms: O_25  and  C_26
REMARK                            x       y       z     vdW  Elec       q    Type
REMARK                         _______ _______ _______ _____ _____    ______ ____
ROOT
ATOM      1  C   UNL     1      -7.881   4.577 132.477  0.00  0.00    +0.000 A 
ATOM      2  N   UNL     1      -6.790   3.831 132.524  0.00  0.00    +0.000 NA
ATOM      3  N   UNL     1      -6.485   3.417 131.241  0.00  0.00    +0.000 NA
ATOM      4  C   UNL     1      -7.384   3.924 130.412  0.00  0.00    +0.000 A 
ATOM      5  N   UNL     1      -8.297   4.641 131.165  0.00  0.00    +0.000 N 
ENDROOT
BRANCH   4   6
ATOM      6  C   UNL     1      -7.397   3.898 128.946  0.00  0.00    +0.000 A 
ATOM      7  C   UNL     1      -8.238   3.039 128.235  0.00  0.00    +0.000 A 
ATOM      8  N   UNL     1      -8.165   2.846 126.891  0.00  0.00    +0.000 NA
ATOM      9  C   UNL     1      -7.193   3.542 126.254  0.00  0.00    +0.000 A 
ATOM     10  C   UNL     1      -6.362   4.410 126.966  0.00  0.00    +0.000 A 
ATOM     11  N   UNL     1      -6.433   4.604 128.313  0.00  0.00    +0.000 NA
BRANCH   9  12
ATOM     12  C   UNL     1      -7.101   3.404 124.795  0.00  0.00    +0.000 A 
ATOM     13  C   UNL     1      -5.947   3.796 124.094  0.00  0.00    +0.000 A 
ATOM     14  C   UNL     1      -5.930   3.829 122.696  0.00  0.00    +0.000 A 
ATOM     15  C   UNL     1      -7.046   3.410 121.975  0.00  0.00    +0.000 A 
ATOM     16  C   UNL     1      -8.180   2.966 122.650  0.00  0.00    +0.000 A 
ATOM     17  C   UNL     1      -8.206   2.962 124.048  0.00  0.00    +0.000 A 
ENDBRANCH   9  12
ENDBRANCH   4   6
BRANCH   5  18
ATOM     18  C   UNL     1      -9.377   5.363 130.644  0.00  0.00    +0.000 A 
ATOM     19  C   UNL     1      -9.222   6.702 130.316  0.00  0.00    +0.000 A 
ATOM     20  C   UNL     1     -10.307   7.357 129.754  0.00  0.00    +0.000 A 
ATOM     21  C   UNL     1     -11.493   6.654 129.548  0.00  0.00    +0.000 A 
ATOM     22  N   UNL     1     -11.638   5.349 129.866  0.00  0.00    +0.000 NA
ATOM     23  C   UNL     1     -10.579   4.720 130.409  0.00  0.00    +0.000 A 
BRANCH  21  24
ATOM     24  O   UNL     1     -12.625   7.193 129.006  0.00  0.00    +0.000 OA
ATOM     25  C   UNL     1     -12.467   7.848 127.758  0.00  0.00    +0.000 C 
ENDBRANCH  21  24
ENDBRANCH   5  18
BRANCH   1  26
ATOM     26  C   UNL     1      -8.581   5.214 133.641  0.00  0.00    +0.000 C 
BRANCH  26  28
ATOM     27  C   UNL     1      -7.429   5.624 135.681  0.00  0.00    +0.000 C 
ATOM     28  O   UNL     1      -8.067   4.660 134.855  0.00  0.00    +0.000 OA
ENDBRANCH  26  28
ENDBRANCH   1  26
TORSDOF 6
ENDMDL
MODEL 8
REMARK VINA RESULT:      -6.8      3.843      4.503
REMARK  Name = CHEMBL512257
REMARK  8 active torsions:
REMARK  status: ('A' for Active; 'I' for Inactive)
REMARK    1  A    between atoms: C_1  and  O_2
REMARK    2  A    between atoms: O_2  and  C_3
REMARK    3  A    between atoms: C_3  and  C_4
REMARK    4  A    between atoms: C_7  and  C_8
REMARK    5  A    between atoms: C_11  and  C_12
REMARK    6  A    between atoms: N_20  and  C_21
REMARK    7  A    between atoms: C_24  and  O_25
REMARK    8  A    between atoms: O_25  and  C_26
REMARK                            x       y       z     vdW  Elec       q    Type
REMARK                         _______ _______ _______ _____ _____    ______ ____
ROOT
ATOM      1  C   UNL     1      -6.663   0.312 129.279  0.00  0.00    +0.000 A 
ATOM      2  N   UNL     1      -6.590   0.204 130.595  0.00  0.00    +0.000 NA
ATOM      3  N   UNL     1      -7.199   1.310 131.160  0.00  0.00    +0.000 NA
ATOM      4  C   UNL     1      -7.654   2.082 130.185  0.00  0.00    +0.000 A 
ATOM      5  N   UNL     1      -7.307   1.493 128.983  0.00  0.00    +0.000 N 
ENDROOT
BRANCH   4   6
ATOM      6  C   UNL     1      -8.500   3.275 130.281  0.00  0.00    +0.000 A 
ATOM      7  C   UNL     1      -9.892   3.197 130.190  0.00  0.00    +0.000 A 
ATOM      8  N   UNL     1     -10.709   4.280 130.093  0.00  0.00    +0.000 NA
ATOM      9  C   UNL     1     -10.083   5.482 130.074  0.00  0.00    +0.000 A 
ATOM     10  C   UNL     1      -8.692   5.557 130.177  0.00  0.00    +0.000 A 
ATOM     11  N   UNL     1      -7.872   4.473 130.275  0.00  0.00    +0.000 NA
BRANCH   9  12
ATOM     12  C   UNL     1     -10.922   6.685 130.016  0.00  0.00    +0.000 A 
ATOM     13  C   UNL     1     -11.928   6.923 130.970  0.00  0.00    +0.000 A 
ATOM     14  C   UNL     1     -12.836   7.974 130.811  0.00  0.00    +0.000 A 
ATOM     15  C   UNL     1     -12.715   8.844 129.730  0.00  0.00    +0.000 A 
ATOM     16  C   UNL     1     -11.691   8.659 128.804  0.00  0.00    +0.000 A 
ATOM     17  C   UNL     1     -10.802   7.589 128.947  0.00  0.00    +0.000 A 
ENDBRANCH   9  12
ENDBRANCH   4   6
BRANCH   5  18
ATOM     18  C   UNL     1      -7.650   1.986 127.719  0.00  0.00    +0.000 A 
ATOM     19  C   UNL     1      -6.862   2.955 127.115  0.00  0.00    +0.000 A 
ATOM     20  C   UNL     1      -7.215   3.371 125.840  0.00  0.00    +0.000 A 
ATOM     21  C   UNL     1      -8.333   2.808 125.228  0.00  0.00    +0.000 A 
ATOM     22  N   UNL     1      -9.096   1.862 125.818  0.00  0.00    +0.000 NA
ATOM     23  C   UNL     1      -8.745   1.463 127.055  0.00  0.00    +0.000 A 
BRANCH  21  24
ATOM     24  O   UNL     1      -8.778   3.140 123.980  0.00  0.00    +0.000 OA
ATOM     25  C   UNL     1      -7.904   2.833 122.906  0.00  0.00    +0.000 C 
ENDBRANCH  21  24
ENDBRANCH   5  18
BRANCH   1  26
ATOM     26  C   UNL     1      -6.109  -0.651 128.271  0.00  0.00    +0.000 C 
BRANCH  26  28
ATOM     27  C   UNL     1      -7.140  -1.882 126.516  0.00  0.00    +0.000 C 
ATOM     28  O   UNL     1      -7.130  -1.584 127.906  0.00  0.00    +0.000 OA
ENDBRANCH  26  28
ENDBRANCH   1  26
TORSDOF 6
ENDMDL
MODEL 9
REMARK VINA RESULT:      -6.7      2.826      3.889
REMARK  Name = CHEMBL512257
REMARK  8 active torsions:
REMARK  status: ('A' for Active; 'I' for Inactive)
REMARK    1  A    between atoms: C_1  and  O_2
REMARK    2  A    between atoms: O_2  and  C_3
REMARK    3  A    between atoms: C_3  and  C_4
REMARK    4  A    between atoms: C_7  and  C_8
REMARK    5  A    between atoms: C_11  and  C_12
REMARK    6  A    between atoms: N_20  and  C_21
REMARK    7  A    between atoms: C_24  and  O_25
REMARK    8  A    between atoms: O_25  and  C_26
REMARK                            x       y       z     vdW  Elec       q    Type
REMARK                         _______ _______ _______ _____ _____    ______ ____
ROOT
ATOM      1  C   UNL     1      -3.224   5.145 132.741  0.00  0.00    +0.000 A 
ATOM      2  N   UNL     1      -3.734   5.453 133.922  0.00  0.00    +0.000 NA
ATOM      3  N   UNL     1      -5.020   5.926 133.735  0.00  0.00    +0.000 NA
ATOM      4  C   UNL     1      -5.295   5.892 132.441  0.00  0.00    +0.000 A 
ATOM      5  N   UNL     1      -4.171   5.428 131.782  0.00  0.00    +0.000 N 
ENDROOT
BRANCH   4   6
ATOM      6  C   UNL     1      -6.574   6.143 131.769  0.00  0.00    +0.000 A 
ATOM      7  C   UNL     1      -6.736   7.203 130.874  0.00  0.00    +0.000 A 
ATOM      8  N   UNL     1      -7.937   7.587 130.363  0.00  0.00    +0.000 NA
ATOM      9  C   UNL     1      -9.008   6.876 130.791  0.00  0.00    +0.000 A 
ATOM     10  C   UNL     1      -8.840   5.809 131.677  0.00  0.00    +0.000 A 
ATOM     11  N   UNL     1      -7.638   5.422 132.190  0.00  0.00    +0.000 NA
BRANCH   9  12
ATOM     12  C   UNL     1     -10.322   7.221 130.235  0.00  0.00    +0.000 A 
ATOM     13  C   UNL     1     -11.513   6.860 130.890  0.00  0.00    +0.000 A 
ATOM     14  C   UNL     1     -12.755   7.033 130.272  0.00  0.00    +0.000 A 
ATOM     15  C   UNL     1     -12.832   7.630 129.016  0.00  0.00    +0.000 A 
ATOM     16  C   UNL     1     -11.669   8.045 128.374  0.00  0.00    +0.000 A 
ATOM     17  C   UNL     1     -10.424   7.844 128.979  0.00  0.00    +0.000 A 
ENDBRANCH   9  12
ENDBRANCH   4   6
BRANCH   5  18
ATOM     18  C   UNL     1      -4.082   5.210 130.402  0.00  0.00    +0.000 A 
ATOM     19  C   UNL     1      -3.540   6.186 129.579  0.00  0.00    +0.000 A 
ATOM     20  C   UNL     1      -3.427   5.898 128.227  0.00  0.00    +0.000 A 
ATOM     21  C   UNL     1      -3.857   4.659 127.758  0.00  0.00    +0.000 A 
ATOM     22  N   UNL     1      -4.381   3.710 128.564  0.00  0.00    +0.000 NA
ATOM     23  C   UNL     1      -4.487   3.996 129.875  0.00  0.00    +0.000 A 
BRANCH  21  24
ATOM     24  O   UNL     1      -3.798   4.266 126.451  0.00  0.00    +0.000 OA
ATOM     25  C   UNL     1      -4.896   3.500 125.982  0.00  0.00    +0.000 C 
ENDBRANCH  21  24
ENDBRANCH   5  18
BRANCH   1  26
ATOM     26  C   UNL     1      -1.845   4.619 132.472  0.00  0.00    +0.000 C 
BRANCH  26  28
ATOM     27  C   UNL     1      -0.772   6.697 132.037  0.00  0.00    +0.000 C 
ATOM     28  O   UNL     1      -0.884   5.582 132.912  0.00  0.00    +0.000 OA
ENDBRANCH  26  28
ENDBRANCH   1  26
TORSDOF 6
ENDMDL
