MODEL 1
REMARK VINA RESULT:      -9.0      0.000      0.000
REMARK  Name = CHEMBL198622
REMARK  11 active torsions:
REMARK  status: ('A' for Active; 'I' for Inactive)
REMARK    1  A    between atoms: C_1  and  C_2
REMARK    2  A    between atoms: C_2  and  O_3
REMARK    3  A    between atoms: O_3  and  C_4
REMARK    4  A    between atoms: C_7  and  S_8
REMARK    5  A    between atoms: S_8  and  N_11
REMARK    6  A    between atoms: N_11  and  C_12
REMARK    7  A    between atoms: N_11  and  C_28
REMARK    8  A    between atoms: C_12  and  C_13
REMARK    9  A    between atoms: C_24  and  C_25
REMARK   10  A    between atoms: C_31  and  O_32
REMARK   11  A    between atoms: O_32  and  C_33
REMARK                            x       y       z     vdW  Elec       q    Type
REMARK                         _______ _______ _______ _____ _____    ______ ____
ROOT
ATOM      1  N   UNL     1      -6.727   3.195 125.174  0.00  0.00    +0.000 N 
ENDROOT
BRANCH   1   2
ATOM      2  C   UNL     1      -6.635   3.364 123.659  0.00  0.00    +0.000 A 
ATOM      3  C   UNL     1      -5.530   4.051 123.082  0.00  0.00    +0.000 A 
ATOM      4  C   UNL     1      -5.466   4.400 121.705  0.00  0.00    +0.000 A 
ATOM      5  C   UNL     1      -6.494   4.044 120.839  0.00  0.00    +0.000 A 
ATOM      6  C   UNL     1      -7.625   3.450 121.395  0.00  0.00    +0.000 A 
ATOM      7  C   UNL     1      -7.705   3.141 122.783  0.00  0.00    +0.000 A 
BRANCH   5   8
ATOM      8  O   UNL     1      -6.297   4.314 119.509  0.00  0.00    +0.000 OA
ATOM      9  C   UNL     1      -5.549   5.494 119.212  0.00  0.00    +0.000 C 
ENDBRANCH   5   8
ENDBRANCH   1   2
BRANCH   1  10
ATOM     10  S   UNL     1      -8.238   3.430 125.996  0.00  0.00    +0.000 S 
ATOM     11  O   UNL     1      -9.059   2.303 125.595  0.00  0.00    +0.000 OA
ATOM     12  O   UNL     1      -8.667   4.782 125.687  0.00  0.00    +0.000 OA
BRANCH  10  16
ATOM     13  C   UNL     1      -9.030   3.173 130.666  0.00  0.00    +0.000 A 
ATOM     14  C   UNL     1      -8.690   2.041 129.943  0.00  0.00    +0.000 A 
ATOM     15  C   UNL     1      -8.312   2.123 128.546  0.00  0.00    +0.000 A 
ATOM     16  C   UNL     1      -8.210   3.350 127.860  0.00  0.00    +0.000 A 
ATOM     17  C   UNL     1      -8.164   4.437 128.698  0.00  0.00    +0.000 A 
ATOM     18  C   UNL     1      -8.600   4.325 130.065  0.00  0.00    +0.000 A 
BRANCH  13  19
ATOM     19  O   UNL     1      -9.511   3.168 131.956  0.00  0.00    +0.000 OA
BRANCH  19  21
ATOM     20  C   UNL     1      -8.696   3.903 134.175  0.00  0.00    +0.000 C 
ATOM     21  C   UNL     1      -8.587   2.864 133.052  0.00  0.00    +0.000 C 
ENDBRANCH  19  21
ENDBRANCH  13  19
ENDBRANCH  10  16
ENDBRANCH   1  10
BRANCH   1  22
ATOM     22  C   UNL     1      -5.423   3.419 125.816  0.00  0.00    +0.000 C 
BRANCH  22  23
ATOM     23  C   UNL     1      -4.968   4.599 126.687  0.00  0.00    +0.000 C 
ATOM     24  O   UNL     1      -5.278   5.762 126.353  0.00  0.00    +0.000 OA
ATOM     25  N   UNL     1      -4.145   4.339 127.848  0.00  0.00    +0.000 N 
ATOM     26  C   UNL     1      -4.555   4.919 129.100  0.00  0.00    +0.000 C 
ATOM     27  C   UNL     1      -3.500   5.165 130.148  0.00  0.00    +0.000 A 
ATOM     28  C   UNL     1      -3.217   4.293 131.181  0.00  0.00    +0.000 A 
ATOM     29  C   UNL     1      -2.181   4.598 132.056  0.00  0.00    +0.000 A 
ATOM     30  C   UNL     1      -1.501   5.818 131.944  0.00  0.00    +0.000 A 
ATOM     31  C   UNL     1      -1.726   6.657 130.842  0.00  0.00    +0.000 A 
ATOM     32  C   UNL     1      -2.597   6.198 129.851  0.00  0.00    +0.000 A 
ATOM     33  C   UNL     1      -2.468   6.327 128.290  0.00  0.00    +0.000 C 
ATOM     34  C   UNL     1      -2.719   4.727 127.700  0.00  0.00    +0.000 C 
BRANCH  34  35
ATOM     35  C   UNL     1      -2.098   3.465 126.955  0.00  0.00    +0.000 C 
ATOM     36  N   UNL     1      -2.275   2.264 127.628  0.00  0.00    +0.000 N 
ATOM     37  O   UNL     1      -1.328   3.484 126.004  0.00  0.00    +0.000 OA
ATOM     38  H   UNL     1      -2.074   2.273 128.627  0.00  0.00    +0.000 HD
ATOM     39  H   UNL     1      -2.366   1.359 127.183  0.00  0.00    +0.000 HD
ENDBRANCH  34  35
ENDBRANCH  22  23
ENDBRANCH   1  22
TORSDOF 9
ENDMDL
MODEL 2
REMARK VINA RESULT:      -8.8      3.384      4.792
REMARK  Name = CHEMBL198622
REMARK  11 active torsions:
REMARK  status: ('A' for Active; 'I' for Inactive)
REMARK    1  A    between atoms: C_1  and  C_2
REMARK    2  A    between atoms: C_2  and  O_3
REMARK    3  A    between atoms: O_3  and  C_4
REMARK    4  A    between atoms: C_7  and  S_8
REMARK    5  A    between atoms: S_8  and  N_11
REMARK    6  A    between atoms: N_11  and  C_12
REMARK    7  A    between atoms: N_11  and  C_28
REMARK    8  A    between atoms: C_12  and  C_13
REMARK    9  A    between atoms: C_24  and  C_25
REMARK   10  A    between atoms: C_31  and  O_32
REMARK   11  A    between atoms: O_32  and  C_33
REMARK                            x       y       z     vdW  Elec       q    Type
REMARK                         _______ _______ _______ _____ _____    ______ ____
ROOT
ATOM      1  N   UNL     1      -8.110   0.618 124.617  0.00  0.00    +0.000 N 
ENDROOT
BRANCH   1   2
ATOM      2  C   UNL     1      -7.988   1.515 123.388  0.00  0.00    +0.000 A 
ATOM      3  C   UNL     1      -6.728   2.074 123.034  0.00  0.00    +0.000 A 
ATOM      4  C   UNL     1      -6.572   3.055 122.015  0.00  0.00    +0.000 A 
ATOM      5  C   UNL     1      -7.670   3.490 121.282  0.00  0.00    +0.000 A 
ATOM      6  C   UNL     1      -8.926   3.025 121.668  0.00  0.00    +0.000 A 
ATOM      7  C   UNL     1      -9.083   2.076 122.719  0.00  0.00    +0.000 A 
BRANCH   5   8
ATOM      8  O   UNL     1      -7.414   4.346 120.242  0.00  0.00    +0.000 OA
ATOM      9  C   UNL     1      -6.038   4.529 119.904  0.00  0.00    +0.000 C 
ENDBRANCH   5   8
ENDBRANCH   1   2
BRANCH   1  10
ATOM     10  S   UNL     1      -8.258  -1.103 124.440  0.00  0.00    +0.000 S 
ATOM     11  O   UNL     1      -7.230  -1.469 123.485  0.00  0.00    +0.000 OA
ATOM     12  O   UNL     1      -9.653  -1.365 124.135  0.00  0.00    +0.000 OA
BRANCH  10  16
ATOM     13  C   UNL     1      -7.838  -3.186 128.682  0.00  0.00    +0.000 A 
ATOM     14  C   UNL     1      -8.756  -3.649 127.753  0.00  0.00    +0.000 A 
ATOM     15  C   UNL     1      -8.804  -3.115 126.407  0.00  0.00    +0.000 A 
ATOM     16  C   UNL     1      -7.892  -2.145 125.945  0.00  0.00    +0.000 A 
ATOM     17  C   UNL     1      -6.784  -2.016 126.746  0.00  0.00    +0.000 A 
ATOM     18  C   UNL     1      -6.798  -2.514 128.096  0.00  0.00    +0.000 A 
BRANCH  13  19
ATOM     19  O   UNL     1      -7.803  -3.555 130.007  0.00  0.00    +0.000 OA
BRANCH  19  21
ATOM     20  C   UNL     1      -6.398  -2.807 131.903  0.00  0.00    +0.000 C 
ATOM     21  C   UNL     1      -6.502  -3.704 130.664  0.00  0.00    +0.000 C 
ENDBRANCH  19  21
ENDBRANCH  13  19
ENDBRANCH  10  16
ENDBRANCH   1  10
BRANCH   1  22
ATOM     22  C   UNL     1      -8.663   1.355 125.763  0.00  0.00    +0.000 C 
BRANCH  22  23
ATOM     23  C   UNL     1      -7.944   1.857 127.023  0.00  0.00    +0.000 C 
ATOM     24  O   UNL     1      -8.435   1.610 128.146  0.00  0.00    +0.000 OA
ATOM     25  N   UNL     1      -6.742   2.648 126.879  0.00  0.00    +0.000 N 
ATOM     26  C   UNL     1      -5.585   2.249 127.639  0.00  0.00    +0.000 C 
ATOM     27  C   UNL     1      -4.557   3.299 127.970  0.00  0.00    +0.000 A 
ATOM     28  C   UNL     1      -3.412   3.521 127.229  0.00  0.00    +0.000 A 
ATOM     29  C   UNL     1      -2.562   4.558 127.597  0.00  0.00    +0.000 A 
ATOM     30  C   UNL     1      -2.818   5.301 128.757  0.00  0.00    +0.000 A 
ATOM     31  C   UNL     1      -4.025   5.136 129.453  0.00  0.00    +0.000 A 
ATOM     32  C   UNL     1      -4.967   4.258 128.910  0.00  0.00    +0.000 A 
ATOM     33  C   UNL     1      -6.527   4.416 128.826  0.00  0.00    +0.000 C 
ATOM     34  C   UNL     1      -6.908   4.094 127.176  0.00  0.00    +0.000 C 
BRANCH  34  35
ATOM     35  C   UNL     1      -7.467   4.660 125.798  0.00  0.00    +0.000 C 
ATOM     36  N   UNL     1      -6.500   5.232 124.983  0.00  0.00    +0.000 N 
ATOM     37  O   UNL     1      -8.643   4.830 125.501  0.00  0.00    +0.000 OA
ATOM     38  H   UNL     1      -5.846   5.868 125.437  0.00  0.00    +0.000 HD
ATOM     39  H   UNL     1      -6.530   5.242 123.971  0.00  0.00    +0.000 HD
ENDBRANCH  34  35
ENDBRANCH  22  23
ENDBRANCH   1  22
TORSDOF 9
ENDMDL
MODEL 3
REMARK VINA RESULT:      -8.8      3.438      5.968
REMARK  Name = CHEMBL198622
REMARK  11 active torsions:
REMARK  status: ('A' for Active; 'I' for Inactive)
REMARK    1  A    between atoms: C_1  and  C_2
REMARK    2  A    between atoms: C_2  and  O_3
REMARK    3  A    between atoms: O_3  and  C_4
REMARK    4  A    between atoms: C_7  and  S_8
REMARK    5  A    between atoms: S_8  and  N_11
REMARK    6  A    between atoms: N_11  and  C_12
REMARK    7  A    between atoms: N_11  and  C_28
REMARK    8  A    between atoms: C_12  and  C_13
REMARK    9  A    between atoms: C_24  and  C_25
REMARK   10  A    between atoms: C_31  and  O_32
REMARK   11  A    between atoms: O_32  and  C_33
REMARK                            x       y       z     vdW  Elec       q    Type
REMARK                         _______ _______ _______ _____ _____    ______ ____
ROOT
ATOM      1  N   UNL     1      -7.711   2.052 124.309  0.00  0.00    +0.000 N 
ENDROOT
BRANCH   1   2
ATOM      2  C   UNL     1      -7.560   2.632 122.905  0.00  0.00    +0.000 A 
ATOM      3  C   UNL     1      -6.298   3.120 122.465  0.00  0.00    +0.000 A 
ATOM      4  C   UNL     1      -6.123   3.831 121.245  0.00  0.00    +0.000 A 
ATOM      5  C   UNL     1      -7.202   4.052 120.397  0.00  0.00    +0.000 A 
ATOM      6  C   UNL     1      -8.463   3.663 120.846  0.00  0.00    +0.000 A 
ATOM      7  C   UNL     1      -8.641   2.990 122.089  0.00  0.00    +0.000 A 
BRANCH   5   8
ATOM      8  O   UNL     1      -6.924   4.640 119.190  0.00  0.00    +0.000 OA
ATOM      9  C   UNL     1      -5.715   5.399 119.125  0.00  0.00    +0.000 C 
ENDBRANCH   5   8
ENDBRANCH   1   2
BRANCH   1  10
ATOM     10  S   UNL     1      -8.029   3.093 125.662  0.00  0.00    +0.000 S 
ATOM     11  O   UNL     1      -8.638   2.233 126.659  0.00  0.00    +0.000 OA
ATOM     12  O   UNL     1      -8.768   4.229 125.140  0.00  0.00    +0.000 OA
BRANCH  10  16
ATOM     13  C   UNL     1      -4.009   4.166 127.941  0.00  0.00    +0.000 A 
ATOM     14  C   UNL     1      -4.075   4.222 126.558  0.00  0.00    +0.000 A 
ATOM     15  C   UNL     1      -5.328   4.032 125.854  0.00  0.00    +0.000 A 
ATOM     16  C   UNL     1      -6.552   3.838 126.525  0.00  0.00    +0.000 A 
ATOM     17  C   UNL     1      -6.502   4.183 127.854  0.00  0.00    +0.000 A 
ATOM     18  C   UNL     1      -5.238   4.310 128.528  0.00  0.00    +0.000 A 
BRANCH  13  19
ATOM     19  O   UNL     1      -2.847   4.219 128.677  0.00  0.00    +0.000 OA
BRANCH  19  21
ATOM     20  C   UNL     1      -2.203   6.287 129.875  0.00  0.00    +0.000 C 
ATOM     21  C   UNL     1      -2.863   4.907 129.971  0.00  0.00    +0.000 C 
ENDBRANCH  19  21
ENDBRANCH  13  19
ENDBRANCH  10  16
ENDBRANCH   1  10
BRANCH   1  22
ATOM     22  C   UNL     1      -7.004   0.769 124.436  0.00  0.00    +0.000 C 
BRANCH  22  23
ATOM     23  C   UNL     1      -6.168   0.240 125.610  0.00  0.00    +0.000 C 
ATOM     24  O   UNL     1      -4.980   0.608 125.731  0.00  0.00    +0.000 OA
ATOM     25  N   UNL     1      -6.762  -0.713 126.523  0.00  0.00    +0.000 N 
ATOM     26  C   UNL     1      -6.667  -0.435 127.933  0.00  0.00    +0.000 C 
ATOM     27  C   UNL     1      -6.734  -1.596 128.891  0.00  0.00    +0.000 A 
ATOM     28  C   UNL     1      -7.888  -2.009 129.526  0.00  0.00    +0.000 A 
ATOM     29  C   UNL     1      -7.843  -3.132 130.346  0.00  0.00    +0.000 A 
ATOM     30  C   UNL     1      -6.621  -3.772 130.595  0.00  0.00    +0.000 A 
ATOM     31  C   UNL     1      -5.471  -3.409 129.877  0.00  0.00    +0.000 A 
ATOM     32  C   UNL     1      -5.613  -2.441 128.880  0.00  0.00    +0.000 A 
ATOM     33  C   UNL     1      -4.953  -2.391 127.456  0.00  0.00    +0.000 C 
ATOM     34  C   UNL     1      -6.267  -2.106 126.378  0.00  0.00    +0.000 C 
BRANCH  34  35
ATOM     35  C   UNL     1      -7.163  -2.662 125.186  0.00  0.00    +0.000 C 
ATOM     36  N   UNL     1      -8.416  -3.113 125.578  0.00  0.00    +0.000 N 
ATOM     37  O   UNL     1      -6.788  -2.920 124.049  0.00  0.00    +0.000 OA
ATOM     38  H   UNL     1      -8.441  -3.709 126.405  0.00  0.00    +0.000 HD
ATOM     39  H   UNL     1      -9.247  -3.085 125.001  0.00  0.00    +0.000 HD
ENDBRANCH  34  35
ENDBRANCH  22  23
ENDBRANCH   1  22
TORSDOF 9
ENDMDL
MODEL 4
REMARK VINA RESULT:      -8.8      3.573      8.571
REMARK  Name = CHEMBL198622
REMARK  11 active torsions:
REMARK  status: ('A' for Active; 'I' for Inactive)
REMARK    1  A    between atoms: C_1  and  C_2
REMARK    2  A    between atoms: C_2  and  O_3
REMARK    3  A    between atoms: O_3  and  C_4
REMARK    4  A    between atoms: C_7  and  S_8
REMARK    5  A    between atoms: S_8  and  N_11
REMARK    6  A    between atoms: N_11  and  C_12
REMARK    7  A    between atoms: N_11  and  C_28
REMARK    8  A    between atoms: C_12  and  C_13
REMARK    9  A    between atoms: C_24  and  C_25
REMARK   10  A    between atoms: C_31  and  O_32
REMARK   11  A    between atoms: O_32  and  C_33
REMARK                            x       y       z     vdW  Elec       q    Type
REMARK                         _______ _______ _______ _____ _____    ______ ____
ROOT
ATOM      1  N   UNL     1      -6.715   3.627 130.573  0.00  0.00    +0.000 N 
ENDROOT
BRANCH   1   2
ATOM      2  C   UNL     1      -6.920   2.115 130.637  0.00  0.00    +0.000 A 
ATOM      3  C   UNL     1      -7.356   1.404 129.484  0.00  0.00    +0.000 A 
ATOM      4  C   UNL     1      -7.738   0.034 129.514  0.00  0.00    +0.000 A 
ATOM      5  C   UNL     1      -7.665  -0.691 130.698  0.00  0.00    +0.000 A 
ATOM      6  C   UNL     1      -7.326   0.003 131.858  0.00  0.00    +0.000 A 
ATOM      7  C   UNL     1      -6.987   1.387 131.831  0.00  0.00    +0.000 A 
BRANCH   5   8
ATOM      8  O   UNL     1      -7.937  -2.033 130.614  0.00  0.00    +0.000 OA
ATOM      9  C   UNL     1      -7.871  -2.606 129.308  0.00  0.00    +0.000 C 
ENDBRANCH   5   8
ENDBRANCH   1   2
BRANCH   1  10
ATOM     10  S   UNL     1      -5.468   4.305 129.573  0.00  0.00    +0.000 S 
ATOM     11  O   UNL     1      -4.258   3.603 129.958  0.00  0.00    +0.000 OA
ATOM     12  O   UNL     1      -5.550   5.746 129.736  0.00  0.00    +0.000 OA
BRANCH  10  16
ATOM     13  C   UNL     1      -5.604   4.422 124.832  0.00  0.00    +0.000 A 
ATOM     14  C   UNL     1      -4.479   3.960 125.496  0.00  0.00    +0.000 A 
ATOM     15  C   UNL     1      -4.470   3.788 126.936  0.00  0.00    +0.000 A 
ATOM     16  C   UNL     1      -5.608   4.022 127.733  0.00  0.00    +0.000 A 
ATOM     17  C   UNL     1      -6.774   4.086 127.009  0.00  0.00    +0.000 A 
ATOM     18  C   UNL     1      -6.739   4.311 125.589  0.00  0.00    +0.000 A 
BRANCH  13  19
ATOM     19  O   UNL     1      -5.657   4.722 123.490  0.00  0.00    +0.000 OA
BRANCH  19  21
ATOM     20  C   UNL     1      -5.434   3.631 121.279  0.00  0.00    +0.000 C 
ATOM     21  C   UNL     1      -6.251   3.746 122.572  0.00  0.00    +0.000 C 
ENDBRANCH  19  21
ENDBRANCH  13  19
ENDBRANCH  10  16
ENDBRANCH   1  10
BRANCH   1  22
ATOM     22  C   UNL     1      -7.210   4.285 131.791  0.00  0.00    +0.000 C 
BRANCH  22  23
ATOM     23  C   UNL     1      -8.246   5.409 131.926  0.00  0.00    +0.000 C 
ATOM     24  O   UNL     1      -8.364   6.005 133.017  0.00  0.00    +0.000 OA
ATOM     25  N   UNL     1      -9.100   5.718 130.799  0.00  0.00    +0.000 N 
ATOM     26  C   UNL     1      -9.191   7.095 130.388  0.00  0.00    +0.000 C 
ATOM     27  C   UNL     1     -10.431   7.537 129.656  0.00  0.00    +0.000 A 
ATOM     28  C   UNL     1     -10.533   7.608 128.280  0.00  0.00    +0.000 A 
ATOM     29  C   UNL     1     -11.748   7.974 127.712  0.00  0.00    +0.000 A 
ATOM     30  C   UNL     1     -12.821   8.356 128.529  0.00  0.00    +0.000 A 
ATOM     31  C   UNL     1     -12.745   8.194 129.920  0.00  0.00    +0.000 A 
ATOM     32  C   UNL     1     -11.597   7.588 130.437  0.00  0.00    +0.000 A 
ATOM     33  C   UNL     1     -11.475   6.540 131.600  0.00  0.00    +0.000 C 
ATOM     34  C   UNL     1     -10.509   5.273 130.944  0.00  0.00    +0.000 C 
BRANCH  34  35
ATOM     35  C   UNL     1     -10.431   3.749 130.491  0.00  0.00    +0.000 C 
ATOM     36  N   UNL     1     -10.624   2.838 131.520  0.00  0.00    +0.000 N 
ATOM     37  O   UNL     1     -10.019   3.326 129.418  0.00  0.00    +0.000 OA
ATOM     38  H   UNL     1     -10.117   3.021 132.385  0.00  0.00    +0.000 HD
ATOM     39  H   UNL     1     -11.036   1.920 131.410  0.00  0.00    +0.000 HD
ENDBRANCH  34  35
ENDBRANCH  22  23
ENDBRANCH   1  22
TORSDOF 9
ENDMDL
MODEL 5
REMARK VINA RESULT:      -8.7      3.423      5.296
REMARK  Name = CHEMBL198622
REMARK  11 active torsions:
REMARK  status: ('A' for Active; 'I' for Inactive)
REMARK    1  A    between atoms: C_1  and  C_2
REMARK    2  A    between atoms: C_2  and  O_3
REMARK    3  A    between atoms: O_3  and  C_4
REMARK    4  A    between atoms: C_7  and  S_8
REMARK    5  A    between atoms: S_8  and  N_11
REMARK    6  A    between atoms: N_11  and  C_12
REMARK    7  A    between atoms: N_11  and  C_28
REMARK    8  A    between atoms: C_12  and  C_13
REMARK    9  A    between atoms: C_24  and  C_25
REMARK   10  A    between atoms: C_31  and  O_32
REMARK   11  A    between atoms: O_32  and  C_33
REMARK                            x       y       z     vdW  Elec       q    Type
REMARK                         _______ _______ _______ _____ _____    ______ ____
ROOT
ATOM      1  N   UNL     1      -8.201   2.670 124.326  0.00  0.00    +0.000 N 
ENDROOT
BRANCH   1   2
ATOM      2  C   UNL     1      -7.709   3.003 122.920  0.00  0.00    +0.000 A 
ATOM      3  C   UNL     1      -6.328   3.255 122.687  0.00  0.00    +0.000 A 
ATOM      4  C   UNL     1      -5.825   3.744 121.449  0.00  0.00    +0.000 A 
ATOM      5  C   UNL     1      -6.684   3.967 120.379  0.00  0.00    +0.000 A 
ATOM      6  C   UNL     1      -8.050   3.812 120.608  0.00  0.00    +0.000 A 
ATOM      7  C   UNL     1      -8.554   3.366 121.863  0.00  0.00    +0.000 A 
BRANCH   5   8
ATOM      8  O   UNL     1      -6.102   4.323 119.189  0.00  0.00    +0.000 OA
ATOM      9  C   UNL     1      -5.785   5.707 119.035  0.00  0.00    +0.000 C 
ENDBRANCH   5   8
ENDBRANCH   1   2
BRANCH   1  10
ATOM     10  S   UNL     1      -9.264   1.323 124.590  0.00  0.00    +0.000 S 
ATOM     11  O   UNL     1     -10.357   1.522 123.659  0.00  0.00    +0.000 OA
ATOM     12  O   UNL     1      -9.530   1.285 126.018  0.00  0.00    +0.000 OA
BRANCH  10  16
ATOM     13  C   UNL     1      -6.983  -2.814 124.154  0.00  0.00    +0.000 A 
ATOM     14  C   UNL     1      -8.116  -2.711 124.945  0.00  0.00    +0.000 A 
ATOM     15  C   UNL     1      -8.903  -1.494 124.982  0.00  0.00    +0.000 A 
ATOM     16  C   UNL     1      -8.602  -0.373 124.181  0.00  0.00    +0.000 A 
ATOM     17  C   UNL     1      -7.740  -0.659 123.150  0.00  0.00    +0.000 A 
ATOM     18  C   UNL     1      -6.938  -1.853 123.179  0.00  0.00    +0.000 A 
BRANCH  13  19
ATOM     19  O   UNL     1      -6.120  -3.887 124.150  0.00  0.00    +0.000 OA
BRANCH  19  21
ATOM     20  C   UNL     1      -4.058  -5.007 123.365  0.00  0.00    +0.000 C 
ATOM     21  C   UNL     1      -4.738  -3.678 123.711  0.00  0.00    +0.000 C 
ENDBRANCH  19  21
ENDBRANCH  13  19
ENDBRANCH  10  16
ENDBRANCH   1  10
BRANCH   1  22
ATOM     22  C   UNL     1      -8.182   3.856 125.194  0.00  0.00    +0.000 C 
BRANCH  22  23
ATOM     23  C   UNL     1      -7.058   4.364 126.108  0.00  0.00    +0.000 C 
ATOM     24  O   UNL     1      -6.385   5.357 125.758  0.00  0.00    +0.000 OA
ATOM     25  N   UNL     1      -6.770   3.647 127.332  0.00  0.00    +0.000 N 
ATOM     26  C   UNL     1      -6.693   4.411 128.551  0.00  0.00    +0.000 C 
ATOM     27  C   UNL     1      -5.868   3.859 129.684  0.00  0.00    +0.000 A 
ATOM     28  C   UNL     1      -6.387   3.122 130.730  0.00  0.00    +0.000 A 
ATOM     29  C   UNL     1      -5.521   2.612 131.691  0.00  0.00    +0.000 A 
ATOM     30  C   UNL     1      -4.155   2.926 131.645  0.00  0.00    +0.000 A 
ATOM     31  C   UNL     1      -3.618   3.594 130.535  0.00  0.00    +0.000 A 
ATOM     32  C   UNL     1      -4.480   3.871 129.471  0.00  0.00    +0.000 A 
ATOM     33  C   UNL     1      -4.203   3.775 127.928  0.00  0.00    +0.000 C 
ATOM     34  C   UNL     1      -5.517   2.849 127.307  0.00  0.00    +0.000 C 
BRANCH  34  35
ATOM     35  C   UNL     1      -5.989   1.500 126.607  0.00  0.00    +0.000 C 
ATOM     36  N   UNL     1      -6.868   0.741 127.368  0.00  0.00    +0.000 N 
ATOM     37  O   UNL     1      -5.503   0.987 125.607  0.00  0.00    +0.000 OA
ATOM     38  H   UNL     1      -6.621   0.614 128.348  0.00  0.00    +0.000 HD
ATOM     39  H   UNL     1      -7.588   0.139 126.990  0.00  0.00    +0.000 HD
ENDBRANCH  34  35
ENDBRANCH  22  23
ENDBRANCH   1  22
TORSDOF 9
ENDMDL
MODEL 6
REMARK VINA RESULT:      -8.7      2.787      6.289
REMARK  Name = CHEMBL198622
REMARK  11 active torsions:
REMARK  status: ('A' for Active; 'I' for Inactive)
REMARK    1  A    between atoms: C_1  and  C_2
REMARK    2  A    between atoms: C_2  and  O_3
REMARK    3  A    between atoms: O_3  and  C_4
REMARK    4  A    between atoms: C_7  and  S_8
REMARK    5  A    between atoms: S_8  and  N_11
REMARK    6  A    between atoms: N_11  and  C_12
REMARK    7  A    between atoms: N_11  and  C_28
REMARK    8  A    between atoms: C_12  and  C_13
REMARK    9  A    between atoms: C_24  and  C_25
REMARK   10  A    between atoms: C_31  and  O_32
REMARK   11  A    between atoms: O_32  and  C_33
REMARK                            x       y       z     vdW  Elec       q    Type
REMARK                         _______ _______ _______ _____ _____    ______ ____
ROOT
ATOM      1  N   UNL     1      -7.025   3.377 126.218  0.00  0.00    +0.000 N 
ENDROOT
BRANCH   1   2
ATOM      2  C   UNL     1      -7.547   3.113 127.628  0.00  0.00    +0.000 A 
ATOM      3  C   UNL     1      -7.709   1.777 128.092  0.00  0.00    +0.000 A 
ATOM      4  C   UNL     1      -8.352   1.453 129.319  0.00  0.00    +0.000 A 
ATOM      5  C   UNL     1      -8.830   2.459 130.151  0.00  0.00    +0.000 A 
ATOM      6  C   UNL     1      -8.762   3.769 129.680  0.00  0.00    +0.000 A 
ATOM      7  C   UNL     1      -8.157   4.086 128.430  0.00  0.00    +0.000 A 
BRANCH   5   8
ATOM      8  O   UNL     1      -9.328   2.066 131.366  0.00  0.00    +0.000 OA
ATOM      9  C   UNL     1      -9.175   0.683 131.690  0.00  0.00    +0.000 C 
ENDBRANCH   5   8
ENDBRANCH   1   2
BRANCH   1  10
ATOM     10  S   UNL     1      -7.783   2.633 124.845  0.00  0.00    +0.000 S 
ATOM     11  O   UNL     1      -7.224   3.316 123.695  0.00  0.00    +0.000 OA
ATOM     12  O   UNL     1      -9.214   2.683 125.090  0.00  0.00    +0.000 OA
BRANCH  10  16
ATOM     13  C   UNL     1      -6.211  -1.656 123.565  0.00  0.00    +0.000 A 
ATOM     14  C   UNL     1      -5.795  -1.076 124.752  0.00  0.00    +0.000 A 
ATOM     15  C   UNL     1      -6.369   0.169 125.225  0.00  0.00    +0.000 A 
ATOM     16  C   UNL     1      -7.412   0.829 124.545  0.00  0.00    +0.000 A 
ATOM     17  C   UNL     1      -8.046   0.033 123.622  0.00  0.00    +0.000 A 
ATOM     18  C   UNL     1      -7.417  -1.168 123.139  0.00  0.00    +0.000 A 
BRANCH  13  19
ATOM     19  O   UNL     1      -5.639  -2.768 122.990  0.00  0.00    +0.000 OA
BRANCH  19  21
ATOM     20  C   UNL     1      -4.405  -4.836 123.565  0.00  0.00    +0.000 C 
ATOM     21  C   UNL     1      -4.402  -3.302 123.566  0.00  0.00    +0.000 C 
ENDBRANCH  19  21
ENDBRANCH  13  19
ENDBRANCH  10  16
ENDBRANCH   1  10
BRANCH   1  22
ATOM     22  C   UNL     1      -5.607   3.763 126.237  0.00  0.00    +0.000 C 
BRANCH  22  23
ATOM     23  C   UNL     1      -4.922   4.879 127.040  0.00  0.00    +0.000 C 
ATOM     24  O   UNL     1      -5.002   6.060 126.639  0.00  0.00    +0.000 OA
ATOM     25  N   UNL     1      -4.156   4.530 128.217  0.00  0.00    +0.000 N 
ATOM     26  C   UNL     1      -4.435   5.250 129.433  0.00  0.00    +0.000 C 
ATOM     27  C   UNL     1      -3.343   5.345 130.467  0.00  0.00    +0.000 A 
ATOM     28  C   UNL     1      -3.228   4.495 131.550  0.00  0.00    +0.000 A 
ATOM     29  C   UNL     1      -2.145   4.641 132.409  0.00  0.00    +0.000 A 
ATOM     30  C   UNL     1      -1.240   5.697 132.229  0.00  0.00    +0.000 A 
ATOM     31  C   UNL     1      -1.306   6.499 131.079  0.00  0.00    +0.000 A 
ATOM     32  C   UNL     1      -2.258   6.163 130.114  0.00  0.00    +0.000 A 
ATOM     33  C   UNL     1      -2.120   6.175 128.549  0.00  0.00    +0.000 C 
ATOM     34  C   UNL     1      -2.683   4.624 128.051  0.00  0.00    +0.000 C 
BRANCH  34  35
ATOM     35  C   UNL     1      -2.327   3.224 127.383  0.00  0.00    +0.000 C 
ATOM     36  N   UNL     1      -2.995   2.141 127.939  0.00  0.00    +0.000 N 
ATOM     37  O   UNL     1      -1.403   2.996 126.612  0.00  0.00    +0.000 OA
ATOM     38  H   UNL     1      -3.017   2.100 128.957  0.00  0.00    +0.000 HD
ATOM     39  H   UNL     1      -3.256   1.303 127.436  0.00  0.00    +0.000 HD
ENDBRANCH  34  35
ENDBRANCH  22  23
ENDBRANCH   1  22
TORSDOF 9
ENDMDL
MODEL 7
REMARK VINA RESULT:      -8.6      4.458      8.437
REMARK  Name = CHEMBL198622
REMARK  11 active torsions:
REMARK  status: ('A' for Active; 'I' for Inactive)
REMARK    1  A    between atoms: C_1  and  C_2
REMARK    2  A    between atoms: C_2  and  O_3
REMARK    3  A    between atoms: O_3  and  C_4
REMARK    4  A    between atoms: C_7  and  S_8
REMARK    5  A    between atoms: S_8  and  N_11
REMARK    6  A    between atoms: N_11  and  C_12
REMARK    7  A    between atoms: N_11  and  C_28
REMARK    8  A    between atoms: C_12  and  C_13
REMARK    9  A    between atoms: C_24  and  C_25
REMARK   10  A    between atoms: C_31  and  O_32
REMARK   11  A    between atoms: O_32  and  C_33
REMARK                            x       y       z     vdW  Elec       q    Type
REMARK                         _______ _______ _______ _____ _____    ______ ____
ROOT
ATOM      1  N   UNL     1      -6.014   4.367 130.872  0.00  0.00    +0.000 N 
ENDROOT
BRANCH   1   2
ATOM      2  C   UNL     1      -5.017   5.488 131.155  0.00  0.00    +0.000 A 
ATOM      3  C   UNL     1      -4.403   5.592 132.435  0.00  0.00    +0.000 A 
ATOM      4  C   UNL     1      -3.608   6.704 132.827  0.00  0.00    +0.000 A 
ATOM      5  C   UNL     1      -3.364   7.744 131.938  0.00  0.00    +0.000 A 
ATOM      6  C   UNL     1      -4.024   7.709 130.711  0.00  0.00    +0.000 A 
ATOM      7  C   UNL     1      -4.857   6.615 130.339  0.00  0.00    +0.000 A 
BRANCH   5   8
ATOM      8  O   UNL     1      -2.491   8.717 132.354  0.00  0.00    +0.000 OA
ATOM      9  C   UNL     1      -1.349   8.265 133.083  0.00  0.00    +0.000 C 
ENDBRANCH   5   8
ENDBRANCH   1   2
BRANCH   1  10
ATOM     10  S   UNL     1      -6.087   3.630 129.302  0.00  0.00    +0.000 S 
ATOM     11  O   UNL     1      -4.709   3.331 128.965  0.00  0.00    +0.000 OA
ATOM     12  O   UNL     1      -6.857   4.531 128.461  0.00  0.00    +0.000 OA
BRANCH  10  16
ATOM     13  C   UNL     1      -7.528  -0.882 129.030  0.00  0.00    +0.000 A 
ATOM     14  C   UNL     1      -7.543  -0.206 130.239  0.00  0.00    +0.000 A 
ATOM     15  C   UNL     1      -7.238   1.209 130.317  0.00  0.00    +0.000 A 
ATOM     16  C   UNL     1      -6.967   1.989 129.175  0.00  0.00    +0.000 A 
ATOM     17  C   UNL     1      -7.350   1.384 128.002  0.00  0.00    +0.000 A 
ATOM     18  C   UNL     1      -7.592  -0.033 127.957  0.00  0.00    +0.000 A 
BRANCH  13  19
ATOM     19  O   UNL     1      -7.691  -2.241 128.885  0.00  0.00    +0.000 OA
BRANCH  19  21
ATOM     20  C   UNL     1      -9.004  -4.056 127.833  0.00  0.00    +0.000 C 
ATOM     21  C   UNL     1      -8.218  -2.757 127.619  0.00  0.00    +0.000 C 
ENDBRANCH  19  21
ENDBRANCH  13  19
ENDBRANCH  10  16
ENDBRANCH   1  10
BRANCH   1  22
ATOM     22  C   UNL     1      -7.170   4.440 131.777  0.00  0.00    +0.000 C 
BRANCH  22  23
ATOM     23  C   UNL     1      -8.239   5.536 131.889  0.00  0.00    +0.000 C 
ATOM     24  O   UNL     1      -8.386   6.139 132.973  0.00  0.00    +0.000 OA
ATOM     25  N   UNL     1      -9.088   5.810 130.749  0.00  0.00    +0.000 N 
ATOM     26  C   UNL     1      -9.213   7.180 130.324  0.00  0.00    +0.000 C 
ATOM     27  C   UNL     1     -10.456   7.580 129.573  0.00  0.00    +0.000 A 
ATOM     28  C   UNL     1     -10.544   7.635 128.196  0.00  0.00    +0.000 A 
ATOM     29  C   UNL     1     -11.762   7.961 127.610  0.00  0.00    +0.000 A 
ATOM     30  C   UNL     1     -12.855   8.320 128.411  0.00  0.00    +0.000 A 
ATOM     31  C   UNL     1     -12.790   8.174 129.805  0.00  0.00    +0.000 A 
ATOM     32  C   UNL     1     -11.632   7.606 130.340  0.00  0.00    +0.000 A 
ATOM     33  C   UNL     1     -11.494   6.573 131.515  0.00  0.00    +0.000 C 
ATOM     34  C   UNL     1     -10.486   5.327 130.883  0.00  0.00    +0.000 C 
BRANCH  34  35
ATOM     35  C   UNL     1     -10.360   3.801 130.446  0.00  0.00    +0.000 C 
ATOM     36  N   UNL     1     -10.548   2.895 131.480  0.00  0.00    +0.000 N 
ATOM     37  O   UNL     1      -9.918   3.380 129.384  0.00  0.00    +0.000 OA
ATOM     38  H   UNL     1     -10.061   3.099 132.352  0.00  0.00    +0.000 HD
ATOM     39  H   UNL     1     -10.933   1.966 131.372  0.00  0.00    +0.000 HD
ENDBRANCH  34  35
ENDBRANCH  22  23
ENDBRANCH   1  22
TORSDOF 9
ENDMDL
MODEL 8
REMARK VINA RESULT:      -8.5      5.249     10.093
REMARK  Name = CHEMBL198622
REMARK  11 active torsions:
REMARK  status: ('A' for Active; 'I' for Inactive)
REMARK    1  A    between atoms: C_1  and  C_2
REMARK    2  A    between atoms: C_2  and  O_3
REMARK    3  A    between atoms: O_3  and  C_4
REMARK    4  A    between atoms: C_7  and  S_8
REMARK    5  A    between atoms: S_8  and  N_11
REMARK    6  A    between atoms: N_11  and  C_12
REMARK    7  A    between atoms: N_11  and  C_28
REMARK    8  A    between atoms: C_12  and  C_13
REMARK    9  A    between atoms: C_24  and  C_25
REMARK   10  A    between atoms: C_31  and  O_32
REMARK   11  A    between atoms: O_32  and  C_33
REMARK                            x       y       z     vdW  Elec       q    Type
REMARK                         _______ _______ _______ _____ _____    ______ ____
ROOT
ATOM      1  N   UNL     1      -5.816   5.037 131.897  0.00  0.00    +0.000 N 
ENDROOT
BRANCH   1   2
ATOM      2  C   UNL     1      -5.244   4.902 133.306  0.00  0.00    +0.000 A 
ATOM      3  C   UNL     1      -5.364   5.977 134.232  0.00  0.00    +0.000 A 
ATOM      4  C   UNL     1      -4.705   5.993 135.493  0.00  0.00    +0.000 A 
ATOM      5  C   UNL     1      -3.926   4.913 135.894  0.00  0.00    +0.000 A 
ATOM      6  C   UNL     1      -3.722   3.889 134.971  0.00  0.00    +0.000 A 
ATOM      7  C   UNL     1      -4.347   3.898 133.691  0.00  0.00    +0.000 A 
BRANCH   5   8
ATOM      8  O   UNL     1      -3.425   4.959 137.170  0.00  0.00    +0.000 OA
ATOM      9  C   UNL     1      -4.384   5.121 138.216  0.00  0.00    +0.000 C 
ENDBRANCH   5   8
ENDBRANCH   1   2
BRANCH   1  10
ATOM     10  S   UNL     1      -5.044   6.061 130.728  0.00  0.00    +0.000 S 
ATOM     11  O   UNL     1      -5.922   7.208 130.598  0.00  0.00    +0.000 OA
ATOM     12  O   UNL     1      -4.771   5.227 129.570  0.00  0.00    +0.000 OA
BRANCH  10  16
ATOM     13  C   UNL     1      -0.969   7.509 132.679  0.00  0.00    +0.000 A 
ATOM     14  C   UNL     1      -1.002   6.397 131.854  0.00  0.00    +0.000 A 
ATOM     15  C   UNL     1      -2.208   6.021 131.141  0.00  0.00    +0.000 A 
ATOM     16  C   UNL     1      -3.389   6.787 131.196  0.00  0.00    +0.000 A 
ATOM     17  C   UNL     1      -3.192   8.055 131.685  0.00  0.00    +0.000 A 
ATOM     18  C   UNL     1      -2.004   8.372 132.434  0.00  0.00    +0.000 A 
BRANCH  13  19
ATOM     19  O   UNL     1       0.094   7.866 133.477  0.00  0.00    +0.000 OA
BRANCH  19  21
ATOM     20  C   UNL     1      -1.099   7.220 135.548  0.00  0.00    +0.000 C 
ATOM     21  C   UNL     1       0.234   7.230 134.790  0.00  0.00    +0.000 C 
ENDBRANCH  19  21
ENDBRANCH  13  19
ENDBRANCH  10  16
ENDBRANCH   1  10
BRANCH   1  22
ATOM     22  C   UNL     1      -7.257   4.743 131.876  0.00  0.00    +0.000 C 
BRANCH  22  23
ATOM     23  C   UNL     1      -8.441   5.720 131.885  0.00  0.00    +0.000 C 
ATOM     24  O   UNL     1      -8.718   6.335 132.937  0.00  0.00    +0.000 OA
ATOM     25  N   UNL     1      -9.241   5.867 130.689  0.00  0.00    +0.000 N 
ATOM     26  C   UNL     1      -9.483   7.203 130.209  0.00  0.00    +0.000 C 
ATOM     27  C   UNL     1     -10.713   7.444 129.372  0.00  0.00    +0.000 A 
ATOM     28  C   UNL     1     -10.720   7.450 127.991  0.00  0.00    +0.000 A 
ATOM     29  C   UNL     1     -11.926   7.625 127.323  0.00  0.00    +0.000 A 
ATOM     30  C   UNL     1     -13.099   7.888 128.045  0.00  0.00    +0.000 A 
ATOM     31  C   UNL     1     -13.107   7.789 129.444  0.00  0.00    +0.000 A 
ATOM     32  C   UNL     1     -11.930   7.365 130.067  0.00  0.00    +0.000 A 
ATOM     33  C   UNL     1     -11.758   6.388 131.284  0.00  0.00    +0.000 C 
ATOM     34  C   UNL     1     -10.585   5.240 130.757  0.00  0.00    +0.000 C 
BRANCH  34  35
ATOM     35  C   UNL     1     -10.272   3.725 130.382  0.00  0.00    +0.000 C 
ATOM     36  N   UNL     1     -10.627   2.810 131.364  0.00  0.00    +0.000 N 
ATOM     37  O   UNL     1      -9.580   3.331 129.451  0.00  0.00    +0.000 OA
ATOM     38  H   UNL     1     -10.359   3.047 132.318  0.00  0.00    +0.000 HD
ATOM     39  H   UNL     1     -10.920   1.858 131.187  0.00  0.00    +0.000 HD
ENDBRANCH  34  35
ENDBRANCH  22  23
ENDBRANCH   1  22
TORSDOF 9
ENDMDL
MODEL 9
REMARK VINA RESULT:      -8.5      3.480      6.948
REMARK  Name = CHEMBL198622
REMARK  11 active torsions:
REMARK  status: ('A' for Active; 'I' for Inactive)
REMARK    1  A    between atoms: C_1  and  C_2
REMARK    2  A    between atoms: C_2  and  O_3
REMARK    3  A    between atoms: O_3  and  C_4
REMARK    4  A    between atoms: C_7  and  S_8
REMARK    5  A    between atoms: S_8  and  N_11
REMARK    6  A    between atoms: N_11  and  C_12
REMARK    7  A    between atoms: N_11  and  C_28
REMARK    8  A    between atoms: C_12  and  C_13
REMARK    9  A    between atoms: C_24  and  C_25
REMARK   10  A    between atoms: C_31  and  O_32
REMARK   11  A    between atoms: O_32  and  C_33
REMARK                            x       y       z     vdW  Elec       q    Type
REMARK                         _______ _______ _______ _____ _____    ______ ____
ROOT
ATOM      1  N   UNL     1      -9.695   4.985 130.697  0.00  0.00    +0.000 N 
ENDROOT
BRANCH   1   2
ATOM      2  C   UNL     1     -10.642   5.967 130.013  0.00  0.00    +0.000 A 
ATOM      3  C   UNL     1     -10.176   7.252 129.618  0.00  0.00    +0.000 A 
ATOM      4  C   UNL     1     -11.038   8.279 129.141  0.00  0.00    +0.000 A 
ATOM      5  C   UNL     1     -12.403   8.046 129.006  0.00  0.00    +0.000 A 
ATOM      6  C   UNL     1     -12.896   6.827 129.468  0.00  0.00    +0.000 A 
ATOM      7  C   UNL     1     -12.035   5.819 129.988  0.00  0.00    +0.000 A 
BRANCH   5   8
ATOM      8  O   UNL     1     -13.141   9.047 128.429  0.00  0.00    +0.000 OA
ATOM      9  C   UNL     1     -13.347  10.215 129.224  0.00  0.00    +0.000 C 
ENDBRANCH   5   8
ENDBRANCH   1   2
BRANCH   1  10
ATOM     10  S   UNL     1      -8.945   5.392 132.209  0.00  0.00    +0.000 S 
ATOM     11  O   UNL     1      -8.788   4.127 132.900  0.00  0.00    +0.000 OA
ATOM     12  O   UNL     1      -9.758   6.441 132.800  0.00  0.00    +0.000 OA
BRANCH  10  16
ATOM     13  C   UNL     1      -4.417   6.580 131.440  0.00  0.00    +0.000 A 
ATOM     14  C   UNL     1      -5.443   7.243 130.787  0.00  0.00    +0.000 A 
ATOM     15  C   UNL     1      -6.833   6.989 131.111  0.00  0.00    +0.000 A 
ATOM     16  C   UNL     1      -7.222   6.104 132.137  0.00  0.00    +0.000 A 
ATOM     17  C   UNL     1      -6.198   5.789 132.997  0.00  0.00    +0.000 A 
ATOM     18  C   UNL     1      -4.829   6.009 132.614  0.00  0.00    +0.000 A 
BRANCH  13  19
ATOM     19  O   UNL     1      -3.083   6.677 131.113  0.00  0.00    +0.000 OA
BRANCH  19  21
ATOM     20  C   UNL     1      -0.774   6.581 132.000  0.00  0.00    +0.000 C 
ATOM     21  C   UNL     1      -2.156   7.239 132.099  0.00  0.00    +0.000 C 
ENDBRANCH  19  21
ENDBRANCH  13  19
ENDBRANCH  10  16
ENDBRANCH   1  10
BRANCH   1  22
ATOM     22  C   UNL     1      -9.087   4.064 129.725  0.00  0.00    +0.000 C 
BRANCH  22  23
ATOM     23  C   UNL     1      -8.171   4.386 128.535  0.00  0.00    +0.000 C 
ATOM     24  O   UNL     1      -8.627   5.038 127.571  0.00  0.00    +0.000 OA
ATOM     25  N   UNL     1      -6.815   3.882 128.534  0.00  0.00    +0.000 N 
ATOM     26  C   UNL     1      -5.755   4.820 128.268  0.00  0.00    +0.000 C 
ATOM     27  C   UNL     1      -4.463   4.289 127.703  0.00  0.00    +0.000 A 
ATOM     28  C   UNL     1      -3.357   3.972 128.468  0.00  0.00    +0.000 A 
ATOM     29  C   UNL     1      -2.238   3.434 127.844  0.00  0.00    +0.000 A 
ATOM     30  C   UNL     1      -2.202   3.306 126.448  0.00  0.00    +0.000 A 
ATOM     31  C   UNL     1      -3.357   3.540 125.686  0.00  0.00    +0.000 A 
ATOM     32  C   UNL     1      -4.534   3.840 126.375  0.00  0.00    +0.000 A 
ATOM     33  C   UNL     1      -5.998   3.352 126.082  0.00  0.00    +0.000 C 
ATOM     34  C   UNL     1      -6.569   2.758 127.596  0.00  0.00    +0.000 C 
BRANCH  34  35
ATOM     35  C   UNL     1      -7.055   1.499 128.441  0.00  0.00    +0.000 C 
ATOM     36  N   UNL     1      -6.223   1.170 129.502  0.00  0.00    +0.000 N 
ATOM     37  O   UNL     1      -7.929   0.701 128.126  0.00  0.00    +0.000 OA
ATOM     38  H   UNL     1      -5.224   1.152 129.302  0.00  0.00    +0.000 HD
ATOM     39  H   UNL     1      -6.530   0.743 130.367  0.00  0.00    +0.000 HD
ENDBRANCH  34  35
ENDBRANCH  22  23
ENDBRANCH   1  22
TORSDOF 9
ENDMDL
