MODEL 1
REMARK VINA RESULT:     -10.1      0.000      0.000
REMARK  Name = CHEMBL377315
REMARK  9 active torsions:
REMARK  status: ('A' for Active; 'I' for Inactive)
REMARK    1  A    between atoms: CD1_1  and  CG_2
REMARK    2  A    between atoms: CG_2  and  CD2_3
REMARK    3  A    between atoms: CG_2  and  CB_4
REMARK    4  A    between atoms: CB_4  and  CA_5
REMARK    5  A    between atoms: C_9  and  C_10
REMARK    6  A    between atoms: N_21  and  C_22
REMARK    7  A    between atoms: C_22  and  C_23
REMARK    8  A    between atoms: C_22  and  C_30
REMARK    9  A    between atoms: C_27  and  O_28
REMARK                            x       y       z     vdW  Elec       q    Type
REMARK                         _______ _______ _______ _____ _____    ______ ____
ROOT
ATOM      1  CA  LEU A   2      -8.843   3.351 131.225  0.00  0.00    +0.000 C 
ATOM      2  C   LEU A   2      -8.836   4.033 129.740  0.00  0.00    +0.000 C 
ATOM      3  O   LEU A   2      -8.507   3.567 128.669  0.00  0.00    +0.000 OA
ATOM      4  N   UNK A   1      -9.424   5.268 129.689  0.00  0.00    +0.000 N 
ATOM      5  C   UNK A   1     -10.355   5.681 130.712  0.00  0.00    +0.000 C 
ATOM      6  C   UNK A   1      -9.631   5.599 132.016  0.00  0.00    +0.000 C 
ATOM      7  O   UNK A   1      -9.805   6.442 132.870  0.00  0.00    +0.000 OA
ATOM      8  N   LEU A   2      -8.749   4.543 132.101  0.00  0.00    +0.000 N 
ATOM      9  H   UNK A   1      -9.473   5.660 128.752  0.00  0.00    +0.000 HD
ENDROOT
BRANCH   5  10
ATOM     10  C   UNK A   1     -10.752   7.159 130.626  0.00  0.00    +0.000 C 
ATOM     11  C   UNK A   1     -12.255   7.272 130.449  0.00  0.00    +0.000 C 
ATOM     12  C   UNK A   1     -12.354   7.319 128.958  0.00  0.00    +0.000 A 
ATOM     13  C   UNK A   1     -13.442   6.964 128.192  0.00  0.00    +0.000 A 
ATOM     14  C   UNK A   1     -13.297   6.966 126.807  0.00  0.00    +0.000 A 
ATOM     15  C   UNK A   1     -12.071   7.303 126.207  0.00  0.00    +0.000 A 
ATOM     16  C   UNK A   1     -10.965   7.641 126.988  0.00  0.00    +0.000 A 
ATOM     17  C   UNK A   1     -11.127   7.653 128.362  0.00  0.00    +0.000 A 
ATOM     18  C   UNK A   1     -10.080   7.869 129.407  0.00  0.00    +0.000 C 
ENDBRANCH   5  10
BRANCH   1  19
ATOM     19  CB  LEU A   2      -7.743   2.215 131.529  0.00  0.00    +0.000 C 
BRANCH  19  21
ATOM     20  CD1 LEU A   2      -7.771   0.135 129.566  0.00  0.00    +0.000 C 
ATOM     21  CG  LEU A   2      -7.019   0.930 130.652  0.00  0.00    +0.000 C 
ATOM     22  CD2 LEU A   2      -5.951   1.297 129.604  0.00  0.00    +0.000 C 
ENDBRANCH  19  21
ENDBRANCH   1  19
BRANCH   8  23
ATOM     23  C   UNK A   0      -7.502   4.872 132.745  0.00  0.00    +0.000 C 
BRANCH  23  24
ATOM     24  C   UNK A   0      -6.316   5.333 131.766  0.00  0.00    +0.000 A 
ATOM     25  C   UNK A   0      -5.219   4.444 131.452  0.00  0.00    +0.000 A 
ATOM     26  C   UNK A   0      -4.019   4.928 130.905  0.00  0.00    +0.000 A 
ATOM     27  C   UNK A   0      -3.961   6.249 130.498  0.00  0.00    +0.000 A 
ATOM     28  F   UNK A   0      -2.813   6.764 130.041  0.00  0.00    +0.000 F 
ATOM     29  C   UNK A   0      -5.086   7.049 130.567  0.00  0.00    +0.000 A 
ATOM     30  C   UNK A   0      -6.245   6.581 131.177  0.00  0.00    +0.000 A 
ATOM     31  F   UNK A   0      -7.285   7.405 131.144  0.00  0.00    +0.000 F 
ENDBRANCH  23  24
BRANCH  23  32
ATOM     32  C   UNK A   0      -7.138   4.181 134.472  0.00  0.00    +0.000 C 
ATOM     33  O   UNK A   0      -6.596   3.067 134.564  0.00  0.00    +0.000 OA
ATOM     34  N   UNK A   0      -6.894   5.045 135.701  0.00  0.00    +0.000 N 
ATOM     35  C   UNK A   0      -7.627   6.029 136.552  0.00  0.00    +0.000 C 
ATOM     36  C   UNK A   0      -6.320   6.429 137.242  0.00  0.00    +0.000 C 
ATOM     37  C   UNK A   0      -5.796   5.040 136.752  0.00  0.00    +0.000 C 
BRANCH  36  38
ATOM     38  O   UNK A   0      -5.640   7.691 136.933  0.00  0.00    +0.000 OA
ATOM     39  H   UNK A   0      -6.282   8.410 136.824  0.00  0.00    +0.000 HD
ENDBRANCH  36  38
ENDBRANCH  23  32
ENDBRANCH   8  23
TORSDOF 7
ENDMDL
MODEL 2
REMARK VINA RESULT:      -9.9      2.508      3.815
REMARK  Name = CHEMBL377315
REMARK  9 active torsions:
REMARK  status: ('A' for Active; 'I' for Inactive)
REMARK    1  A    between atoms: CD1_1  and  CG_2
REMARK    2  A    between atoms: CG_2  and  CD2_3
REMARK    3  A    between atoms: CG_2  and  CB_4
REMARK    4  A    between atoms: CB_4  and  CA_5
REMARK    5  A    between atoms: C_9  and  C_10
REMARK    6  A    between atoms: N_21  and  C_22
REMARK    7  A    between atoms: C_22  and  C_23
REMARK    8  A    between atoms: C_22  and  C_30
REMARK    9  A    between atoms: C_27  and  O_28
REMARK                            x       y       z     vdW  Elec       q    Type
REMARK                         _______ _______ _______ _____ _____    ______ ____
ROOT
ATOM      1  CA  LEU A   2      -8.605   2.196 129.953  0.00  0.00    +0.000 C 
ATOM      2  C   LEU A   2      -8.545   3.489 128.955  0.00  0.00    +0.000 C 
ATOM      3  O   LEU A   2      -8.365   3.541 127.757  0.00  0.00    +0.000 OA
ATOM      4  N   UNK A   1      -8.893   4.671 129.551  0.00  0.00    +0.000 N 
ATOM      5  C   UNK A   1      -9.676   4.681 130.763  0.00  0.00    +0.000 C 
ATOM      6  C   UNK A   1      -8.915   3.891 131.778  0.00  0.00    +0.000 C 
ATOM      7  O   UNK A   1      -8.883   4.247 132.937  0.00  0.00    +0.000 OA
ATOM      8  N   LEU A   2      -8.245   2.807 131.254  0.00  0.00    +0.000 N 
ATOM      9  H   UNK A   1      -8.914   5.461 128.911  0.00  0.00    +0.000 HD
ENDROOT
BRANCH   5  10
ATOM     10  C   UNK A   1      -9.792   6.064 131.413  0.00  0.00    +0.000 C 
ATOM     11  C   UNK A   1     -11.255   6.399 131.639  0.00  0.00    +0.000 C 
ATOM     12  C   UNK A   1     -11.566   7.136 130.378  0.00  0.00    +0.000 A 
ATOM     13  C   UNK A   1     -12.805   7.288 129.795  0.00  0.00    +0.000 A 
ATOM     14  C   UNK A   1     -12.873   7.913 128.552  0.00  0.00    +0.000 A 
ATOM     15  C   UNK A   1     -11.710   8.361 127.902  0.00  0.00    +0.000 A 
ATOM     16  C   UNK A   1     -10.455   8.187 128.486  0.00  0.00    +0.000 A 
ATOM     17  C   UNK A   1     -10.403   7.581 129.729  0.00  0.00    +0.000 A 
ATOM     18  C   UNK A   1      -9.188   7.184 130.505  0.00  0.00    +0.000 C 
ENDBRANCH   5  10
BRANCH   1  19
ATOM     19  CB  LEU A   2      -7.725   0.907 129.557  0.00  0.00    +0.000 C 
BRANCH  19  21
ATOM     20  CD1 LEU A   2      -8.146   0.138 126.835  0.00  0.00    +0.000 C 
ATOM     21  CG  LEU A   2      -7.265   0.124 128.101  0.00  0.00    +0.000 C 
ATOM     22  CD2 LEU A   2      -6.125   0.757 127.282  0.00  0.00    +0.000 C 
ENDBRANCH  19  21
ENDBRANCH   1  19
BRANCH   8  23
ATOM     23  C   UNK A   0      -6.927   2.611 131.806  0.00  0.00    +0.000 C 
BRANCH  23  24
ATOM     24  C   UNK A   0      -5.771   3.537 131.185  0.00  0.00    +0.000 A 
ATOM     25  C   UNK A   0      -4.982   3.091 130.058  0.00  0.00    +0.000 A 
ATOM     26  C   UNK A   0      -3.762   3.706 129.730  0.00  0.00    +0.000 A 
ATOM     27  C   UNK A   0      -3.406   4.867 130.392  0.00  0.00    +0.000 A 
ATOM     28  F   UNK A   0      -2.218   5.439 130.159  0.00  0.00    +0.000 F 
ATOM     29  C   UNK A   0      -4.270   5.442 131.305  0.00  0.00    +0.000 A 
ATOM     30  C   UNK A   0      -5.440   4.788 131.673  0.00  0.00    +0.000 A 
ATOM     31  F   UNK A   0      -6.228   5.446 132.513  0.00  0.00    +0.000 F 
ENDBRANCH  23  24
BRANCH  23  32
ATOM     32  C   UNK A   0      -6.517   0.978 132.675  0.00  0.00    +0.000 C 
ATOM     33  O   UNK A   0      -7.429   0.373 133.263  0.00  0.00    +0.000 OA
ATOM     34  N   UNK A   0      -5.385   0.050 132.255  0.00  0.00    +0.000 N 
ATOM     35  C   UNK A   0      -3.895   0.057 132.165  0.00  0.00    +0.000 C 
ATOM     36  C   UNK A   0      -3.922  -1.236 131.347  0.00  0.00    +0.000 C 
ATOM     37  C   UNK A   0      -5.339  -1.443 131.977  0.00  0.00    +0.000 C 
BRANCH  36  38
ATOM     38  O   UNK A   0      -3.687  -1.238 129.900  0.00  0.00    +0.000 OA
ATOM     39  H   UNK A   0      -4.524  -1.302 129.415  0.00  0.00    +0.000 HD
ENDBRANCH  36  38
ENDBRANCH  23  32
ENDBRANCH   8  23
TORSDOF 7
ENDMDL
MODEL 3
REMARK VINA RESULT:      -9.7      2.781      3.963
REMARK  Name = CHEMBL377315
REMARK  9 active torsions:
REMARK  status: ('A' for Active; 'I' for Inactive)
REMARK    1  A    between atoms: CD1_1  and  CG_2
REMARK    2  A    between atoms: CG_2  and  CD2_3
REMARK    3  A    between atoms: CG_2  and  CB_4
REMARK    4  A    between atoms: CB_4  and  CA_5
REMARK    5  A    between atoms: C_9  and  C_10
REMARK    6  A    between atoms: N_21  and  C_22
REMARK    7  A    between atoms: C_22  and  C_23
REMARK    8  A    between atoms: C_22  and  C_30
REMARK    9  A    between atoms: C_27  and  O_28
REMARK                            x       y       z     vdW  Elec       q    Type
REMARK                         _______ _______ _______ _____ _____    ______ ____
ROOT
ATOM      1  CA  LEU A   2      -7.178   2.813 128.930  0.00  0.00    +0.000 C 
ATOM      2  C   LEU A   2      -7.590   4.218 128.202  0.00  0.00    +0.000 C 
ATOM      3  O   LEU A   2      -7.431   4.577 127.054  0.00  0.00    +0.000 OA
ATOM      4  N   UNK A   1      -8.354   5.047 128.978  0.00  0.00    +0.000 N 
ATOM      5  C   UNK A   1      -9.097   4.525 130.100  0.00  0.00    +0.000 C 
ATOM      6  C   UNK A   1      -8.107   3.870 131.009  0.00  0.00    +0.000 C 
ATOM      7  O   UNK A   1      -8.220   3.967 132.212  0.00  0.00    +0.000 OA
ATOM      8  N   LEU A   2      -7.080   3.231 130.349  0.00  0.00    +0.000 N 
ATOM      9  H   UNK A   1      -8.659   5.890 128.499  0.00  0.00    +0.000 HD
ENDROOT
BRANCH   5  10
ATOM     10  C   UNK A   1      -9.719   5.609 130.987  0.00  0.00    +0.000 C 
ATOM     11  C   UNK A   1     -11.233   5.524 130.909  0.00  0.00    +0.000 C 
ATOM     12  C   UNK A   1     -11.506   6.489 129.802  0.00  0.00    +0.000 A 
ATOM     13  C   UNK A   1     -12.608   6.507 128.976  0.00  0.00    +0.000 A 
ATOM     14  C   UNK A   1     -12.623   7.419 127.922  0.00  0.00    +0.000 A 
ATOM     15  C   UNK A   1     -11.539   8.284 127.698  0.00  0.00    +0.000 A 
ATOM     16  C   UNK A   1     -10.415   8.248 128.524  0.00  0.00    +0.000 A 
ATOM     17  C   UNK A   1     -10.419   7.351 129.577  0.00  0.00    +0.000 A 
ATOM     18  C   UNK A   1      -9.305   7.044 130.525  0.00  0.00    +0.000 C 
ENDBRANCH   5  10
BRANCH   1  19
ATOM     19  CB  LEU A   2      -5.882   2.037 128.374  0.00  0.00    +0.000 C 
BRANCH  19  21
ATOM     20  CD1 LEU A   2      -5.895   1.774 125.526  0.00  0.00    +0.000 C 
ATOM     21  CG  LEU A   2      -5.112   1.850 126.852  0.00  0.00    +0.000 C 
ATOM     22  CD2 LEU A   2      -4.337   3.058 126.294  0.00  0.00    +0.000 C 
ENDBRANCH  19  21
ENDBRANCH   1  19
BRANCH   8  23
ATOM     23  C   UNK A   0      -5.788   3.412 130.963  0.00  0.00    +0.000 C 
BRANCH  23  24
ATOM     24  C   UNK A   0      -5.037   4.785 130.605  0.00  0.00    +0.000 A 
ATOM     25  C   UNK A   0      -5.484   6.046 131.156  0.00  0.00    +0.000 A 
ATOM     26  C   UNK A   0      -5.085   7.271 130.596  0.00  0.00    +0.000 A 
ATOM     27  C   UNK A   0      -4.111   7.266 129.615  0.00  0.00    +0.000 A 
ATOM     28  F   UNK A   0      -3.759   8.406 129.007  0.00  0.00    +0.000 F 
ATOM     29  C   UNK A   0      -3.496   6.083 129.249  0.00  0.00    +0.000 A 
ATOM     30  C   UNK A   0      -3.949   4.870 129.757  0.00  0.00    +0.000 A 
ATOM     31  F   UNK A   0      -3.259   3.798 129.388  0.00  0.00    +0.000 F 
ENDBRANCH  23  24
BRANCH  23  32
ATOM     32  C   UNK A   0      -4.827   1.895 131.568  0.00  0.00    +0.000 C 
ATOM     33  O   UNK A   0      -3.775   2.074 132.204  0.00  0.00    +0.000 OA
ATOM     34  N   UNK A   0      -5.468   0.549 131.878  0.00  0.00    +0.000 N 
ATOM     35  C   UNK A   0      -6.199  -0.542 131.168  0.00  0.00    +0.000 C 
ATOM     36  C   UNK A   0      -6.591  -1.171 132.507  0.00  0.00    +0.000 C 
ATOM     37  C   UNK A   0      -5.376  -0.373 133.083  0.00  0.00    +0.000 C 
BRANCH  36  38
ATOM     38  O   UNK A   0      -7.948  -1.053 133.047  0.00  0.00    +0.000 OA
ATOM     39  H   UNK A   0      -8.049  -1.593 133.846  0.00  0.00    +0.000 HD
ENDBRANCH  36  38
ENDBRANCH  23  32
ENDBRANCH   8  23
TORSDOF 7
ENDMDL
MODEL 4
REMARK VINA RESULT:      -9.5      3.837      7.185
REMARK  Name = CHEMBL377315
REMARK  9 active torsions:
REMARK  status: ('A' for Active; 'I' for Inactive)
REMARK    1  A    between atoms: CD1_1  and  CG_2
REMARK    2  A    between atoms: CG_2  and  CD2_3
REMARK    3  A    between atoms: CG_2  and  CB_4
REMARK    4  A    between atoms: CB_4  and  CA_5
REMARK    5  A    between atoms: C_9  and  C_10
REMARK    6  A    between atoms: N_21  and  C_22
REMARK    7  A    between atoms: C_22  and  C_23
REMARK    8  A    between atoms: C_22  and  C_30
REMARK    9  A    between atoms: C_27  and  O_28
REMARK                            x       y       z     vdW  Elec       q    Type
REMARK                         _______ _______ _______ _____ _____    ______ ____
ROOT
ATOM      1  CA  LEU A   2      -7.282   1.453 129.538  0.00  0.00    +0.000 C 
ATOM      2  C   LEU A   2      -6.259   0.480 128.715  0.00  0.00    +0.000 C 
ATOM      3  O   LEU A   2      -5.400  -0.273 129.123  0.00  0.00    +0.000 OA
ATOM      4  N   UNK A   1      -6.516   0.408 127.372  0.00  0.00    +0.000 N 
ATOM      5  C   UNK A   1      -7.816   0.759 126.853  0.00  0.00    +0.000 C 
ATOM      6  C   UNK A   1      -8.083   2.169 127.270  0.00  0.00    +0.000 C 
ATOM      7  O   UNK A   1      -8.638   2.939 126.515  0.00  0.00    +0.000 OA
ATOM      8  N   LEU A   2      -7.598   2.483 128.521  0.00  0.00    +0.000 N 
ATOM      9  H   UNK A   1      -5.917  -0.247 126.875  0.00  0.00    +0.000 HD
ENDROOT
BRANCH   5  10
ATOM     10  C   UNK A   1      -7.871   0.833 125.323  0.00  0.00    +0.000 C 
ATOM     11  C   UNK A   1      -9.005  -0.038 124.812  0.00  0.00    +0.000 C 
ATOM     12  C   UNK A   1      -8.279  -1.321 124.571  0.00  0.00    +0.000 A 
ATOM     13  C   UNK A   1      -8.824  -2.586 124.547  0.00  0.00    +0.000 A 
ATOM     14  C   UNK A   1      -7.959  -3.671 124.422  0.00  0.00    +0.000 A 
ATOM     15  C   UNK A   1      -6.569  -3.482 124.339  0.00  0.00    +0.000 A 
ATOM     16  C   UNK A   1      -6.019  -2.201 124.385  0.00  0.00    +0.000 A 
ATOM     17  C   UNK A   1      -6.890  -1.131 124.491  0.00  0.00    +0.000 A 
ATOM     18  C   UNK A   1      -6.550   0.314 124.669  0.00  0.00    +0.000 C 
ENDBRANCH   5  10
BRANCH   1  19
ATOM     19  CB  LEU A   2      -6.777   2.043 130.948  0.00  0.00    +0.000 C 
BRANCH  19  21
ATOM     20  CD1 LEU A   2      -7.438   3.638 133.228  0.00  0.00    +0.000 C 
ATOM     21  CG  LEU A   2      -7.458   2.276 132.507  0.00  0.00    +0.000 C 
ATOM     22  CD2 LEU A   2      -8.994   2.269 132.620  0.00  0.00    +0.000 C 
ENDBRANCH  19  21
ENDBRANCH   1  19
BRANCH   8  23
ATOM     23  C   UNK A   0      -6.996   3.791 128.604  0.00  0.00    +0.000 C 
BRANCH  23  24
ATOM     24  C   UNK A   0      -5.514   3.911 127.996  0.00  0.00    +0.000 A 
ATOM     25  C   UNK A   0      -5.301   4.083 126.576  0.00  0.00    +0.000 A 
ATOM     26  C   UNK A   0      -4.049   3.837 125.989  0.00  0.00    +0.000 A 
ATOM     27  C   UNK A   0      -2.965   3.600 126.815  0.00  0.00    +0.000 A 
ATOM     28  F   UNK A   0      -1.773   3.289 126.291  0.00  0.00    +0.000 F 
ATOM     29  C   UNK A   0      -3.105   3.676 128.188  0.00  0.00    +0.000 A 
ATOM     30  C   UNK A   0      -4.362   3.848 128.757  0.00  0.00    +0.000 A 
ATOM     31  F   UNK A   0      -4.385   3.962 130.079  0.00  0.00    +0.000 F 
ENDBRANCH  23  24
BRANCH  23  32
ATOM     32  C   UNK A   0      -7.635   5.027 129.890  0.00  0.00    +0.000 C 
ATOM     33  O   UNK A   0      -6.860   5.906 130.305  0.00  0.00    +0.000 OA
ATOM     34  N   UNK A   0      -9.095   5.432 130.029  0.00  0.00    +0.000 N 
ATOM     35  C   UNK A   0     -10.409   4.814 130.377  0.00  0.00    +0.000 C 
ATOM     36  C   UNK A   0     -11.145   6.065 129.889  0.00  0.00    +0.000 C 
ATOM     37  C   UNK A   0      -9.776   6.789 130.110  0.00  0.00    +0.000 C 
BRANCH  36  38
ATOM     38  O   UNK A   0     -11.861   6.089 128.611  0.00  0.00    +0.000 OA
ATOM     39  H   UNK A   0     -12.143   6.990 128.391  0.00  0.00    +0.000 HD
ENDBRANCH  36  38
ENDBRANCH  23  32
ENDBRANCH   8  23
TORSDOF 7
ENDMDL
MODEL 5
REMARK VINA RESULT:      -9.5      2.606      3.401
REMARK  Name = CHEMBL377315
REMARK  9 active torsions:
REMARK  status: ('A' for Active; 'I' for Inactive)
REMARK    1  A    between atoms: CD1_1  and  CG_2
REMARK    2  A    between atoms: CG_2  and  CD2_3
REMARK    3  A    between atoms: CG_2  and  CB_4
REMARK    4  A    between atoms: CB_4  and  CA_5
REMARK    5  A    between atoms: C_9  and  C_10
REMARK    6  A    between atoms: N_21  and  C_22
REMARK    7  A    between atoms: C_22  and  C_23
REMARK    8  A    between atoms: C_22  and  C_30
REMARK    9  A    between atoms: C_27  and  O_28
REMARK                            x       y       z     vdW  Elec       q    Type
REMARK                         _______ _______ _______ _____ _____    ______ ____
ROOT
ATOM      1  CA  LEU A   2      -8.726   2.146 130.078  0.00  0.00    +0.000 C 
ATOM      2  C   LEU A   2      -8.581   3.418 129.062  0.00  0.00    +0.000 C 
ATOM      3  O   LEU A   2      -8.353   3.443 127.871  0.00  0.00    +0.000 OA
ATOM      4  N   UNK A   1      -8.907   4.623 129.625  0.00  0.00    +0.000 N 
ATOM      5  C   UNK A   1      -9.735   4.682 130.805  0.00  0.00    +0.000 C 
ATOM      6  C   UNK A   1      -9.042   3.883 131.861  0.00  0.00    +0.000 C 
ATOM      7  O   UNK A   1      -9.042   4.259 133.015  0.00  0.00    +0.000 OA
ATOM      8  N   LEU A   2      -8.393   2.767 131.382  0.00  0.00    +0.000 N 
ATOM      9  H   UNK A   1      -8.875   5.401 128.971  0.00  0.00    +0.000 HD
ENDROOT
BRANCH   5  10
ATOM     10  C   UNK A   1      -9.824   6.080 131.427  0.00  0.00    +0.000 C 
ATOM     11  C   UNK A   1     -11.281   6.447 131.647  0.00  0.00    +0.000 C 
ATOM     12  C   UNK A   1     -11.579   7.164 130.371  0.00  0.00    +0.000 A 
ATOM     13  C   UNK A   1     -12.815   7.327 129.786  0.00  0.00    +0.000 A 
ATOM     14  C   UNK A   1     -12.872   7.928 128.530  0.00  0.00    +0.000 A 
ATOM     15  C   UNK A   1     -11.701   8.342 127.871  0.00  0.00    +0.000 A 
ATOM     16  C   UNK A   1     -10.449   8.155 128.459  0.00  0.00    +0.000 A 
ATOM     17  C   UNK A   1     -10.407   7.574 129.713  0.00  0.00    +0.000 A 
ATOM     18  C   UNK A   1      -9.201   7.170 130.497  0.00  0.00    +0.000 C 
ENDBRANCH   5  10
BRANCH   1  19
ATOM     19  CB  LEU A   2      -7.880   0.819 129.738  0.00  0.00    +0.000 C 
BRANCH  19  21
ATOM     20  CD1 LEU A   2      -5.889  -0.822 128.503  0.00  0.00    +0.000 C 
ATOM     21  CG  LEU A   2      -7.025   0.213 128.379  0.00  0.00    +0.000 C 
ATOM     22  CD2 LEU A   2      -7.771  -0.759 127.445  0.00  0.00    +0.000 C 
ENDBRANCH  19  21
ENDBRANCH   1  19
BRANCH   8  23
ATOM     23  C   UNK A   0      -7.105   2.534 131.988  0.00  0.00    +0.000 C 
BRANCH  23  24
ATOM     24  C   UNK A   0      -5.849   3.161 131.208  0.00  0.00    +0.000 A 
ATOM     25  C   UNK A   0      -5.688   4.593 131.081  0.00  0.00    +0.000 A 
ATOM     26  C   UNK A   0      -4.822   5.149 130.126  0.00  0.00    +0.000 A 
ATOM     27  C   UNK A   0      -3.981   4.306 129.422  0.00  0.00    +0.000 A 
ATOM     28  F   UNK A   0      -3.195   4.792 128.453  0.00  0.00    +0.000 F 
ATOM     29  C   UNK A   0      -3.951   2.955 129.709  0.00  0.00    +0.000 A 
ATOM     30  C   UNK A   0      -4.863   2.405 130.603  0.00  0.00    +0.000 A 
ATOM     31  F   UNK A   0      -4.717   1.110 130.851  0.00  0.00    +0.000 F 
ENDBRANCH  23  24
BRANCH  23  32
ATOM     32  C   UNK A   0      -6.892   1.083 133.189  0.00  0.00    +0.000 C 
ATOM     33  O   UNK A   0      -7.631   0.092 133.060  0.00  0.00    +0.000 OA
ATOM     34  N   UNK A   0      -5.584   0.742 133.888  0.00  0.00    +0.000 N 
ATOM     35  C   UNK A   0      -4.646   1.343 134.882  0.00  0.00    +0.000 C 
ATOM     36  C   UNK A   0      -3.598   0.274 134.562  0.00  0.00    +0.000 C 
ATOM     37  C   UNK A   0      -4.809  -0.558 134.026  0.00  0.00    +0.000 C 
BRANCH  36  38
ATOM     38  O   UNK A   0      -2.415   0.573 133.750  0.00  0.00    +0.000 OA
ATOM     39  H   UNK A   0      -1.991   1.392 134.047  0.00  0.00    +0.000 HD
ENDBRANCH  36  38
ENDBRANCH  23  32
ENDBRANCH   8  23
TORSDOF 7
ENDMDL
MODEL 6
REMARK VINA RESULT:      -9.3      3.980      8.491
REMARK  Name = CHEMBL377315
REMARK  9 active torsions:
REMARK  status: ('A' for Active; 'I' for Inactive)
REMARK    1  A    between atoms: CD1_1  and  CG_2
REMARK    2  A    between atoms: CG_2  and  CD2_3
REMARK    3  A    between atoms: CG_2  and  CB_4
REMARK    4  A    between atoms: CB_4  and  CA_5
REMARK    5  A    between atoms: C_9  and  C_10
REMARK    6  A    between atoms: N_21  and  C_22
REMARK    7  A    between atoms: C_22  and  C_23
REMARK    8  A    between atoms: C_22  and  C_30
REMARK    9  A    between atoms: C_27  and  O_28
REMARK                            x       y       z     vdW  Elec       q    Type
REMARK                         _______ _______ _______ _____ _____    ______ ____
ROOT
ATOM      1  CA  LEU A   2      -5.544   2.409 130.766  0.00  0.00    +0.000 C 
ATOM      2  C   LEU A   2      -5.138   0.988 130.067  0.00  0.00    +0.000 C 
ATOM      3  O   LEU A   2      -4.109   0.655 129.517  0.00  0.00    +0.000 OA
ATOM      4  N   UNK A   1      -6.052  -0.012 130.263  0.00  0.00    +0.000 N 
ATOM      5  C   UNK A   1      -6.995   0.058 131.353  0.00  0.00    +0.000 C 
ATOM      6  C   UNK A   1      -7.770   1.324 131.175  0.00  0.00    +0.000 C 
ATOM      7  O   UNK A   1      -8.958   1.356 131.413  0.00  0.00    +0.000 OA
ATOM      8  N   LEU A   2      -7.023   2.371 130.681  0.00  0.00    +0.000 N 
ATOM      9  H   UNK A   1      -5.765  -0.909 129.880  0.00  0.00    +0.000 HD
ENDROOT
BRANCH   5  10
ATOM     10  C   UNK A   1      -8.080  -1.024 131.301  0.00  0.00    +0.000 C 
ATOM     11  C   UNK A   1      -8.034  -1.852 132.573  0.00  0.00    +0.000 C 
ATOM     12  C   UNK A   1      -7.126  -2.959 132.147  0.00  0.00    +0.000 A 
ATOM     13  C   UNK A   1      -6.351  -3.751 132.965  0.00  0.00    +0.000 A 
ATOM     14  C   UNK A   1      -5.478  -4.656 132.365  0.00  0.00    +0.000 A 
ATOM     15  C   UNK A   1      -5.378  -4.748 130.966  0.00  0.00    +0.000 A 
ATOM     16  C   UNK A   1      -6.150  -3.929 130.142  0.00  0.00    +0.000 A 
ATOM     17  C   UNK A   1      -7.026  -3.047 130.749  0.00  0.00    +0.000 A 
ATOM     18  C   UNK A   1      -7.870  -1.999 130.098  0.00  0.00    +0.000 C 
ENDBRANCH   5  10
BRANCH   1  19
ATOM     19  CB  LEU A   2      -4.878   3.749 130.172  0.00  0.00    +0.000 C 
BRANCH  19  21
ATOM     20  CD1 LEU A   2      -2.913   3.735 128.093  0.00  0.00    +0.000 C 
ATOM     21  CG  LEU A   2      -3.359   4.182 129.501  0.00  0.00    +0.000 C 
ATOM     22  CD2 LEU A   2      -3.163   5.647 129.068  0.00  0.00    +0.000 C 
ENDBRANCH  19  21
ENDBRANCH   1  19
BRANCH   8  23
ATOM     23  C   UNK A   0      -7.712   3.168 129.697  0.00  0.00    +0.000 C 
BRANCH  23  24
ATOM     24  C   UNK A   0      -8.667   4.319 130.282  0.00  0.00    +0.000 A 
ATOM     25  C   UNK A   0      -8.122   5.574 130.752  0.00  0.00    +0.000 A 
ATOM     26  C   UNK A   0      -8.869   6.431 131.578  0.00  0.00    +0.000 A 
ATOM     27  C   UNK A   0     -10.205   6.147 131.792  0.00  0.00    +0.000 A 
ATOM     28  F   UNK A   0     -10.928   6.900 132.631  0.00  0.00    +0.000 F 
ATOM     29  C   UNK A   0     -10.803   5.081 131.148  0.00  0.00    +0.000 A 
ATOM     30  C   UNK A   0     -10.040   4.199 130.392  0.00  0.00    +0.000 A 
ATOM     31  F   UNK A   0     -10.714   3.240 129.771  0.00  0.00    +0.000 F 
ENDBRANCH  23  24
BRANCH  23  32
ATOM     32  C   UNK A   0      -7.965   2.474 127.952  0.00  0.00    +0.000 C 
ATOM     33  O   UNK A   0      -8.971   1.780 127.728  0.00  0.00    +0.000 OA
ATOM     34  N   UNK A   0      -7.423   3.128 126.688  0.00  0.00    +0.000 N 
ATOM     35  C   UNK A   0      -6.107   3.461 126.066  0.00  0.00    +0.000 C 
ATOM     36  C   UNK A   0      -6.805   4.337 125.022  0.00  0.00    +0.000 C 
ATOM     37  C   UNK A   0      -8.078   3.496 125.367  0.00  0.00    +0.000 C 
BRANCH  36  38
ATOM     38  O   UNK A   0      -6.774   5.801 125.099  0.00  0.00    +0.000 OA
ATOM     39  H   UNK A   0      -6.987   6.103 125.995  0.00  0.00    +0.000 HD
ENDBRANCH  36  38
ENDBRANCH  23  32
ENDBRANCH   8  23
TORSDOF 7
ENDMDL
MODEL 7
REMARK VINA RESULT:      -9.3      3.137      7.757
REMARK  Name = CHEMBL377315
REMARK  9 active torsions:
REMARK  status: ('A' for Active; 'I' for Inactive)
REMARK    1  A    between atoms: CD1_1  and  CG_2
REMARK    2  A    between atoms: CG_2  and  CD2_3
REMARK    3  A    between atoms: CG_2  and  CB_4
REMARK    4  A    between atoms: CB_4  and  CA_5
REMARK    5  A    between atoms: C_9  and  C_10
REMARK    6  A    between atoms: N_21  and  C_22
REMARK    7  A    between atoms: C_22  and  C_23
REMARK    8  A    between atoms: C_22  and  C_30
REMARK    9  A    between atoms: C_27  and  O_28
REMARK                            x       y       z     vdW  Elec       q    Type
REMARK                         _______ _______ _______ _____ _____    ______ ____
ROOT
ATOM      1  CA  LEU A   2      -4.388   2.191 131.849  0.00  0.00    +0.000 C 
ATOM      2  C   LEU A   2      -4.662   1.177 130.597  0.00  0.00    +0.000 C 
ATOM      3  O   LEU A   2      -4.033   1.015 129.572  0.00  0.00    +0.000 OA
ATOM      4  N   UNK A   1      -5.676   0.283 130.813  0.00  0.00    +0.000 N 
ATOM      5  C   UNK A   1      -6.105  -0.031 132.154  0.00  0.00    +0.000 C 
ATOM      6  C   UNK A   1      -6.518   1.256 132.791  0.00  0.00    +0.000 C 
ATOM      7  O   UNK A   1      -7.484   1.298 133.523  0.00  0.00    +0.000 OA
ATOM      8  N   LEU A   2      -5.748   2.337 132.418  0.00  0.00    +0.000 N 
ATOM      9  H   UNK A   1      -5.801  -0.385 130.057  0.00  0.00    +0.000 HD
ENDROOT
BRANCH   5  10
ATOM     10  C   UNK A   1      -7.383  -0.875 132.213  0.00  0.00    +0.000 C 
ATOM     11  C   UNK A   1      -7.239  -1.944 133.281  0.00  0.00    +0.000 C 
ATOM     12  C   UNK A   1      -6.711  -3.079 132.465  0.00  0.00    +0.000 A 
ATOM     13  C   UNK A   1      -5.966  -4.144 132.919  0.00  0.00    +0.000 A 
ATOM     14  C   UNK A   1      -5.466  -5.043 131.979  0.00  0.00    +0.000 A 
ATOM     15  C   UNK A   1      -5.701  -4.858 130.605  0.00  0.00    +0.000 A 
ATOM     16  C   UNK A   1      -6.438  -3.765 130.148  0.00  0.00    +0.000 A 
ATOM     17  C   UNK A   1      -6.944  -2.891 131.093  0.00  0.00    +0.000 A 
ATOM     18  C   UNK A   1      -7.661  -1.601 130.857  0.00  0.00    +0.000 C 
ENDBRANCH   5  10
BRANCH   1  19
ATOM     19  CB  LEU A   2      -3.647   3.584 131.532  0.00  0.00    +0.000 C 
BRANCH  19  21
ATOM     20  CD1 LEU A   2      -4.536   4.564 128.997  0.00  0.00    +0.000 C 
ATOM     21  CG  LEU A   2      -3.627   4.707 130.234  0.00  0.00    +0.000 C 
ATOM     22  CD2 LEU A   2      -4.236   6.099 130.488  0.00  0.00    +0.000 C 
ENDBRANCH  19  21
ENDBRANCH   1  19
BRANCH   8  23
ATOM     23  C   UNK A   0      -6.505   3.542 132.187  0.00  0.00    +0.000 C 
BRANCH  23  24
ATOM     24  C   UNK A   0      -6.667   4.513 133.455  0.00  0.00    +0.000 A 
ATOM     25  C   UNK A   0      -5.607   5.417 133.844  0.00  0.00    +0.000 A 
ATOM     26  C   UNK A   0      -5.576   6.001 135.122  0.00  0.00    +0.000 A 
ATOM     27  C   UNK A   0      -6.672   5.844 135.949  0.00  0.00    +0.000 A 
ATOM     28  F   UNK A   0      -6.648   6.323 137.199  0.00  0.00    +0.000 F 
ATOM     29  C   UNK A   0      -7.799   5.184 135.496  0.00  0.00    +0.000 A 
ATOM     30  C   UNK A   0      -7.791   4.549 134.259  0.00  0.00    +0.000 A 
ATOM     31  F   UNK A   0      -8.937   3.991 133.891  0.00  0.00    +0.000 F 
ENDBRANCH  23  24
BRANCH  23  32
ATOM     32  C   UNK A   0      -7.720   3.611 130.734  0.00  0.00    +0.000 C 
ATOM     33  O   UNK A   0      -7.832   2.611 130.006  0.00  0.00    +0.000 OA
ATOM     34  N   UNK A   0      -8.964   4.489 130.706  0.00  0.00    +0.000 N 
ATOM     35  C   UNK A   0      -9.322   5.938 130.715  0.00  0.00    +0.000 C 
ATOM     36  C   UNK A   0     -10.790   5.590 130.971  0.00  0.00    +0.000 C 
ATOM     37  C   UNK A   0     -10.418   4.189 130.383  0.00  0.00    +0.000 C 
BRANCH  36  38
ATOM     38  O   UNK A   0     -11.405   5.761 132.290  0.00  0.00    +0.000 OA
ATOM     39  H   UNK A   0     -10.885   5.311 132.973  0.00  0.00    +0.000 HD
ENDBRANCH  36  38
ENDBRANCH  23  32
ENDBRANCH   8  23
TORSDOF 7
ENDMDL
MODEL 8
REMARK VINA RESULT:      -9.3      3.071      4.797
REMARK  Name = CHEMBL377315
REMARK  9 active torsions:
REMARK  status: ('A' for Active; 'I' for Inactive)
REMARK    1  A    between atoms: CD1_1  and  CG_2
REMARK    2  A    between atoms: CG_2  and  CD2_3
REMARK    3  A    between atoms: CG_2  and  CB_4
REMARK    4  A    between atoms: CB_4  and  CA_5
REMARK    5  A    between atoms: C_9  and  C_10
REMARK    6  A    between atoms: N_21  and  C_22
REMARK    7  A    between atoms: C_22  and  C_23
REMARK    8  A    between atoms: C_22  and  C_30
REMARK    9  A    between atoms: C_27  and  O_28
REMARK                            x       y       z     vdW  Elec       q    Type
REMARK                         _______ _______ _______ _____ _____    ______ ____
ROOT
ATOM      1  CA  LEU A   2      -7.969   2.452 129.374  0.00  0.00    +0.000 C 
ATOM      2  C   LEU A   2      -8.212   3.769 128.436  0.00  0.00    +0.000 C 
ATOM      3  O   LEU A   2      -8.244   3.871 127.228  0.00  0.00    +0.000 OA
ATOM      4  N   UNK A   1      -8.571   4.892 129.132  0.00  0.00    +0.000 N 
ATOM      5  C   UNK A   1      -9.134   4.786 130.457  0.00  0.00    +0.000 C 
ATOM      6  C   UNK A   1      -8.135   4.058 131.296  0.00  0.00    +0.000 C 
ATOM      7  O   UNK A   1      -7.943   4.386 132.448  0.00  0.00    +0.000 OA
ATOM      8  N   LEU A   2      -7.457   3.065 130.622  0.00  0.00    +0.000 N 
ATOM      9  H   UNK A   1      -8.782   5.691 128.539  0.00  0.00    +0.000 HD
ENDROOT
BRANCH   5  10
ATOM     10  C   UNK A   1      -9.277   6.132 131.176  0.00  0.00    +0.000 C 
ATOM     11  C   UNK A   1     -10.715   6.318 131.626  0.00  0.00    +0.000 C 
ATOM     12  C   UNK A   1     -11.276   7.058 130.456  0.00  0.00    +0.000 A 
ATOM     13  C   UNK A   1     -12.596   7.106 130.067  0.00  0.00    +0.000 A 
ATOM     14  C   UNK A   1     -12.905   7.758 128.874  0.00  0.00    +0.000 A 
ATOM     15  C   UNK A   1     -11.897   8.336 128.083  0.00  0.00    +0.000 A 
ATOM     16  C   UNK A   1     -10.558   8.266 128.471  0.00  0.00    +0.000 A 
ATOM     17  C   UNK A   1     -10.267   7.632 129.666  0.00  0.00    +0.000 A 
ATOM     18  C   UNK A   1      -8.920   7.331 130.239  0.00  0.00    +0.000 C 
ENDBRANCH   5  10
BRANCH   1  19
ATOM     19  CB  LEU A   2      -7.043   1.276 128.782  0.00  0.00    +0.000 C 
BRANCH  19  21
ATOM     20  CD1 LEU A   2      -7.658  -1.184 130.105  0.00  0.00    +0.000 C 
ATOM     21  CG  LEU A   2      -6.929  -0.425 128.978  0.00  0.00    +0.000 C 
ATOM     22  CD2 LEU A   2      -7.657  -1.310 127.949  0.00  0.00    +0.000 C 
ENDBRANCH  19  21
ENDBRANCH   1  19
BRANCH   8  23
ATOM     23  C   UNK A   0      -6.051   2.999 130.937  0.00  0.00    +0.000 C 
BRANCH  23  24
ATOM     24  C   UNK A   0      -5.582   1.692 131.743  0.00  0.00    +0.000 A 
ATOM     25  C   UNK A   0      -4.379   0.978 131.374  0.00  0.00    +0.000 A 
ATOM     26  C   UNK A   0      -4.143  -0.334 131.815  0.00  0.00    +0.000 A 
ATOM     27  C   UNK A   0      -4.993  -0.879 132.760  0.00  0.00    +0.000 A 
ATOM     28  F   UNK A   0      -4.843  -2.152 133.148  0.00  0.00    +0.000 F 
ATOM     29  C   UNK A   0      -6.009  -0.117 133.305  0.00  0.00    +0.000 A 
ATOM     30  C   UNK A   0      -6.278   1.154 132.810  0.00  0.00    +0.000 A 
ATOM     31  F   UNK A   0      -7.236   1.825 133.435  0.00  0.00    +0.000 F 
ENDBRANCH  23  24
BRANCH  23  32
ATOM     32  C   UNK A   0      -5.032   4.597 130.978  0.00  0.00    +0.000 C 
ATOM     33  O   UNK A   0      -4.665   5.039 132.080  0.00  0.00    +0.000 OA
ATOM     34  N   UNK A   0      -4.136   5.064 129.840  0.00  0.00    +0.000 N 
ATOM     35  C   UNK A   0      -4.255   5.503 128.418  0.00  0.00    +0.000 C 
ATOM     36  C   UNK A   0      -2.737   5.409 128.245  0.00  0.00    +0.000 C 
ATOM     37  C   UNK A   0      -2.690   5.530 129.804  0.00  0.00    +0.000 C 
BRANCH  36  38
ATOM     38  O   UNK A   0      -2.111   4.304 127.514  0.00  0.00    +0.000 OA
ATOM     39  H   UNK A   0      -2.417   3.449 127.854  0.00  0.00    +0.000 HD
ENDBRANCH  36  38
ENDBRANCH  23  32
ENDBRANCH   8  23
TORSDOF 7
ENDMDL
MODEL 9
REMARK VINA RESULT:      -9.3      3.769      7.991
REMARK  Name = CHEMBL377315
REMARK  9 active torsions:
REMARK  status: ('A' for Active; 'I' for Inactive)
REMARK    1  A    between atoms: CD1_1  and  CG_2
REMARK    2  A    between atoms: CG_2  and  CD2_3
REMARK    3  A    between atoms: CG_2  and  CB_4
REMARK    4  A    between atoms: CB_4  and  CA_5
REMARK    5  A    between atoms: C_9  and  C_10
REMARK    6  A    between atoms: N_21  and  C_22
REMARK    7  A    between atoms: C_22  and  C_23
REMARK    8  A    between atoms: C_22  and  C_30
REMARK    9  A    between atoms: C_27  and  O_28
REMARK                            x       y       z     vdW  Elec       q    Type
REMARK                         _______ _______ _______ _____ _____    ______ ____
ROOT
ATOM      1  CA  LEU A   2      -5.533   2.388 130.346  0.00  0.00    +0.000 C 
ATOM      2  C   LEU A   2      -5.073   0.880 129.915  0.00  0.00    +0.000 C 
ATOM      3  O   LEU A   2      -4.000   0.474 129.522  0.00  0.00    +0.000 OA
ATOM      4  N   UNK A   1      -6.008  -0.085 130.176  0.00  0.00    +0.000 N 
ATOM      5  C   UNK A   1      -7.049   0.144 131.149  0.00  0.00    +0.000 C 
ATOM      6  C   UNK A   1      -7.795   1.362 130.707  0.00  0.00    +0.000 C 
ATOM      7  O   UNK A   1      -9.001   1.421 130.825  0.00  0.00    +0.000 OA
ATOM      8  N   LEU A   2      -6.998   2.326 130.130  0.00  0.00    +0.000 N 
ATOM      9  H   UNK A   1      -5.693  -1.028 129.964  0.00  0.00    +0.000 HD
ENDROOT
BRANCH   5  10
ATOM     10  C   UNK A   1      -8.132  -0.941 131.163  0.00  0.00    +0.000 C 
ATOM     11  C   UNK A   1      -8.080  -1.695 132.480  0.00  0.00    +0.000 C 
ATOM     12  C   UNK A   1      -7.170  -2.823 132.116  0.00  0.00    +0.000 A 
ATOM     13  C   UNK A   1      -6.391  -3.565 132.976  0.00  0.00    +0.000 A 
ATOM     14  C   UNK A   1      -5.518  -4.501 132.426  0.00  0.00    +0.000 A 
ATOM     15  C   UNK A   1      -5.423  -4.673 131.034  0.00  0.00    +0.000 A 
ATOM     16  C   UNK A   1      -6.199  -3.905 130.166  0.00  0.00    +0.000 A 
ATOM     17  C   UNK A   1      -7.075  -2.991 130.725  0.00  0.00    +0.000 A 
ATOM     18  C   UNK A   1      -7.923  -1.983 130.017  0.00  0.00    +0.000 C 
ENDBRANCH   5  10
BRANCH   1  19
ATOM     19  CB  LEU A   2      -4.805   3.626 129.619  0.00  0.00    +0.000 C 
BRANCH  19  21
ATOM     20  CD1 LEU A   2      -2.712   3.298 127.698  0.00  0.00    +0.000 C 
ATOM     21  CG  LEU A   2      -3.239   3.946 128.994  0.00  0.00    +0.000 C 
ATOM     22  CD2 LEU A   2      -2.991   5.332 128.370  0.00  0.00    +0.000 C 
ENDBRANCH  19  21
ENDBRANCH   1  19
BRANCH   8  23
ATOM     23  C   UNK A   0      -7.587   2.957 128.975  0.00  0.00    +0.000 C 
BRANCH  23  24
ATOM     24  C   UNK A   0      -7.165   2.337 127.556  0.00  0.00    +0.000 A 
ATOM     25  C   UNK A   0      -6.208   3.007 126.703  0.00  0.00    +0.000 A 
ATOM     26  C   UNK A   0      -6.093   2.686 125.340  0.00  0.00    +0.000 A 
ATOM     27  C   UNK A   0      -6.783   1.590 124.856  0.00  0.00    +0.000 A 
ATOM     28  F   UNK A   0      -6.756   1.298 123.550  0.00  0.00    +0.000 F 
ATOM     29  C   UNK A   0      -7.513   0.791 125.716  0.00  0.00    +0.000 A 
ATOM     30  C   UNK A   0      -7.678   1.159 127.047  0.00  0.00    +0.000 A 
ATOM     31  F   UNK A   0      -8.349   0.299 127.802  0.00  0.00    +0.000 F 
ENDBRANCH  23  24
BRANCH  23  32
ATOM     32  C   UNK A   0      -8.240   4.731 129.118  0.00  0.00    +0.000 C 
ATOM     33  O   UNK A   0      -8.787   5.243 128.127  0.00  0.00    +0.000 OA
ATOM     34  N   UNK A   0      -8.694   5.368 130.423  0.00  0.00    +0.000 N 
ATOM     35  C   UNK A   0      -8.121   5.768 131.743  0.00  0.00    +0.000 C 
ATOM     36  C   UNK A   0      -9.528   5.988 132.305  0.00  0.00    +0.000 C 
ATOM     37  C   UNK A   0      -9.956   6.123 130.807  0.00  0.00    +0.000 C 
BRANCH  36  38
ATOM     38  O   UNK A   0     -10.148   5.033 133.227  0.00  0.00    +0.000 OA
ATOM     39  H   UNK A   0     -10.796   5.476 133.797  0.00  0.00    +0.000 HD
ENDBRANCH  36  38
ENDBRANCH  23  32
ENDBRANCH   8  23
TORSDOF 7
ENDMDL
