MODEL 1
REMARK VINA RESULT:     -11.0      0.000      0.000
REMARK  Name = CHEMBL31802
REMARK  7 active torsions:
REMARK  status: ('A' for Active; 'I' for Inactive)
REMARK    1  A    between atoms: C_1  and  C_2
REMARK    2  A    between atoms: N_6  and  C_7
REMARK    3  A    between atoms: C_7  and  C_8
REMARK    4  A    between atoms: N_10  and  C_11
REMARK    5  A    between atoms: C_11  and  C_12
REMARK    6  A    between atoms: C_16  and  C_17
REMARK    7  A    between atoms: C_22  and  N_23
REMARK                            x       y       z     vdW  Elec       q    Type
REMARK                         _______ _______ _______ _____ _____    ______ ____
ROOT
ATOM      1  C   UNL     1      -8.766   3.915 133.231  0.00  0.00    +0.000 A 
ATOM      2  C   UNL     1      -9.210   2.957 132.341  0.00  0.00    +0.000 A 
ATOM      3  C   UNL     1      -8.375   1.829 132.497  0.00  0.00    +0.000 A 
ATOM      4  C   UNL     1      -8.302   0.551 131.909  0.00  0.00    +0.000 A 
ATOM      5  C   UNL     1      -7.290  -0.339 132.319  0.00  0.00    +0.000 A 
ATOM      6  C   UNL     1      -6.357   0.083 133.282  0.00  0.00    +0.000 A 
ATOM      7  C   UNL     1      -6.436   1.338 133.905  0.00  0.00    +0.000 A 
ATOM      8  C   UNL     1      -7.455   2.182 133.479  0.00  0.00    +0.000 A 
ATOM      9  O   UNL     1      -7.694   3.450 133.935  0.00  0.00    +0.000 OA
ENDROOT
BRANCH   5  10
ATOM     10  C   UNL     1      -7.191  -1.673 131.630  0.00  0.00    +0.000 C 
ATOM     11  O   UNL     1      -7.248  -2.714 132.280  0.00  0.00    +0.000 OA
ATOM     12  N   UNL     1      -7.137  -1.682 130.245  0.00  0.00    +0.000 N 
ATOM     13  C   UNL     1      -8.094  -2.482 129.489  0.00  0.00    +0.000 C 
ATOM     14  C   UNL     1      -7.399  -3.469 128.569  0.00  0.00    +0.000 C 
ATOM     15  C   UNL     1      -6.356  -2.765 127.674  0.00  0.00    +0.000 C 
ATOM     16  C   UNL     1      -5.361  -1.990 128.551  0.00  0.00    +0.000 C 
ATOM     17  C   UNL     1      -6.046  -1.039 129.518  0.00  0.00    +0.000 C 
BRANCH  15  18
ATOM     18  N   UNL     1      -6.983  -1.992 126.550  0.00  0.00    +0.000 N 
ATOM     19  C   UNL     1      -8.011  -1.062 126.720  0.00  0.00    +0.000 C 
ATOM     20  O   UNL     1      -8.089  -0.159 127.545  0.00  0.00    +0.000 OA
ATOM     21  O   UNL     1      -9.060  -1.268 125.888  0.00  0.00    +0.000 OA
ATOM     22  C   UNL     1      -8.689  -0.957 124.563  0.00  0.00    +0.000 C 
ATOM     23  C   UNL     1      -7.430  -1.671 124.187  0.00  0.00    +0.000 A 
ATOM     24  C   UNL     1      -7.084  -1.759 122.837  0.00  0.00    +0.000 A 
ATOM     25  C   UNL     1      -5.906  -2.392 122.469  0.00  0.00    +0.000 A 
ATOM     26  C   UNL     1      -5.072  -2.928 123.448  0.00  0.00    +0.000 A 
ATOM     27  C   UNL     1      -5.413  -2.840 124.802  0.00  0.00    +0.000 A 
ATOM     28  C   UNL     1      -6.599  -2.211 125.189  0.00  0.00    +0.000 A 
ENDBRANCH  15  18
ENDBRANCH   5  10
BRANCH   1  29
ATOM     29  C   UNL     1      -9.307   5.265 133.493  0.00  0.00    +0.000 C 
BRANCH  29  32
ATOM     30  C   UNL     1     -10.609   6.438 131.878  0.00  0.00    +0.000 C 
ATOM     31  O   UNL     1      -9.503   6.854 131.547  0.00  0.00    +0.000 OA
ATOM     32  N   UNL     1     -10.621   5.556 132.938  0.00  0.00    +0.000 N 
ATOM     33  H   UNL     1     -11.443   5.111 133.321  0.00  0.00    +0.000 HD
BRANCH  30  34
ATOM     34  C   UNL     1     -11.922   6.863 131.173  0.00  0.00    +0.000 C 
BRANCH  34  40
ATOM     35  C   UNL     1     -11.406   7.446 126.327  0.00  0.00    +0.000 C 
ATOM     36  C   UNL     1     -11.241   8.127 127.679  0.00  0.00    +0.000 C 
ATOM     37  O   UNL     1     -12.334   8.893 128.149  0.00  0.00    +0.000 OA
ATOM     38  C   UNL     1     -12.391   8.683 129.506  0.00  0.00    +0.000 C 
ATOM     39  O   UNL     1     -12.895   9.490 130.272  0.00  0.00    +0.000 OA
ATOM     40  N   UNL     1     -11.810   7.500 129.831  0.00  0.00    +0.000 N 
ATOM     41  C   UNL     1     -11.098   7.098 128.746  0.00  0.00    +0.000 C 
ATOM     42  O   UNL     1     -10.395   6.122 128.547  0.00  0.00    +0.000 OA
ENDBRANCH  34  40
ENDBRANCH  30  34
ENDBRANCH  29  32
ENDBRANCH   1  29
TORSDOF 6
ENDMDL
MODEL 2
REMARK VINA RESULT:     -10.3      2.391      9.100
REMARK  Name = CHEMBL31802
REMARK  7 active torsions:
REMARK  status: ('A' for Active; 'I' for Inactive)
REMARK    1  A    between atoms: C_1  and  C_2
REMARK    2  A    between atoms: N_6  and  C_7
REMARK    3  A    between atoms: C_7  and  C_8
REMARK    4  A    between atoms: N_10  and  C_11
REMARK    5  A    between atoms: C_11  and  C_12
REMARK    6  A    between atoms: C_16  and  C_17
REMARK    7  A    between atoms: C_22  and  N_23
REMARK                            x       y       z     vdW  Elec       q    Type
REMARK                         _______ _______ _______ _____ _____    ______ ____
ROOT
ATOM      1  C   UNL     1      -8.290  -2.866 127.478  0.00  0.00    +0.000 A 
ATOM      2  C   UNL     1      -8.203  -1.493 127.611  0.00  0.00    +0.000 A 
ATOM      3  C   UNL     1      -7.868  -1.230 128.957  0.00  0.00    +0.000 A 
ATOM      4  C   UNL     1      -7.631  -0.068 129.718  0.00  0.00    +0.000 A 
ATOM      5  C   UNL     1      -7.324  -0.191 131.086  0.00  0.00    +0.000 A 
ATOM      6  C   UNL     1      -7.294  -1.471 131.667  0.00  0.00    +0.000 A 
ATOM      7  C   UNL     1      -7.491  -2.641 130.918  0.00  0.00    +0.000 A 
ATOM      8  C   UNL     1      -7.781  -2.475 129.569  0.00  0.00    +0.000 A 
ATOM      9  O   UNL     1      -8.030  -3.476 128.670  0.00  0.00    +0.000 OA
ENDROOT
BRANCH   5  10
ATOM     10  C   UNL     1      -7.140   1.066 131.893  0.00  0.00    +0.000 C 
ATOM     11  O   UNL     1      -6.282   1.121 132.770  0.00  0.00    +0.000 OA
ATOM     12  N   UNL     1      -7.897   2.173 131.544  0.00  0.00    +0.000 N 
ATOM     13  C   UNL     1      -7.235   3.443 131.266  0.00  0.00    +0.000 C 
ATOM     14  C   UNL     1      -7.759   4.556 132.154  0.00  0.00    +0.000 C 
ATOM     15  C   UNL     1      -9.299   4.648 132.089  0.00  0.00    +0.000 C 
ATOM     16  C   UNL     1      -9.914   3.286 132.443  0.00  0.00    +0.000 C 
ATOM     17  C   UNL     1      -9.356   2.151 131.601  0.00  0.00    +0.000 C 
BRANCH  15  18
ATOM     18  N   UNL     1      -9.790   5.281 130.819  0.00  0.00    +0.000 N 
ATOM     19  C   UNL     1      -9.281   4.987 129.552  0.00  0.00    +0.000 C 
ATOM     20  O   UNL     1      -9.059   3.887 129.060  0.00  0.00    +0.000 OA
ATOM     21  O   UNL     1      -8.944   6.091 128.844  0.00  0.00    +0.000 OA
ATOM     22  C   UNL     1     -10.108   6.791 128.463  0.00  0.00    +0.000 C 
ATOM     23  C   UNL     1     -10.984   7.040 129.650  0.00  0.00    +0.000 A 
ATOM     24  C   UNL     1     -12.002   7.990 129.546  0.00  0.00    +0.000 A 
ATOM     25  C   UNL     1     -12.844   8.217 130.625  0.00  0.00    +0.000 A 
ATOM     26  C   UNL     1     -12.674   7.489 131.801  0.00  0.00    +0.000 A 
ATOM     27  C   UNL     1     -11.656   6.535 131.909  0.00  0.00    +0.000 A 
ATOM     28  C   UNL     1     -10.796   6.300 130.834  0.00  0.00    +0.000 A 
ENDBRANCH  15  18
ENDBRANCH   5  10
BRANCH   1  29
ATOM     29  C   UNL     1      -8.583  -3.669 126.272  0.00  0.00    +0.000 C 
BRANCH  29  32
ATOM     30  C   UNL     1      -8.240  -2.503 124.221  0.00  0.00    +0.000 C 
ATOM     31  O   UNL     1      -7.067  -2.764 124.472  0.00  0.00    +0.000 OA
ATOM     32  N   UNL     1      -9.162  -2.954 125.143  0.00  0.00    +0.000 N 
ATOM     33  H   UNL     1     -10.163  -2.837 125.076  0.00  0.00    +0.000 HD
BRANCH  30  34
ATOM     34  C   UNL     1      -8.684  -1.717 122.962  0.00  0.00    +0.000 C 
BRANCH  34  40
ATOM     35  C   UNL     1      -7.423   3.025 123.070  0.00  0.00    +0.000 C 
ATOM     36  C   UNL     1      -8.460   2.011 123.530  0.00  0.00    +0.000 C 
ATOM     37  O   UNL     1      -9.589   1.825 122.697  0.00  0.00    +0.000 OA
ATOM     38  C   UNL     1      -9.878   0.482 122.741  0.00  0.00    +0.000 C 
ATOM     39  O   UNL     1     -10.998   0.047 122.519  0.00  0.00    +0.000 OA
ATOM     40  N   UNL     1      -8.773  -0.234 123.070  0.00  0.00    +0.000 N 
ATOM     41  C   UNL     1      -7.859   0.648 123.551  0.00  0.00    +0.000 C 
ATOM     42  O   UNL     1      -6.731   0.498 123.988  0.00  0.00    +0.000 OA
ENDBRANCH  34  40
ENDBRANCH  30  34
ENDBRANCH  29  32
ENDBRANCH   1  29
TORSDOF 6
ENDMDL
MODEL 3
REMARK VINA RESULT:     -10.2      1.463      1.992
REMARK  Name = CHEMBL31802
REMARK  7 active torsions:
REMARK  status: ('A' for Active; 'I' for Inactive)
REMARK    1  A    between atoms: C_1  and  C_2
REMARK    2  A    between atoms: N_6  and  C_7
REMARK    3  A    between atoms: C_7  and  C_8
REMARK    4  A    between atoms: N_10  and  C_11
REMARK    5  A    between atoms: C_11  and  C_12
REMARK    6  A    between atoms: C_16  and  C_17
REMARK    7  A    between atoms: C_22  and  N_23
REMARK                            x       y       z     vdW  Elec       q    Type
REMARK                         _______ _______ _______ _____ _____    ______ ____
ROOT
ATOM      1  C   UNL     1      -8.915   4.232 132.920  0.00  0.00    +0.000 A 
ATOM      2  C   UNL     1      -9.276   3.320 131.947  0.00  0.00    +0.000 A 
ATOM      3  C   UNL     1      -8.509   2.155 132.168  0.00  0.00    +0.000 A 
ATOM      4  C   UNL     1      -8.408   0.893 131.549  0.00  0.00    +0.000 A 
ATOM      5  C   UNL     1      -7.490  -0.048 132.051  0.00  0.00    +0.000 A 
ATOM      6  C   UNL     1      -6.673   0.306 133.138  0.00  0.00    +0.000 A 
ATOM      7  C   UNL     1      -6.784   1.543 133.791  0.00  0.00    +0.000 A 
ATOM      8  C   UNL     1      -7.710   2.440 133.269  0.00  0.00    +0.000 A 
ATOM      9  O   UNL     1      -7.959   3.702 133.736  0.00  0.00    +0.000 OA
ENDROOT
BRANCH   5  10
ATOM     10  C   UNL     1      -7.352  -1.364 131.333  0.00  0.00    +0.000 C 
ATOM     11  O   UNL     1      -7.514  -2.421 131.938  0.00  0.00    +0.000 OA
ATOM     12  N   UNL     1      -7.139  -1.333 129.964  0.00  0.00    +0.000 N 
ATOM     13  C   UNL     1      -8.026  -2.078 129.077  0.00  0.00    +0.000 C 
ATOM     14  C   UNL     1      -7.261  -3.060 128.210  0.00  0.00    +0.000 C 
ATOM     15  C   UNL     1      -6.101  -2.364 127.464  0.00  0.00    +0.000 C 
ATOM     16  C   UNL     1      -5.191  -1.650 128.474  0.00  0.00    +0.000 C 
ATOM     17  C   UNL     1      -5.953  -0.705 129.389  0.00  0.00    +0.000 C 
BRANCH  15  18
ATOM     18  N   UNL     1      -6.572  -1.537 126.303  0.00  0.00    +0.000 N 
ATOM     19  C   UNL     1      -6.177  -0.217 126.073  0.00  0.00    +0.000 C 
ATOM     20  O   UNL     1      -5.046   0.254 126.106  0.00  0.00    +0.000 OA
ATOM     21  O   UNL     1      -7.219   0.621 125.859  0.00  0.00    +0.000 OA
ATOM     22  C   UNL     1      -7.810   0.341 124.609  0.00  0.00    +0.000 C 
ATOM     23  C   UNL     1      -8.131  -1.115 124.493  0.00  0.00    +0.000 A 
ATOM     24  C   UNL     1      -9.008  -1.533 123.490  0.00  0.00    +0.000 A 
ATOM     25  C   UNL     1      -9.297  -2.881 123.347  0.00  0.00    +0.000 A 
ATOM     26  C   UNL     1      -8.706  -3.811 124.199  0.00  0.00    +0.000 A 
ATOM     27  C   UNL     1      -7.826  -3.398 125.205  0.00  0.00    +0.000 A 
ATOM     28  C   UNL     1      -7.529  -2.043 125.366  0.00  0.00    +0.000 A 
ENDBRANCH  15  18
ENDBRANCH   5  10
BRANCH   1  29
ATOM     29  C   UNL     1      -9.435   5.594 133.159  0.00  0.00    +0.000 C 
BRANCH  29  32
ATOM     30  C   UNL     1      -8.911   6.834 131.192  0.00  0.00    +0.000 C 
ATOM     31  O   UNL     1      -7.764   6.611 131.569  0.00  0.00    +0.000 OA
ATOM     32  N   UNL     1      -9.912   6.320 131.990  0.00  0.00    +0.000 N 
ATOM     33  H   UNL     1     -10.903   6.400 131.812  0.00  0.00    +0.000 HD
BRANCH  30  34
ATOM     34  C   UNL     1      -9.241   7.641 129.912  0.00  0.00    +0.000 C 
BRANCH  34  40
ATOM     35  C   UNL     1     -13.829   7.582 128.169  0.00  0.00    +0.000 C 
ATOM     36  C   UNL     1     -12.590   6.734 128.416  0.00  0.00    +0.000 C 
ATOM     37  O   UNL     1     -11.662   6.627 127.353  0.00  0.00    +0.000 OA
ATOM     38  C   UNL     1     -10.415   6.634 127.932  0.00  0.00    +0.000 C 
ATOM     39  O   UNL     1      -9.442   6.130 127.394  0.00  0.00    +0.000 OA
ATOM     40  N   UNL     1     -10.455   7.249 129.142  0.00  0.00    +0.000 N 
ATOM     41  C   UNL     1     -11.764   7.351 129.491  0.00  0.00    +0.000 C 
ATOM     42  O   UNL     1     -12.311   7.804 130.482  0.00  0.00    +0.000 OA
ENDBRANCH  34  40
ENDBRANCH  30  34
ENDBRANCH  29  32
ENDBRANCH   1  29
TORSDOF 6
ENDMDL
MODEL 4
REMARK VINA RESULT:     -10.2      4.131      8.368
REMARK  Name = CHEMBL31802
REMARK  7 active torsions:
REMARK  status: ('A' for Active; 'I' for Inactive)
REMARK    1  A    between atoms: C_1  and  C_2
REMARK    2  A    between atoms: N_6  and  C_7
REMARK    3  A    between atoms: C_7  and  C_8
REMARK    4  A    between atoms: N_10  and  C_11
REMARK    5  A    between atoms: C_11  and  C_12
REMARK    6  A    between atoms: C_16  and  C_17
REMARK    7  A    between atoms: C_22  and  N_23
REMARK                            x       y       z     vdW  Elec       q    Type
REMARK                         _______ _______ _______ _____ _____    ______ ____
ROOT
ATOM      1  C   UNL     1      -8.861  -1.849 124.611  0.00  0.00    +0.000 A 
ATOM      2  C   UNL     1      -7.804  -1.433 125.398  0.00  0.00    +0.000 A 
ATOM      3  C   UNL     1      -7.861  -2.181 126.594  0.00  0.00    +0.000 A 
ATOM      4  C   UNL     1      -7.090  -2.242 127.773  0.00  0.00    +0.000 A 
ATOM      5  C   UNL     1      -7.467  -3.129 128.798  0.00  0.00    +0.000 A 
ATOM      6  C   UNL     1      -8.624  -3.911 128.634  0.00  0.00    +0.000 A 
ATOM      7  C   UNL     1      -9.384  -3.891 127.454  0.00  0.00    +0.000 A 
ATOM      8  C   UNL     1      -8.971  -3.008 126.463  0.00  0.00    +0.000 A 
ATOM      9  O   UNL     1      -9.580  -2.815 125.253  0.00  0.00    +0.000 OA
ENDROOT
BRANCH   5  10
ATOM     10  C   UNL     1      -6.668  -3.129 130.073  0.00  0.00    +0.000 C 
ATOM     11  O   UNL     1      -6.021  -4.120 130.401  0.00  0.00    +0.000 OA
ATOM     12  N   UNL     1      -6.612  -1.950 130.799  0.00  0.00    +0.000 N 
ATOM     13  C   UNL     1      -5.316  -1.383 131.158  0.00  0.00    +0.000 C 
ATOM     14  C   UNL     1      -5.181  -1.193 132.657  0.00  0.00    +0.000 C 
ATOM     15  C   UNL     1      -6.372  -0.395 133.231  0.00  0.00    +0.000 C 
ATOM     16  C   UNL     1      -7.690  -1.087 132.850  0.00  0.00    +0.000 C 
ATOM     17  C   UNL     1      -7.813  -1.336 131.356  0.00  0.00    +0.000 C 
BRANCH  15  18
ATOM     18  N   UNL     1      -6.289   1.073 132.927  0.00  0.00    +0.000 N 
ATOM     19  C   UNL     1      -7.394   1.874 132.631  0.00  0.00    +0.000 C 
ATOM     20  O   UNL     1      -8.467   1.934 133.220  0.00  0.00    +0.000 OA
ATOM     21  O   UNL     1      -7.234   2.607 131.504  0.00  0.00    +0.000 OA
ATOM     22  C   UNL     1      -6.275   3.617 131.721  0.00  0.00    +0.000 C 
ATOM     23  C   UNL     1      -5.017   3.036 132.285  0.00  0.00    +0.000 A 
ATOM     24  C   UNL     1      -3.850   3.803 132.258  0.00  0.00    +0.000 A 
ATOM     25  C   UNL     1      -2.680   3.295 132.800  0.00  0.00    +0.000 A 
ATOM     26  C   UNL     1      -2.677   2.026 133.375  0.00  0.00    +0.000 A 
ATOM     27  C   UNL     1      -3.844   1.254 133.406  0.00  0.00    +0.000 A 
ATOM     28  C   UNL     1      -5.028   1.749 132.858  0.00  0.00    +0.000 A 
ENDBRANCH  15  18
ENDBRANCH   5  10
BRANCH   1  29
ATOM     29  C   UNL     1      -9.240  -1.409 123.253  0.00  0.00    +0.000 C 
BRANCH  29  32
ATOM     30  C   UNL     1      -9.748   0.830 122.612  0.00  0.00    +0.000 C 
ATOM     31  O   UNL     1     -10.896   0.436 122.794  0.00  0.00    +0.000 OA
ATOM     32  N   UNL     1      -8.755  -0.101 122.836  0.00  0.00    +0.000 N 
ATOM     33  H   UNL     1      -7.763   0.068 122.749  0.00  0.00    +0.000 HD
BRANCH  30  34
ATOM     34  C   UNL     1      -9.409   2.271 122.156  0.00  0.00    +0.000 C 
BRANCH  34  40
ATOM     35  C   UNL     1      -6.134   3.611 125.557  0.00  0.00    +0.000 C 
ATOM     36  C   UNL     1      -6.843   4.049 124.283  0.00  0.00    +0.000 C 
ATOM     37  O   UNL     1      -6.189   3.774 123.059  0.00  0.00    +0.000 OA
ATOM     38  C   UNL     1      -7.178   3.427 122.169  0.00  0.00    +0.000 C 
ATOM     39  O   UNL     1      -7.046   3.557 120.962  0.00  0.00    +0.000 OA
ATOM     40  N   UNL     1      -8.269   2.957 122.826  0.00  0.00    +0.000 N 
ATOM     41  C   UNL     1      -8.119   3.296 124.133  0.00  0.00    +0.000 C 
ATOM     42  O   UNL     1      -8.828   3.119 125.109  0.00  0.00    +0.000 OA
ENDBRANCH  34  40
ENDBRANCH  30  34
ENDBRANCH  29  32
ENDBRANCH   1  29
TORSDOF 6
ENDMDL
MODEL 5
REMARK VINA RESULT:     -10.0      1.924      9.519
REMARK  Name = CHEMBL31802
REMARK  7 active torsions:
REMARK  status: ('A' for Active; 'I' for Inactive)
REMARK    1  A    between atoms: C_1  and  C_2
REMARK    2  A    between atoms: N_6  and  C_7
REMARK    3  A    between atoms: C_7  and  C_8
REMARK    4  A    between atoms: N_10  and  C_11
REMARK    5  A    between atoms: C_11  and  C_12
REMARK    6  A    between atoms: C_16  and  C_17
REMARK    7  A    between atoms: C_22  and  N_23
REMARK                            x       y       z     vdW  Elec       q    Type
REMARK                         _______ _______ _______ _____ _____    ______ ____
ROOT
ATOM      1  C   UNL     1      -7.276  -1.936 129.937  0.00  0.00    +0.000 A 
ATOM      2  C   UNL     1      -7.369  -0.622 129.519  0.00  0.00    +0.000 A 
ATOM      3  C   UNL     1      -7.147   0.189 130.653  0.00  0.00    +0.000 A 
ATOM      4  C   UNL     1      -7.101   1.576 130.896  0.00  0.00    +0.000 A 
ATOM      5  C   UNL     1      -6.860   2.039 132.203  0.00  0.00    +0.000 A 
ATOM      6  C   UNL     1      -6.704   1.105 133.242  0.00  0.00    +0.000 A 
ATOM      7  C   UNL     1      -6.710  -0.280 133.014  0.00  0.00    +0.000 A 
ATOM      8  C   UNL     1      -6.941  -0.694 131.707  0.00  0.00    +0.000 A 
ATOM      9  O   UNL     1      -7.011  -1.991 131.274  0.00  0.00    +0.000 OA
ENDROOT
BRANCH   5  10
ATOM     10  C   UNL     1      -6.881   3.524 132.451  0.00  0.00    +0.000 C 
ATOM     11  O   UNL     1      -6.046   4.043 133.187  0.00  0.00    +0.000 OA
ATOM     12  N   UNL     1      -7.803   4.282 131.746  0.00  0.00    +0.000 N 
ATOM     13  C   UNL     1      -7.350   5.426 130.962  0.00  0.00    +0.000 C 
ATOM     14  C   UNL     1      -8.047   6.707 131.380  0.00  0.00    +0.000 C 
ATOM     15  C   UNL     1      -9.582   6.537 131.374  0.00  0.00    +0.000 C 
ATOM     16  C   UNL     1      -9.974   5.347 132.262  0.00  0.00    +0.000 C 
ATOM     17  C   UNL     1      -9.240   4.069 131.891  0.00  0.00    +0.000 C 
BRANCH  15  18
ATOM     18  N   UNL     1     -10.162   6.544 129.989  0.00  0.00    +0.000 N 
ATOM     19  C   UNL     1      -9.733   5.706 128.958  0.00  0.00    +0.000 C 
ATOM     20  O   UNL     1      -9.529   4.498 128.997  0.00  0.00    +0.000 OA
ATOM     21  O   UNL     1      -9.456   6.370 127.811  0.00  0.00    +0.000 OA
ATOM     22  C   UNL     1     -10.650   6.847 127.232  0.00  0.00    +0.000 C 
ATOM     23  C   UNL     1     -11.451   7.616 128.235  0.00  0.00    +0.000 A 
ATOM     24  C   UNL     1     -12.485   8.438 127.782  0.00  0.00    +0.000 A 
ATOM     25  C   UNL     1     -13.257   9.138 128.697  0.00  0.00    +0.000 A 
ATOM     26  C   UNL     1     -13.003   9.010 130.060  0.00  0.00    +0.000 A 
ATOM     27  C   UNL     1     -11.968   8.187 130.519  0.00  0.00    +0.000 A 
ATOM     28  C   UNL     1     -11.178   7.480 129.610  0.00  0.00    +0.000 A 
ENDBRANCH  15  18
ENDBRANCH   5  10
BRANCH   1  29
ATOM     29  C   UNL     1      -7.397  -3.176 129.144  0.00  0.00    +0.000 C 
BRANCH  29  32
ATOM     30  C   UNL     1      -8.589  -3.492 127.105  0.00  0.00    +0.000 C 
ATOM     31  O   UNL     1      -9.419  -3.975 127.869  0.00  0.00    +0.000 OA
ATOM     32  N   UNL     1      -7.437  -3.019 127.698  0.00  0.00    +0.000 N 
ATOM     33  H   UNL     1      -6.667  -2.579 127.214  0.00  0.00    +0.000 HD
BRANCH  30  34
ATOM     34  C   UNL     1      -8.794  -3.411 125.572  0.00  0.00    +0.000 C 
BRANCH  34  40
ATOM     35  C   UNL     1      -7.264   1.042 124.188  0.00  0.00    +0.000 C 
ATOM     36  C   UNL     1      -7.464  -0.394 123.727  0.00  0.00    +0.000 C 
ATOM     37  O   UNL     1      -6.360  -1.270 123.859  0.00  0.00    +0.000 OA
ATOM     38  C   UNL     1      -6.882  -2.487 124.230  0.00  0.00    +0.000 C 
ATOM     39  O   UNL     1      -6.305  -3.540 124.006  0.00  0.00    +0.000 OA
ATOM     40  N   UNL     1      -8.085  -2.326 124.837  0.00  0.00    +0.000 N 
ATOM     41  C   UNL     1      -8.493  -1.057 124.576  0.00  0.00    +0.000 C 
ATOM     42  O   UNL     1      -9.503  -0.445 124.881  0.00  0.00    +0.000 OA
ENDBRANCH  34  40
ENDBRANCH  30  34
ENDBRANCH  29  32
ENDBRANCH   1  29
TORSDOF 6
ENDMDL
MODEL 6
REMARK VINA RESULT:     -10.0      8.066     12.679
REMARK  Name = CHEMBL31802
REMARK  7 active torsions:
REMARK  status: ('A' for Active; 'I' for Inactive)
REMARK    1  A    between atoms: C_1  and  C_2
REMARK    2  A    between atoms: N_6  and  C_7
REMARK    3  A    between atoms: C_7  and  C_8
REMARK    4  A    between atoms: N_10  and  C_11
REMARK    5  A    between atoms: C_11  and  C_12
REMARK    6  A    between atoms: C_16  and  C_17
REMARK    7  A    between atoms: C_22  and  N_23
REMARK                            x       y       z     vdW  Elec       q    Type
REMARK                         _______ _______ _______ _____ _____    ______ ____
ROOT
ATOM      1  C   UNL     1      -4.219   3.757 127.176  0.00  0.00    +0.000 A 
ATOM      2  C   UNL     1      -4.025   3.369 128.488  0.00  0.00    +0.000 A 
ATOM      3  C   UNL     1      -3.314   4.410 129.124  0.00  0.00    +0.000 A 
ATOM      4  C   UNL     1      -2.824   4.635 130.426  0.00  0.00    +0.000 A 
ATOM      5  C   UNL     1      -2.124   5.824 130.703  0.00  0.00    +0.000 A 
ATOM      6  C   UNL     1      -1.903   6.746 129.665  0.00  0.00    +0.000 A 
ATOM      7  C   UNL     1      -2.415   6.557 128.371  0.00  0.00    +0.000 A 
ATOM      8  C   UNL     1      -3.108   5.374 128.143  0.00  0.00    +0.000 A 
ATOM      9  O   UNL     1      -3.665   4.983 126.955  0.00  0.00    +0.000 OA
ENDROOT
BRANCH   5  10
ATOM     10  C   UNL     1      -1.553   6.012 132.083  0.00  0.00    +0.000 C 
ATOM     11  O   UNL     1      -1.193   5.042 132.744  0.00  0.00    +0.000 OA
ATOM     12  N   UNL     1      -1.357   7.310 132.529  0.00  0.00    +0.000 N 
ATOM     13  C   UNL     1      -0.043   7.718 133.011  0.00  0.00    +0.000 C 
ATOM     14  C   UNL     1      -0.106   8.258 134.428  0.00  0.00    +0.000 C 
ATOM     15  C   UNL     1      -1.172   9.368 134.559  0.00  0.00    +0.000 C 
ATOM     16  C   UNL     1      -2.531   8.838 134.079  0.00  0.00    +0.000 C 
ATOM     17  C   UNL     1      -2.471   8.242 132.682  0.00  0.00    +0.000 C 
BRANCH  15  18
ATOM     18  N   UNL     1      -0.727  10.673 133.965  0.00  0.00    +0.000 N 
ATOM     19  C   UNL     1      -1.477  11.408 133.044  0.00  0.00    +0.000 C 
ATOM     20  O   UNL     1      -2.667  11.697 133.092  0.00  0.00    +0.000 OA
ATOM     21  O   UNL     1      -0.770  11.765 131.945  0.00  0.00    +0.000 OA
ATOM     22  C   UNL     1       0.188  12.741 132.287  0.00  0.00    +0.000 C 
ATOM     23  C   UNL     1       1.009  12.287 133.452  0.00  0.00    +0.000 A 
ATOM     24  C   UNL     1       2.208  12.949 133.728  0.00  0.00    +0.000 A 
ATOM     25  C   UNL     1       2.971  12.563 134.820  0.00  0.00    +0.000 A 
ATOM     26  C   UNL     1       2.534  11.523 135.637  0.00  0.00    +0.000 A 
ATOM     27  C   UNL     1       1.333  10.857 135.365  0.00  0.00    +0.000 A 
ATOM     28  C   UNL     1       0.557  11.231 134.267  0.00  0.00    +0.000 A 
ENDBRANCH  15  18
ENDBRANCH   5  10
BRANCH   1  29
ATOM     29  C   UNL     1      -4.930   3.048 126.091  0.00  0.00    +0.000 C 
BRANCH  29  32
ATOM     30  C   UNL     1      -6.914   1.923 125.402  0.00  0.00    +0.000 C 
ATOM     31  O   UNL     1      -6.478   2.205 124.290  0.00  0.00    +0.000 OA
ATOM     32  N   UNL     1      -6.143   2.337 126.467  0.00  0.00    +0.000 N 
ATOM     33  H   UNL     1      -6.351   2.170 127.442  0.00  0.00    +0.000 HD
BRANCH  30  34
ATOM     34  C   UNL     1      -8.243   1.157 125.623  0.00  0.00    +0.000 C 
BRANCH  34  40
ATOM     35  C   UNL     1      -9.380  -3.061 123.387  0.00  0.00    +0.000 C 
ATOM     36  C   UNL     1      -8.901  -1.634 123.164  0.00  0.00    +0.000 C 
ATOM     37  O   UNL     1      -9.892  -0.659 122.899  0.00  0.00    +0.000 OA
ATOM     38  C   UNL     1      -9.485   0.484 123.545  0.00  0.00    +0.000 C 
ATOM     39  O   UNL     1      -9.837   1.597 123.188  0.00  0.00    +0.000 OA
ATOM     40  N   UNL     1      -8.659   0.179 124.579  0.00  0.00    +0.000 N 
ATOM     41  C   UNL     1      -8.274  -1.113 124.410  0.00  0.00    +0.000 C 
ATOM     42  O   UNL     1      -7.531  -1.833 125.054  0.00  0.00    +0.000 OA
ENDBRANCH  34  40
ENDBRANCH  30  34
ENDBRANCH  29  32
ENDBRANCH   1  29
TORSDOF 6
ENDMDL
MODEL 7
REMARK VINA RESULT:      -9.8      2.134      3.135
REMARK  Name = CHEMBL31802
REMARK  7 active torsions:
REMARK  status: ('A' for Active; 'I' for Inactive)
REMARK    1  A    between atoms: C_1  and  C_2
REMARK    2  A    between atoms: N_6  and  C_7
REMARK    3  A    between atoms: C_7  and  C_8
REMARK    4  A    between atoms: N_10  and  C_11
REMARK    5  A    between atoms: C_11  and  C_12
REMARK    6  A    between atoms: C_16  and  C_17
REMARK    7  A    between atoms: C_22  and  N_23
REMARK                            x       y       z     vdW  Elec       q    Type
REMARK                         _______ _______ _______ _____ _____    ______ ____
ROOT
ATOM      1  C   UNL     1      -7.753   3.015 132.349  0.00  0.00    +0.000 A 
ATOM      2  C   UNL     1      -8.295   2.197 131.376  0.00  0.00    +0.000 A 
ATOM      3  C   UNL     1      -7.265   1.335 130.941  0.00  0.00    +0.000 A 
ATOM      4  C   UNL     1      -7.168   0.291 129.999  0.00  0.00    +0.000 A 
ATOM      5  C   UNL     1      -5.932  -0.358 129.816  0.00  0.00    +0.000 A 
ATOM      6  C   UNL     1      -4.817   0.074 130.554  0.00  0.00    +0.000 A 
ATOM      7  C   UNL     1      -4.902   1.086 131.522  0.00  0.00    +0.000 A 
ATOM      8  C   UNL     1      -6.143   1.694 131.678  0.00  0.00    +0.000 A 
ATOM      9  O   UNL     1      -6.437   2.713 132.544  0.00  0.00    +0.000 OA
ENDROOT
BRANCH   5  10
ATOM     10  C   UNL     1      -5.836  -1.425 128.758  0.00  0.00    +0.000 C 
ATOM     11  O   UNL     1      -5.337  -2.516 129.020  0.00  0.00    +0.000 OA
ATOM     12  N   UNL     1      -6.415  -1.165 127.526  0.00  0.00    +0.000 N 
ATOM     13  C   UNL     1      -7.384  -2.104 126.971  0.00  0.00    +0.000 C 
ATOM     14  C   UNL     1      -6.966  -2.599 125.599  0.00  0.00    +0.000 C 
ATOM     15  C   UNL     1      -6.648  -1.423 124.650  0.00  0.00    +0.000 C 
ATOM     16  C   UNL     1      -5.585  -0.517 125.288  0.00  0.00    +0.000 C 
ATOM     17  C   UNL     1      -5.965  -0.059 126.687  0.00  0.00    +0.000 C 
BRANCH  15  18
ATOM     18  N   UNL     1      -7.883  -0.734 124.145  0.00  0.00    +0.000 N 
ATOM     19  C   UNL     1      -9.137  -1.343 124.059  0.00  0.00    +0.000 C 
ATOM     20  O   UNL     1      -9.713  -2.018 124.904  0.00  0.00    +0.000 OA
ATOM     21  O   UNL     1      -9.718  -1.195 122.844  0.00  0.00    +0.000 OA
ATOM     22  C   UNL     1     -10.105   0.147 122.658  0.00  0.00    +0.000 C 
ATOM     23  C   UNL     1      -8.959   1.069 122.930  0.00  0.00    +0.000 A 
ATOM     24  C   UNL     1      -9.038   2.391 122.486  0.00  0.00    +0.000 A 
ATOM     25  C   UNL     1      -7.998   3.269 122.752  0.00  0.00    +0.000 A 
ATOM     26  C   UNL     1      -6.885   2.829 123.466  0.00  0.00    +0.000 A 
ATOM     27  C   UNL     1      -6.802   1.506 123.914  0.00  0.00    +0.000 A 
ATOM     28  C   UNL     1      -7.838   0.608 123.648  0.00  0.00    +0.000 A 
ENDBRANCH  15  18
ENDBRANCH   5  10
BRANCH   1  29
ATOM     29  C   UNL     1      -8.406   4.071 133.149  0.00  0.00    +0.000 C 
BRANCH  29  32
ATOM     30  C   UNL     1     -10.012   5.743 132.592  0.00  0.00    +0.000 C 
ATOM     31  O   UNL     1      -9.040   6.477 132.738  0.00  0.00    +0.000 OA
ATOM     32  N   UNL     1      -9.780   4.398 132.792  0.00  0.00    +0.000 N 
ATOM     33  H   UNL     1     -10.467   3.663 132.695  0.00  0.00    +0.000 HD
BRANCH  30  34
ATOM     34  C   UNL     1     -11.421   6.265 132.214  0.00  0.00    +0.000 C 
BRANCH  34  40
ATOM     35  C   UNL     1     -12.118   8.416 127.857  0.00  0.00    +0.000 C 
ATOM     36  C   UNL     1     -12.458   7.197 128.702  0.00  0.00    +0.000 C 
ATOM     37  O   UNL     1     -11.622   6.064 128.559  0.00  0.00    +0.000 OA
ATOM     38  C   UNL     1     -11.497   5.520 129.815  0.00  0.00    +0.000 C 
ATOM     39  O   UNL     1     -11.236   4.341 129.994  0.00  0.00    +0.000 OA
ATOM     40  N   UNL     1     -11.719   6.463 130.767  0.00  0.00    +0.000 N 
ATOM     41  C   UNL     1     -12.297   7.524 130.146  0.00  0.00    +0.000 C 
ATOM     42  O   UNL     1     -12.697   8.596 130.566  0.00  0.00    +0.000 OA
ENDBRANCH  34  40
ENDBRANCH  30  34
ENDBRANCH  29  32
ENDBRANCH   1  29
TORSDOF 6
ENDMDL
MODEL 8
REMARK VINA RESULT:      -9.8      7.103      8.395
REMARK  Name = CHEMBL31802
REMARK  7 active torsions:
REMARK  status: ('A' for Active; 'I' for Inactive)
REMARK    1  A    between atoms: C_1  and  C_2
REMARK    2  A    between atoms: N_6  and  C_7
REMARK    3  A    between atoms: C_7  and  C_8
REMARK    4  A    between atoms: N_10  and  C_11
REMARK    5  A    between atoms: C_11  and  C_12
REMARK    6  A    between atoms: C_16  and  C_17
REMARK    7  A    between atoms: C_22  and  N_23
REMARK                            x       y       z     vdW  Elec       q    Type
REMARK                         _______ _______ _______ _____ _____    ______ ____
ROOT
ATOM      1  C   UNL     1      -2.076   6.288 132.059  0.00  0.00    +0.000 A 
ATOM      2  C   UNL     1      -2.303   5.021 131.556  0.00  0.00    +0.000 A 
ATOM      3  C   UNL     1      -2.792   5.180 130.241  0.00  0.00    +0.000 A 
ATOM      4  C   UNL     1      -3.197   4.306 129.213  0.00  0.00    +0.000 A 
ATOM      5  C   UNL     1      -3.659   4.841 127.996  0.00  0.00    +0.000 A 
ATOM      6  C   UNL     1      -3.735   6.236 127.847  0.00  0.00    +0.000 A 
ATOM      7  C   UNL     1      -3.302   7.123 128.845  0.00  0.00    +0.000 A 
ATOM      8  C   UNL     1      -2.844   6.553 130.028  0.00  0.00    +0.000 A 
ATOM      9  O   UNL     1      -2.401   7.232 131.130  0.00  0.00    +0.000 OA
ENDROOT
BRANCH   5  10
ATOM     10  C   UNL     1      -4.148   3.889 126.937  0.00  0.00    +0.000 C 
ATOM     11  O   UNL     1      -3.643   3.892 125.818  0.00  0.00    +0.000 OA
ATOM     12  N   UNL     1      -5.107   2.957 127.302  0.00  0.00    +0.000 N 
ATOM     13  C   UNL     1      -4.867   1.539 127.054  0.00  0.00    +0.000 C 
ATOM     14  C   UNL     1      -5.965   0.922 126.208  0.00  0.00    +0.000 C 
ATOM     15  C   UNL     1      -7.361   1.206 126.806  0.00  0.00    +0.000 C 
ATOM     16  C   UNL     1      -7.548   2.720 126.986  0.00  0.00    +0.000 C 
ATOM     17  C   UNL     1      -6.424   3.362 127.783  0.00  0.00    +0.000 C 
BRANCH  15  18
ATOM     18  N   UNL     1      -7.660   0.359 128.008  0.00  0.00    +0.000 N 
ATOM     19  C   UNL     1      -7.652   0.835 129.321  0.00  0.00    +0.000 C 
ATOM     20  O   UNL     1      -8.167   1.856 129.762  0.00  0.00    +0.000 OA
ATOM     21  O   UNL     1      -6.910   0.072 130.160  0.00  0.00    +0.000 OA
ATOM     22  C   UNL     1      -7.550  -1.166 130.373  0.00  0.00    +0.000 C 
ATOM     23  C   UNL     1      -7.898  -1.810 129.068  0.00  0.00    +0.000 A 
ATOM     24  C   UNL     1      -8.228  -3.167 129.055  0.00  0.00    +0.000 A 
ATOM     25  C   UNL     1      -8.581  -3.777 127.861  0.00  0.00    +0.000 A 
ATOM     26  C   UNL     1      -8.612  -3.032 126.684  0.00  0.00    +0.000 A 
ATOM     27  C   UNL     1      -8.284  -1.671 126.693  0.00  0.00    +0.000 A 
ATOM     28  C   UNL     1      -7.920  -1.044 127.886  0.00  0.00    +0.000 A 
ENDBRANCH  15  18
ENDBRANCH   5  10
BRANCH   1  29
ATOM     29  C   UNL     1      -1.538   6.684 133.377  0.00  0.00    +0.000 C 
BRANCH  29  32
ATOM     30  C   UNL     1      -0.451   8.665 134.135  0.00  0.00    +0.000 C 
ATOM     31  O   UNL     1       0.519   7.914 134.159  0.00  0.00    +0.000 OA
ATOM     32  N   UNL     1      -1.636   8.096 133.718  0.00  0.00    +0.000 N 
ATOM     33  H   UNL     1      -2.519   8.580 133.627  0.00  0.00    +0.000 HD
BRANCH  30  34
ATOM     34  C   UNL     1      -0.378  10.158 134.544  0.00  0.00    +0.000 C 
BRANCH  34  40
ATOM     35  C   UNL     1       0.828  12.851 130.622  0.00  0.00    +0.000 C 
ATOM     36  C   UNL     1      -0.004  12.827 131.897  0.00  0.00    +0.000 C 
ATOM     37  O   UNL     1      -1.339  12.370 131.783  0.00  0.00    +0.000 OA
ATOM     38  C   UNL     1      -1.592  11.646 132.924  0.00  0.00    +0.000 C 
ATOM     39  O   UNL     1      -2.721  11.490 133.362  0.00  0.00    +0.000 OA
ATOM     40  N   UNL     1      -0.435  11.176 133.458  0.00  0.00    +0.000 N 
ATOM     41  C   UNL     1       0.580  11.852 132.860  0.00  0.00    +0.000 C 
ATOM     42  O   UNL     1       1.789  11.806 133.007  0.00  0.00    +0.000 OA
ENDBRANCH  34  40
ENDBRANCH  30  34
ENDBRANCH  29  32
ENDBRANCH   1  29
TORSDOF 6
ENDMDL
MODEL 9
REMARK VINA RESULT:      -9.8      4.703      9.044
REMARK  Name = CHEMBL31802
REMARK  7 active torsions:
REMARK  status: ('A' for Active; 'I' for Inactive)
REMARK    1  A    between atoms: C_1  and  C_2
REMARK    2  A    between atoms: N_6  and  C_7
REMARK    3  A    between atoms: C_7  and  C_8
REMARK    4  A    between atoms: N_10  and  C_11
REMARK    5  A    between atoms: C_11  and  C_12
REMARK    6  A    between atoms: C_16  and  C_17
REMARK    7  A    between atoms: C_22  and  N_23
REMARK                            x       y       z     vdW  Elec       q    Type
REMARK                         _______ _______ _______ _____ _____    ______ ____
ROOT
ATOM      1  C   UNL     1      -7.612  -1.653 124.983  0.00  0.00    +0.000 A 
ATOM      2  C   UNL     1      -6.533  -1.495 125.832  0.00  0.00    +0.000 A 
ATOM      3  C   UNL     1      -6.831  -2.203 127.016  0.00  0.00    +0.000 A 
ATOM      4  C   UNL     1      -6.163  -2.439 128.234  0.00  0.00    +0.000 A 
ATOM      5  C   UNL     1      -6.795  -3.209 129.228  0.00  0.00    +0.000 A 
ATOM      6  C   UNL     1      -8.092  -3.697 128.994  0.00  0.00    +0.000 A 
ATOM      7  C   UNL     1      -8.759  -3.504 127.774  0.00  0.00    +0.000 A 
ATOM      8  C   UNL     1      -8.095  -2.747 126.815  0.00  0.00    +0.000 A 
ATOM      9  O   UNL     1      -8.572  -2.421 125.575  0.00  0.00    +0.000 OA
ENDROOT
BRANCH   5  10
ATOM     10  C   UNL     1      -6.091  -3.391 130.546  0.00  0.00    +0.000 C 
ATOM     11  O   UNL     1      -5.409  -4.391 130.753  0.00  0.00    +0.000 OA
ATOM     12  N   UNL     1      -6.160  -2.354 131.463  0.00  0.00    +0.000 N 
ATOM     13  C   UNL     1      -4.931  -1.796 132.018  0.00  0.00    +0.000 C 
ATOM     14  C   UNL     1      -4.917  -1.863 133.533  0.00  0.00    +0.000 C 
ATOM     15  C   UNL     1      -6.193  -1.236 134.135  0.00  0.00    +0.000 C 
ATOM     16  C   UNL     1      -7.434  -1.914 133.537  0.00  0.00    +0.000 C 
ATOM     17  C   UNL     1      -7.434  -1.906 132.017  0.00  0.00    +0.000 C 
BRANCH  15  18
ATOM     18  N   UNL     1      -6.179   0.265 134.092  0.00  0.00    +0.000 N 
ATOM     19  C   UNL     1      -6.918   1.027 133.186  0.00  0.00    +0.000 C 
ATOM     20  O   UNL     1      -8.099   0.910 132.881  0.00  0.00    +0.000 OA
ATOM     21  O   UNL     1      -6.174   1.957 132.539  0.00  0.00    +0.000 OA
ATOM     22  C   UNL     1      -5.795   2.976 133.436  0.00  0.00    +0.000 C 
ATOM     23  C   UNL     1      -5.161   2.393 134.659  0.00  0.00    +0.000 A 
ATOM     24  C   UNL     1      -4.428   3.231 135.502  0.00  0.00    +0.000 A 
ATOM     25  C   UNL     1      -3.856   2.716 136.656  0.00  0.00    +0.000 A 
ATOM     26  C   UNL     1      -4.023   1.370 136.971  0.00  0.00    +0.000 A 
ATOM     27  C   UNL     1      -4.757   0.526 136.130  0.00  0.00    +0.000 A 
ATOM     28  C   UNL     1      -5.334   1.028 134.961  0.00  0.00    +0.000 A 
ENDBRANCH  15  18
ENDBRANCH   5  10
BRANCH   1  29
ATOM     29  C   UNL     1      -7.801  -1.142 123.610  0.00  0.00    +0.000 C 
BRANCH  29  32
ATOM     30  C   UNL     1      -8.987   0.871 123.138  0.00  0.00    +0.000 C 
ATOM     31  O   UNL     1      -9.927   0.088 123.045  0.00  0.00    +0.000 OA
ATOM     32  N   UNL     1      -7.767   0.304 123.447  0.00  0.00    +0.000 N 
ATOM     33  H   UNL     1      -6.902   0.809 123.575  0.00  0.00    +0.000 HD
BRANCH  30  34
ATOM     34  C   UNL     1      -9.130   2.398 122.922  0.00  0.00    +0.000 C 
BRANCH  34  40
ATOM     35  C   UNL     1      -4.793   3.660 121.003  0.00  0.00    +0.000 C 
ATOM     36  C   UNL     1      -6.214   4.137 121.264  0.00  0.00    +0.000 C 
ATOM     37  O   UNL     1      -7.161   3.926 120.234  0.00  0.00    +0.000 OA
ATOM     38  C   UNL     1      -8.339   3.596 120.860  0.00  0.00    +0.000 C 
ATOM     39  O   UNL     1      -9.429   3.779 120.340  0.00  0.00    +0.000 OA
ATOM     40  N   UNL     1      -8.097   3.078 122.091  0.00  0.00    +0.000 N 
ATOM     41  C   UNL     1      -6.804   3.365 122.394  0.00  0.00    +0.000 C 
ATOM     42  O   UNL     1      -6.126   3.133 123.380  0.00  0.00    +0.000 OA
ENDBRANCH  34  40
ENDBRANCH  30  34
ENDBRANCH  29  32
ENDBRANCH   1  29
TORSDOF 6
ENDMDL
