MODEL 1
REMARK VINA RESULT:      -9.2      0.000      0.000
REMARK  Name = CHEMBL31241
REMARK  2 active torsions:
REMARK  status: ('A' for Active; 'I' for Inactive)
REMARK    1  A    between atoms: C_2  and  C_3
REMARK    2  A    between atoms: C_15  and  N_16
REMARK                            x       y       z     vdW  Elec       q    Type
REMARK                         _______ _______ _______ _____ _____    ______ ____
ROOT
ATOM      1  O   UNL     1      -7.547   1.024 123.872  0.00  0.00    +0.000 OA
ATOM      2  C   UNL     1      -7.226   2.205 123.829  0.00  0.00    +0.000 C 
ATOM      3  N   UNL     1      -6.580   2.874 124.855  0.00  0.00    +0.000 N 
ATOM      4  C   UNL     1      -6.975   4.220 125.264  0.00  0.00    +0.000 C 
ATOM      5  C   UNL     1      -5.733   5.076 125.402  0.00  0.00    +0.000 C 
ATOM      6  C   UNL     1      -4.722   4.434 126.383  0.00  0.00    +0.000 C 
ATOM      7  C   UNL     1      -4.418   2.982 125.966  0.00  0.00    +0.000 C 
ATOM      8  C   UNL     1      -5.681   2.151 125.747  0.00  0.00    +0.000 C 
ENDROOT
BRANCH   6   9
ATOM      9  N   UNL     1      -5.118   4.630 127.812  0.00  0.00    +0.000 N 
ATOM     10  C   UNL     1      -6.310   4.154 128.357  0.00  0.00    +0.000 C 
ATOM     11  O   UNL     1      -6.791   3.033 128.266  0.00  0.00    +0.000 OA
ATOM     12  O   UNL     1      -7.007   5.111 129.018  0.00  0.00    +0.000 OA
ATOM     13  C   UNL     1      -6.337   5.421 130.219  0.00  0.00    +0.000 C 
ATOM     14  C   UNL     1      -4.904   5.760 129.944  0.00  0.00    +0.000 A 
ATOM     15  C   UNL     1      -4.168   6.418 130.930  0.00  0.00    +0.000 A 
ATOM     16  C   UNL     1      -2.834   6.717 130.704  0.00  0.00    +0.000 A 
ATOM     17  C   UNL     1      -2.235   6.352 129.500  0.00  0.00    +0.000 A 
ATOM     18  C   UNL     1      -2.969   5.691 128.507  0.00  0.00    +0.000 A 
ATOM     19  C   UNL     1      -4.314   5.388 128.719  0.00  0.00    +0.000 A 
ENDBRANCH   6   9
BRANCH   2  20
ATOM     20  C   UNL     1      -7.378   2.954 122.551  0.00  0.00    +0.000 A 
ATOM     21  C   UNL     1      -8.631   3.040 121.946  0.00  0.00    +0.000 A 
ATOM     22  C   UNL     1      -8.784   3.651 120.693  0.00  0.00    +0.000 A 
ATOM     23  C   UNL     1      -7.640   4.182 120.079  0.00  0.00    +0.000 A 
ATOM     24  N   UNL     1      -7.489   4.838 118.874  0.00  0.00    +0.000 N 
ATOM     25  C   UNL     1      -6.183   5.219 118.704  0.00  0.00    +0.000 A 
ATOM     26  C   UNL     1      -5.464   4.749 119.779  0.00  0.00    +0.000 A 
ATOM     27  C   UNL     1      -6.375   4.106 120.662  0.00  0.00    +0.000 A 
ATOM     28  C   UNL     1      -6.237   3.466 121.908  0.00  0.00    +0.000 A 
ATOM     29  H   UNL     1      -8.239   5.030 118.225  0.00  0.00    +0.000 HD
ENDBRANCH   2  20
TORSDOF 2
ENDMDL
MODEL 2
REMARK VINA RESULT:      -9.1      6.730      8.539
REMARK  Name = CHEMBL31241
REMARK  2 active torsions:
REMARK  status: ('A' for Active; 'I' for Inactive)
REMARK    1  A    between atoms: C_2  and  C_3
REMARK    2  A    between atoms: C_15  and  N_16
REMARK                            x       y       z     vdW  Elec       q    Type
REMARK                         _______ _______ _______ _____ _____    ______ ____
ROOT
ATOM      1  O   UNL     1      -7.878   1.505 133.327  0.00  0.00    +0.000 OA
ATOM      2  C   UNL     1      -8.057   1.816 132.156  0.00  0.00    +0.000 C 
ATOM      3  N   UNL     1      -8.507   3.057 131.740  0.00  0.00    +0.000 N 
ATOM      4  C   UNL     1      -9.522   3.198 130.699  0.00  0.00    +0.000 C 
ATOM      5  C   UNL     1      -9.069   4.251 129.709  0.00  0.00    +0.000 C 
ATOM      6  C   UNL     1      -8.767   5.592 130.424  0.00  0.00    +0.000 C 
ATOM      7  C   UNL     1      -7.771   5.371 131.579  0.00  0.00    +0.000 C 
ATOM      8  C   UNL     1      -8.196   4.248 132.523  0.00  0.00    +0.000 C 
ENDROOT
BRANCH   6   9
ATOM      9  N   UNL     1     -10.014   6.338 130.776  0.00  0.00    +0.000 N 
ATOM     10  C   UNL     1     -10.590   6.329 132.046  0.00  0.00    +0.000 C 
ATOM     11  O   UNL     1     -10.048   6.513 133.126  0.00  0.00    +0.000 OA
ATOM     12  O   UNL     1     -11.910   6.020 132.024  0.00  0.00    +0.000 OA
ATOM     13  C   UNL     1     -12.627   7.103 131.477  0.00  0.00    +0.000 C 
ATOM     14  C   UNL     1     -12.048   7.496 130.153  0.00  0.00    +0.000 A 
ATOM     15  C   UNL     1     -12.804   8.303 129.301  0.00  0.00    +0.000 A 
ATOM     16  C   UNL     1     -12.276   8.698 128.083  0.00  0.00    +0.000 A 
ATOM     17  C   UNL     1     -10.992   8.296 127.720  0.00  0.00    +0.000 A 
ATOM     18  C   UNL     1     -10.228   7.487 128.570  0.00  0.00    +0.000 A 
ATOM     19  C   UNL     1     -10.749   7.078 129.798  0.00  0.00    +0.000 A 
ENDBRANCH   6   9
BRANCH   2  20
ATOM     20  C   UNL     1      -7.622   0.881 131.082  0.00  0.00    +0.000 A 
ATOM     21  C   UNL     1      -6.748   1.326 130.091  0.00  0.00    +0.000 A 
ATOM     22  C   UNL     1      -6.402   0.499 129.013  0.00  0.00    +0.000 A 
ATOM     23  C   UNL     1      -6.952  -0.791 128.974  0.00  0.00    +0.000 A 
ATOM     24  N   UNL     1      -6.787  -1.811 128.059  0.00  0.00    +0.000 N 
ATOM     25  C   UNL     1      -7.493  -2.918 128.455  0.00  0.00    +0.000 A 
ATOM     26  C   UNL     1      -8.176  -2.594 129.604  0.00  0.00    +0.000 A 
ATOM     27  C   UNL     1      -7.831  -1.259 129.951  0.00  0.00    +0.000 A 
ATOM     28  C   UNL     1      -8.187  -0.405 131.012  0.00  0.00    +0.000 A 
ATOM     29  H   UNL     1      -6.209  -1.756 127.232  0.00  0.00    +0.000 HD
ENDBRANCH   2  20
TORSDOF 2
ENDMDL
MODEL 3
REMARK VINA RESULT:      -8.9      4.607      6.202
REMARK  Name = CHEMBL31241
REMARK  2 active torsions:
REMARK  status: ('A' for Active; 'I' for Inactive)
REMARK    1  A    between atoms: C_2  and  C_3
REMARK    2  A    between atoms: C_15  and  N_16
REMARK                            x       y       z     vdW  Elec       q    Type
REMARK                         _______ _______ _______ _____ _____    ______ ____
ROOT
ATOM      1  O   UNL     1      -9.672   1.739 125.176  0.00  0.00    +0.000 OA
ATOM      2  C   UNL     1      -8.483   1.459 125.282  0.00  0.00    +0.000 C 
ATOM      3  N   UNL     1      -8.006   0.311 125.889  0.00  0.00    +0.000 N 
ATOM      4  C   UNL     1      -6.863   0.340 126.799  0.00  0.00    +0.000 C 
ATOM      5  C   UNL     1      -5.911  -0.778 126.429  0.00  0.00    +0.000 C 
ATOM      6  C   UNL     1      -6.634  -2.148 126.435  0.00  0.00    +0.000 C 
ATOM      7  C   UNL     1      -7.890  -2.095 125.543  0.00  0.00    +0.000 C 
ATOM      8  C   UNL     1      -8.799  -0.912 125.868  0.00  0.00    +0.000 C 
ENDROOT
BRANCH   6   9
ATOM      9  N   UNL     1      -6.844  -2.669 127.821  0.00  0.00    +0.000 N 
ATOM     10  C   UNL     1      -8.094  -3.002 128.343  0.00  0.00    +0.000 C 
ATOM     11  O   UNL     1      -8.968  -3.691 127.836  0.00  0.00    +0.000 OA
ATOM     12  O   UNL     1      -8.336  -2.419 129.542  0.00  0.00    +0.000 OA
ATOM     13  C   UNL     1      -7.531  -3.031 130.524  0.00  0.00    +0.000 C 
ATOM     14  C   UNL     1      -6.095  -3.025 130.097  0.00  0.00    +0.000 A 
ATOM     15  C   UNL     1      -5.109  -3.266 131.054  0.00  0.00    +0.000 A 
ATOM     16  C   UNL     1      -3.777  -3.291 130.675  0.00  0.00    +0.000 A 
ATOM     17  C   UNL     1      -3.431  -3.082 129.341  0.00  0.00    +0.000 A 
ATOM     18  C   UNL     1      -4.416  -2.840 128.376  0.00  0.00    +0.000 A 
ATOM     19  C   UNL     1      -5.762  -2.809 128.745  0.00  0.00    +0.000 A 
ENDBRANCH   6   9
BRANCH   2  20
ATOM     20  C   UNL     1      -7.474   2.303 124.584  0.00  0.00    +0.000 A 
ATOM     21  C   UNL     1      -6.840   3.335 125.275  0.00  0.00    +0.000 A 
ATOM     22  C   UNL     1      -5.961   4.206 124.616  0.00  0.00    +0.000 A 
ATOM     23  C   UNL     1      -5.733   3.997 123.248  0.00  0.00    +0.000 A 
ATOM     24  N   UNL     1      -4.927   4.675 122.357  0.00  0.00    +0.000 N 
ATOM     25  C   UNL     1      -4.986   4.084 121.122  0.00  0.00    +0.000 A 
ATOM     26  C   UNL     1      -5.890   3.049 121.193  0.00  0.00    +0.000 A 
ATOM     27  C   UNL     1      -6.357   2.974 122.534  0.00  0.00    +0.000 A 
ATOM     28  C   UNL     1      -7.256   2.124 123.206  0.00  0.00    +0.000 A 
ATOM     29  H   UNL     1      -4.357   5.477 122.590  0.00  0.00    +0.000 HD
ENDBRANCH   2  20
TORSDOF 2
ENDMDL
MODEL 4
REMARK VINA RESULT:      -8.7      3.723      8.394
REMARK  Name = CHEMBL31241
REMARK  2 active torsions:
REMARK  status: ('A' for Active; 'I' for Inactive)
REMARK    1  A    between atoms: C_2  and  C_3
REMARK    2  A    between atoms: C_15  and  N_16
REMARK                            x       y       z     vdW  Elec       q    Type
REMARK                         _______ _______ _______ _____ _____    ______ ____
ROOT
ATOM      1  O   UNL     1      -8.330   2.106 129.567  0.00  0.00    +0.000 OA
ATOM      2  C   UNL     1      -7.636   1.497 128.762  0.00  0.00    +0.000 C 
ATOM      3  N   UNL     1      -7.370   1.936 127.477  0.00  0.00    +0.000 N 
ATOM      4  C   UNL     1      -7.411   1.032 126.330  0.00  0.00    +0.000 C 
ATOM      5  C   UNL     1      -6.174   1.253 125.484  0.00  0.00    +0.000 C 
ATOM      6  C   UNL     1      -6.051   2.738 125.060  0.00  0.00    +0.000 C 
ATOM      7  C   UNL     1      -6.117   3.656 126.296  0.00  0.00    +0.000 C 
ATOM      8  C   UNL     1      -7.322   3.365 127.187  0.00  0.00    +0.000 C 
ENDROOT
BRANCH   6   9
ATOM      9  N   UNL     1      -6.981   3.085 123.942  0.00  0.00    +0.000 N 
ATOM     10  C   UNL     1      -8.367   2.952 124.018  0.00  0.00    +0.000 C 
ATOM     11  O   UNL     1      -9.118   3.335 124.905  0.00  0.00    +0.000 OA
ATOM     12  O   UNL     1      -8.889   2.259 122.977  0.00  0.00    +0.000 OA
ATOM     13  C   UNL     1      -8.820   3.052 121.814  0.00  0.00    +0.000 C 
ATOM     14  C   UNL     1      -7.422   3.549 121.606  0.00  0.00    +0.000 A 
ATOM     15  C   UNL     1      -7.069   4.055 120.354  0.00  0.00    +0.000 A 
ATOM     16  C   UNL     1      -5.789   4.543 120.149  0.00  0.00    +0.000 A 
ATOM     17  C   UNL     1      -4.866   4.534 121.193  0.00  0.00    +0.000 A 
ATOM     18  C   UNL     1      -5.215   4.028 122.451  0.00  0.00    +0.000 A 
ATOM     19  C   UNL     1      -6.499   3.529 122.671  0.00  0.00    +0.000 A 
ENDBRANCH   6   9
BRANCH   2  20
ATOM     20  C   UNL     1      -6.889   0.291 129.212  0.00  0.00    +0.000 A 
ATOM     21  C   UNL     1      -5.509   0.362 129.397  0.00  0.00    +0.000 A 
ATOM     22  C   UNL     1      -4.767  -0.782 129.723  0.00  0.00    +0.000 A 
ATOM     23  C   UNL     1      -5.460  -1.993 129.868  0.00  0.00    +0.000 A 
ATOM     24  N   UNL     1      -5.006  -3.256 130.188  0.00  0.00    +0.000 N 
ATOM     25  C   UNL     1      -6.058  -4.132 130.262  0.00  0.00    +0.000 A 
ATOM     26  C   UNL     1      -7.201  -3.447 129.921  0.00  0.00    +0.000 A 
ATOM     27  C   UNL     1      -6.840  -2.092 129.686  0.00  0.00    +0.000 A 
ATOM     28  C   UNL     1      -7.564  -0.937 129.334  0.00  0.00    +0.000 A 
ATOM     29  H   UNL     1      -4.040  -3.493 130.368  0.00  0.00    +0.000 HD
ENDBRANCH   2  20
TORSDOF 2
ENDMDL
MODEL 5
REMARK VINA RESULT:      -8.6      6.932      8.692
REMARK  Name = CHEMBL31241
REMARK  2 active torsions:
REMARK  status: ('A' for Active; 'I' for Inactive)
REMARK    1  A    between atoms: C_2  and  C_3
REMARK    2  A    between atoms: C_15  and  N_16
REMARK                            x       y       z     vdW  Elec       q    Type
REMARK                         _______ _______ _______ _____ _____    ______ ____
ROOT
ATOM      1  O   UNL     1      -8.977   6.223 133.545  0.00  0.00    +0.000 OA
ATOM      2  C   UNL     1      -9.249   5.721 132.461  0.00  0.00    +0.000 C 
ATOM      3  N   UNL     1      -8.846   4.457 132.067  0.00  0.00    +0.000 N 
ATOM      4  C   UNL     1      -8.332   4.197 130.724  0.00  0.00    +0.000 C 
ATOM      5  C   UNL     1      -9.003   2.957 130.171  0.00  0.00    +0.000 C 
ATOM      6  C   UNL     1      -8.806   1.750 131.121  0.00  0.00    +0.000 C 
ATOM      7  C   UNL     1      -9.267   2.109 132.547  0.00  0.00    +0.000 C 
ATOM      8  C   UNL     1      -8.650   3.408 133.061  0.00  0.00    +0.000 C 
ENDROOT
BRANCH   6   9
ATOM      9  N   UNL     1      -7.436   1.161 131.010  0.00  0.00    +0.000 N 
ATOM     10  C   UNL     1      -6.268   1.850 131.336  0.00  0.00    +0.000 C 
ATOM     11  O   UNL     1      -6.026   2.495 132.347  0.00  0.00    +0.000 OA
ATOM     12  O   UNL     1      -5.338   1.808 130.352  0.00  0.00    +0.000 OA
ATOM     13  C   UNL     1      -4.800   0.507 130.281  0.00  0.00    +0.000 C 
ATOM     14  C   UNL     1      -5.898  -0.505 130.158  0.00  0.00    +0.000 A 
ATOM     15  C   UNL     1      -5.577  -1.796 129.736  0.00  0.00    +0.000 A 
ATOM     16  C   UNL     1      -6.575  -2.753 129.640  0.00  0.00    +0.000 A 
ATOM     17  C   UNL     1      -7.888  -2.423 129.972  0.00  0.00    +0.000 A 
ATOM     18  C   UNL     1      -8.215  -1.130 130.397  0.00  0.00    +0.000 A 
ATOM     19  C   UNL     1      -7.221  -0.155 130.494  0.00  0.00    +0.000 A 
ENDBRANCH   6   9
BRANCH   2  20
ATOM     20  C   UNL     1     -10.204   6.418 131.556  0.00  0.00    +0.000 A 
ATOM     21  C   UNL     1     -11.569   6.392 131.839  0.00  0.00    +0.000 A 
ATOM     22  C   UNL     1     -12.498   6.953 130.951  0.00  0.00    +0.000 A 
ATOM     23  C   UNL     1     -12.007   7.550 129.781  0.00  0.00    +0.000 A 
ATOM     24  N   UNL     1     -12.670   8.181 128.747  0.00  0.00    +0.000 N 
ATOM     25  C   UNL     1     -11.770   8.654 127.828  0.00  0.00    +0.000 A 
ATOM     26  C   UNL     1     -10.513   8.271 128.233  0.00  0.00    +0.000 A 
ATOM     27  C   UNL     1     -10.647   7.587 129.473  0.00  0.00    +0.000 A 
ATOM     28  C   UNL     1      -9.731   6.996 130.364  0.00  0.00    +0.000 A 
ATOM     29  H   UNL     1     -13.673   8.297 128.692  0.00  0.00    +0.000 HD
ENDBRANCH   2  20
TORSDOF 2
ENDMDL
MODEL 6
REMARK VINA RESULT:      -8.6      1.713      2.371
REMARK  Name = CHEMBL31241
REMARK  2 active torsions:
REMARK  status: ('A' for Active; 'I' for Inactive)
REMARK    1  A    between atoms: C_2  and  C_3
REMARK    2  A    between atoms: C_15  and  N_16
REMARK                            x       y       z     vdW  Elec       q    Type
REMARK                         _______ _______ _______ _____ _____    ______ ____
ROOT
ATOM      1  O   UNL     1      -9.613   1.549 123.846  0.00  0.00    +0.000 OA
ATOM      2  C   UNL     1      -8.723   2.368 124.036  0.00  0.00    +0.000 C 
ATOM      3  N   UNL     1      -8.274   2.754 125.287  0.00  0.00    +0.000 N 
ATOM      4  C   UNL     1      -8.008   4.153 125.612  0.00  0.00    +0.000 C 
ATOM      5  C   UNL     1      -6.669   4.250 126.313  0.00  0.00    +0.000 C 
ATOM      6  C   UNL     1      -6.629   3.336 127.563  0.00  0.00    +0.000 C 
ATOM      7  C   UNL     1      -7.017   1.893 127.185  0.00  0.00    +0.000 C 
ATOM      8  C   UNL     1      -8.327   1.817 126.404  0.00  0.00    +0.000 C 
ENDROOT
BRANCH   6   9
ATOM      9  N   UNL     1      -7.372   3.928 128.719  0.00  0.00    +0.000 N 
ATOM     10  C   UNL     1      -8.699   3.627 129.022  0.00  0.00    +0.000 C 
ATOM     11  O   UNL     1      -9.227   2.527 129.107  0.00  0.00    +0.000 OA
ATOM     12  O   UNL     1      -9.467   4.733 129.181  0.00  0.00    +0.000 OA
ATOM     13  C   UNL     1      -9.116   5.367 130.390  0.00  0.00    +0.000 C 
ATOM     14  C   UNL     1      -7.638   5.611 130.440  0.00  0.00    +0.000 A 
ATOM     15  C   UNL     1      -7.139   6.518 131.375  0.00  0.00    +0.000 A 
ATOM     16  C   UNL     1      -5.773   6.738 131.454  0.00  0.00    +0.000 A 
ATOM     17  C   UNL     1      -4.908   6.048 130.607  0.00  0.00    +0.000 A 
ATOM     18  C   UNL     1      -5.404   5.136 129.667  0.00  0.00    +0.000 A 
ATOM     19  C   UNL     1      -6.778   4.908 129.573  0.00  0.00    +0.000 A 
ENDBRANCH   6   9
BRANCH   2  20
ATOM     20  C   UNL     1      -7.945   2.880 122.873  0.00  0.00    +0.000 A 
ATOM     21  C   UNL     1      -6.570   3.072 122.993  0.00  0.00    +0.000 A 
ATOM     22  C   UNL     1      -5.831   3.646 121.949  0.00  0.00    +0.000 A 
ATOM     23  C   UNL     1      -6.519   4.007 120.781  0.00  0.00    +0.000 A 
ATOM     24  N   UNL     1      -6.063   4.571 119.607  0.00  0.00    +0.000 N 
ATOM     25  C   UNL     1      -7.095   4.707 118.715  0.00  0.00    +0.000 A 
ATOM     26  C   UNL     1      -8.247   4.287 119.338  0.00  0.00    +0.000 A 
ATOM     27  C   UNL     1      -7.895   3.828 120.637  0.00  0.00    +0.000 A 
ATOM     28  C   UNL     1      -8.624   3.273 121.706  0.00  0.00    +0.000 A 
ATOM     29  H   UNL     1      -5.101   4.824 119.424  0.00  0.00    +0.000 HD
ENDBRANCH   2  20
TORSDOF 2
ENDMDL
MODEL 7
REMARK VINA RESULT:      -8.4      6.399      7.602
REMARK  Name = CHEMBL31241
REMARK  2 active torsions:
REMARK  status: ('A' for Active; 'I' for Inactive)
REMARK    1  A    between atoms: C_2  and  C_3
REMARK    2  A    between atoms: C_15  and  N_16
REMARK                            x       y       z     vdW  Elec       q    Type
REMARK                         _______ _______ _______ _____ _____    ______ ____
ROOT
ATOM      1  O   UNL     1     -10.211   3.451 131.096  0.00  0.00    +0.000 OA
ATOM      2  C   UNL     1      -9.714   4.570 131.063  0.00  0.00    +0.000 C 
ATOM      3  N   UNL     1      -8.353   4.818 131.100  0.00  0.00    +0.000 N 
ATOM      4  C   UNL     1      -7.787   5.883 131.926  0.00  0.00    +0.000 C 
ATOM      5  C   UNL     1      -6.796   6.674 131.098  0.00  0.00    +0.000 C 
ATOM      6  C   UNL     1      -5.707   5.748 130.501  0.00  0.00    +0.000 C 
ATOM      7  C   UNL     1      -6.357   4.584 129.728  0.00  0.00    +0.000 C 
ATOM      8  C   UNL     1      -7.417   3.848 130.544  0.00  0.00    +0.000 C 
ENDROOT
BRANCH   6   9
ATOM      9  N   UNL     1      -4.679   5.359 131.515  0.00  0.00    +0.000 N 
ATOM     10  C   UNL     1      -4.515   4.060 131.994  0.00  0.00    +0.000 C 
ATOM     11  O   UNL     1      -4.430   3.021 131.354  0.00  0.00    +0.000 OA
ATOM     12  O   UNL     1      -4.505   3.994 133.347  0.00  0.00    +0.000 OA
ATOM     13  C   UNL     1      -3.300   4.546 133.827  0.00  0.00    +0.000 C 
ATOM     14  C   UNL     1      -3.094   5.917 133.260  0.00  0.00    +0.000 A 
ATOM     15  C   UNL     1      -2.158   6.759 133.862  0.00  0.00    +0.000 A 
ATOM     16  C   UNL     1      -1.934   8.022 133.337  0.00  0.00    +0.000 A 
ATOM     17  C   UNL     1      -2.638   8.439 132.208  0.00  0.00    +0.000 A 
ATOM     18  C   UNL     1      -3.577   7.598 131.600  0.00  0.00    +0.000 A 
ATOM     19  C   UNL     1      -3.816   6.325 132.121  0.00  0.00    +0.000 A 
ENDBRANCH   6   9
BRANCH   2  20
ATOM     20  C   UNL     1     -10.590   5.746 130.806  0.00  0.00    +0.000 A 
ATOM     21  C   UNL     1     -11.482   6.172 131.789  0.00  0.00    +0.000 A 
ATOM     22  C   UNL     1     -12.387   7.212 131.537  0.00  0.00    +0.000 A 
ATOM     23  C   UNL     1     -12.356   7.815 130.271  0.00  0.00    +0.000 A 
ATOM     24  N   UNL     1     -13.106   8.849 129.748  0.00  0.00    +0.000 N 
ATOM     25  C   UNL     1     -12.694   9.134 128.472  0.00  0.00    +0.000 A 
ATOM     26  C   UNL     1     -11.710   8.234 128.136  0.00  0.00    +0.000 A 
ATOM     27  C   UNL     1     -11.476   7.406 129.268  0.00  0.00    +0.000 A 
ATOM     28  C   UNL     1     -10.591   6.343 129.532  0.00  0.00    +0.000 A 
ATOM     29  H   UNL     1     -13.837   9.340 130.246  0.00  0.00    +0.000 HD
ENDBRANCH   2  20
TORSDOF 2
ENDMDL
MODEL 8
REMARK VINA RESULT:      -8.3      3.174      8.249
REMARK  Name = CHEMBL31241
REMARK  2 active torsions:
REMARK  status: ('A' for Active; 'I' for Inactive)
REMARK    1  A    between atoms: C_2  and  C_3
REMARK    2  A    between atoms: C_15  and  N_16
REMARK                            x       y       z     vdW  Elec       q    Type
REMARK                         _______ _______ _______ _____ _____    ______ ____
ROOT
ATOM      1  O   UNL     1      -8.523   4.684 127.197  0.00  0.00    +0.000 OA
ATOM      2  C   UNL     1      -7.537   3.973 127.043  0.00  0.00    +0.000 C 
ATOM      3  N   UNL     1      -7.508   2.845 126.241  0.00  0.00    +0.000 N 
ATOM      4  C   UNL     1      -6.867   1.607 126.677  0.00  0.00    +0.000 C 
ATOM      5  C   UNL     1      -5.994   1.083 125.556  0.00  0.00    +0.000 C 
ATOM      6  C   UNL     1      -6.814   0.897 124.255  0.00  0.00    +0.000 C 
ATOM      7  C   UNL     1      -7.553   2.200 123.895  0.00  0.00    +0.000 C 
ATOM      8  C   UNL     1      -8.362   2.765 125.061  0.00  0.00    +0.000 C 
ENDROOT
BRANCH   6   9
ATOM      9  N   UNL     1      -7.656  -0.339 124.291  0.00  0.00    +0.000 N 
ATOM     10  C   UNL     1      -9.048  -0.326 124.371  0.00  0.00    +0.000 C 
ATOM     11  O   UNL     1      -9.840   0.324 123.702  0.00  0.00    +0.000 OA
ATOM     12  O   UNL     1      -9.526  -1.111 125.367  0.00  0.00    +0.000 OA
ATOM     13  C   UNL     1      -9.351  -2.464 125.011  0.00  0.00    +0.000 C 
ATOM     14  C   UNL     1      -7.924  -2.722 124.632  0.00  0.00    +0.000 A 
ATOM     15  C   UNL     1      -7.471  -4.041 124.581  0.00  0.00    +0.000 A 
ATOM     16  C   UNL     1      -6.162  -4.301 124.208  0.00  0.00    +0.000 A 
ATOM     17  C   UNL     1      -5.311  -3.248 123.878  0.00  0.00    +0.000 A 
ATOM     18  C   UNL     1      -5.761  -1.923 123.927  0.00  0.00    +0.000 A 
ATOM     19  C   UNL     1      -7.075  -1.645 124.306  0.00  0.00    +0.000 A 
ENDBRANCH   6   9
BRANCH   2  20
ATOM     20  C   UNL     1      -6.231   4.409 127.610  0.00  0.00    +0.000 A 
ATOM     21  C   UNL     1      -5.195   4.781 126.753  0.00  0.00    +0.000 A 
ATOM     22  C   UNL     1      -3.926   5.099 127.256  0.00  0.00    +0.000 A 
ATOM     23  C   UNL     1      -3.738   5.043 128.645  0.00  0.00    +0.000 A 
ATOM     24  N   UNL     1      -2.622   5.307 129.413  0.00  0.00    +0.000 N 
ATOM     25  C   UNL     1      -2.919   5.162 130.743  0.00  0.00    +0.000 A 
ATOM     26  C   UNL     1      -4.223   4.735 130.840  0.00  0.00    +0.000 A 
ATOM     27  C   UNL     1      -4.757   4.671 129.523  0.00  0.00    +0.000 A 
ATOM     28  C   UNL     1      -6.018   4.331 128.998  0.00  0.00    +0.000 A 
ATOM     29  H   UNL     1      -1.724   5.591 129.046  0.00  0.00    +0.000 HD
ENDBRANCH   2  20
TORSDOF 2
ENDMDL
MODEL 9
REMARK VINA RESULT:      -8.3      4.807      9.162
REMARK  Name = CHEMBL31241
REMARK  2 active torsions:
REMARK  status: ('A' for Active; 'I' for Inactive)
REMARK    1  A    between atoms: C_2  and  C_3
REMARK    2  A    between atoms: C_15  and  N_16
REMARK                            x       y       z     vdW  Elec       q    Type
REMARK                         _______ _______ _______ _____ _____    ______ ____
ROOT
ATOM      1  O   UNL     1      -8.663   5.445 127.917  0.00  0.00    +0.000 OA
ATOM      2  C   UNL     1      -8.508   4.521 128.705  0.00  0.00    +0.000 C 
ATOM      3  N   UNL     1      -8.065   3.260 128.348  0.00  0.00    +0.000 N 
ATOM      4  C   UNL     1      -8.682   2.047 128.881  0.00  0.00    +0.000 C 
ATOM      5  C   UNL     1      -7.593   1.100 129.338  0.00  0.00    +0.000 C 
ATOM      6  C   UNL     1      -6.600   0.799 128.188  0.00  0.00    +0.000 C 
ATOM      7  C   UNL     1      -6.057   2.112 127.591  0.00  0.00    +0.000 C 
ATOM      8  C   UNL     1      -7.163   3.095 127.214  0.00  0.00    +0.000 C 
ENDROOT
BRANCH   6   9
ATOM      9  N   UNL     1      -7.157  -0.180 127.204  0.00  0.00    +0.000 N 
ATOM     10  C   UNL     1      -7.203   0.045 125.829  0.00  0.00    +0.000 C 
ATOM     11  O   UNL     1      -6.307   0.437 125.094  0.00  0.00    +0.000 OA
ATOM     12  O   UNL     1      -8.434  -0.164 125.301  0.00  0.00    +0.000 OA
ATOM     13  C   UNL     1      -8.703  -1.548 125.295  0.00  0.00    +0.000 C 
ATOM     14  C   UNL     1      -8.495  -2.125 126.662  0.00  0.00    +0.000 A 
ATOM     15  C   UNL     1      -9.028  -3.382 126.948  0.00  0.00    +0.000 A 
ATOM     16  C   UNL     1      -8.824  -3.944 128.198  0.00  0.00    +0.000 A 
ATOM     17  C   UNL     1      -8.083  -3.256 129.157  0.00  0.00    +0.000 A 
ATOM     18  C   UNL     1      -7.545  -1.994 128.874  0.00  0.00    +0.000 A 
ATOM     19  C   UNL     1      -7.746  -1.414 127.621  0.00  0.00    +0.000 A 
ENDBRANCH   6   9
BRANCH   2  20
ATOM     20  C   UNL     1      -8.640   4.782 130.166  0.00  0.00    +0.000 A 
ATOM     21  C   UNL     1      -9.882   5.131 130.695  0.00  0.00    +0.000 A 
ATOM     22  C   UNL     1     -10.014   5.480 132.047  0.00  0.00    +0.000 A 
ATOM     23  C   UNL     1      -8.862   5.452 132.846  0.00  0.00    +0.000 A 
ATOM     24  N   UNL     1      -8.691   5.731 134.187  0.00  0.00    +0.000 N 
ATOM     25  C   UNL     1      -7.385   5.527 134.550  0.00  0.00    +0.000 A 
ATOM     26  C   UNL     1      -6.684   5.176 133.419  0.00  0.00    +0.000 A 
ATOM     27  C   UNL     1      -7.608   5.110 132.340  0.00  0.00    +0.000 A 
ATOM     28  C   UNL     1      -7.490   4.788 130.975  0.00  0.00    +0.000 A 
ATOM     29  H   UNL     1      -9.430   6.018 134.815  0.00  0.00    +0.000 HD
ENDBRANCH   2  20
TORSDOF 2
ENDMDL
