MODEL 1
REMARK VINA RESULT:     -10.4      0.000      0.000
REMARK  Name = CHEMBL436540
REMARK  13 active torsions:
REMARK  status: ('A' for Active; 'I' for Inactive)
REMARK    1  A    between atoms: C_1  and  C_2
REMARK    2  A    between atoms: C_2  and  C_4
REMARK    3  A    between atoms: C_4  and  C_5
REMARK    4  A    between atoms: C_5  and  C_6
REMARK    5  A    between atoms: C_6  and  C_7
REMARK    6  A    between atoms: N_9  and  C_10
REMARK    7  A    between atoms: C_12  and  C_13
REMARK    8  A    between atoms: N_25  and  C_26
REMARK    9  A    between atoms: C_26  and  C_27
REMARK   10  A    between atoms: N_29  and  C_30
REMARK   11  A    between atoms: C_30  and  C_31
REMARK   12  A    between atoms: C_30  and  C_39
REMARK   13  A    between atoms: C_31  and  C_32
REMARK                            x       y       z     vdW  Elec       q    Type
REMARK                         _______ _______ _______ _____ _____    ______ ____
ROOT
ATOM      1  C   UNL     1      -7.940   0.268 129.831  0.00  0.00    +0.000 C 
ATOM      2  N   UNL     1      -7.225  -0.752 130.610  0.00  0.00    +0.000 NA
ATOM      3  C   UNL     1      -7.252  -1.966 130.217  0.00  0.00    +0.000 C 
ATOM      4  C   UNL     1      -7.842  -2.349 128.967  0.00  0.00    +0.000 A 
ATOM      5  C   UNL     1      -8.493  -3.594 128.947  0.00  0.00    +0.000 A 
ATOM      6  C   UNL     1      -8.835  -4.040 127.738  0.00  0.00    +0.000 A 
ATOM      7  C   UNL     1      -8.659  -3.104 126.740  0.00  0.00    +0.000 A 
ATOM      8  C   UNL     1      -8.353  -1.784 126.745  0.00  0.00    +0.000 A 
ATOM      9  C   UNL     1      -7.662  -1.497 127.844  0.00  0.00    +0.000 A 
ATOM     10  N   UNL     1      -6.786  -0.397 127.743  0.00  0.00    +0.000 N 
ATOM     11  C   UNL     1      -7.024   0.648 128.622  0.00  0.00    +0.000 C 
ATOM     12  O   UNL     1      -6.602   1.789 128.416  0.00  0.00    +0.000 OA
ENDROOT
BRANCH   3  13
ATOM     13  C   UNL     1      -6.663  -3.055 131.013  0.00  0.00    +0.000 A 
ATOM     14  C   UNL     1      -5.748  -3.913 130.411  0.00  0.00    +0.000 A 
ATOM     15  C   UNL     1      -5.297  -5.008 131.137  0.00  0.00    +0.000 A 
ATOM     16  C   UNL     1      -5.649  -5.148 132.483  0.00  0.00    +0.000 A 
ATOM     17  C   UNL     1      -6.401  -4.165 133.127  0.00  0.00    +0.000 A 
ATOM     18  C   UNL     1      -6.943  -3.127 132.382  0.00  0.00    +0.000 A 
ENDBRANCH   3  13
BRANCH   1  21
ATOM     19  C   UNL     1      -9.045   1.421 131.661  0.00  0.00    +0.000 C 
ATOM     20  O   UNL     1      -9.866   0.525 131.856  0.00  0.00    +0.000 OA
ATOM     21  N   UNL     1      -8.124   1.427 130.650  0.00  0.00    +0.000 N 
ATOM     22  H   UNL     1      -7.504   2.206 130.476  0.00  0.00    +0.000 HD
BRANCH  19  23
ATOM     23  C   UNL     1      -8.998   2.637 132.543  0.00  0.00    +0.000 C 
BRANCH  23  24
ATOM     24  C   UNL     1      -8.723   3.842 131.648  0.00  0.00    +0.000 C 
BRANCH  24  25
ATOM     25  C   UNL     1      -9.978   4.588 131.244  0.00  0.00    +0.000 C 
BRANCH  25  27
ATOM     26  C   UNL     1      -8.800   6.863 131.006  0.00  0.00    +0.000 C 
ATOM     27  C   UNL     1      -9.884   6.049 131.654  0.00  0.00    +0.000 C 
ATOM     28  O   UNL     1     -10.645   6.566 132.471  0.00  0.00    +0.000 OA
ENDBRANCH  25  27
ENDBRANCH  24  25
ENDBRANCH  23  24
ENDBRANCH  19  23
ENDBRANCH   1  21
BRANCH  10  29
ATOM     29  C   UNL     1      -5.979  -0.183 126.503  0.00  0.00    +0.000 C 
BRANCH  29  30
ATOM     30  C   UNL     1      -6.019   1.215 125.811  0.00  0.00    +0.000 C 
ATOM     31  O   UNL     1      -5.045   1.997 125.801  0.00  0.00    +0.000 OA
ATOM     32  N   UNL     1      -7.190   1.596 125.200  0.00  0.00    +0.000 N 
ATOM     33  H   UNL     1      -8.041   1.270 125.635  0.00  0.00    +0.000 HD
BRANCH  32  34
ATOM     34  C   UNL     1      -7.221   2.828 124.376  0.00  0.00    +0.000 C 
BRANCH  34  35
ATOM     35  C   UNL     1      -7.800   4.070 125.104  0.00  0.00    +0.000 C 
ATOM     36  N   UNL     1      -6.989   5.150 125.301  0.00  0.00    +0.000 N 
ATOM     37  O   UNL     1      -8.961   4.124 125.510  0.00  0.00    +0.000 OA
ATOM     38  H   UNL     1      -6.040   5.249 124.993  0.00  0.00    +0.000 HD
ATOM     39  H   UNL     1      -7.397   5.944 125.783  0.00  0.00    +0.000 HD
ENDBRANCH  34  35
BRANCH  34  40
ATOM     40  C   UNL     1      -8.058   2.639 123.077  0.00  0.00    +0.000 C 
BRANCH  40  41
ATOM     41  C   UNL     1      -7.705   3.327 121.776  0.00  0.00    +0.000 A 
ATOM     42  C   UNL     1      -8.716   3.682 120.855  0.00  0.00    +0.000 A 
ATOM     43  C   UNL     1      -8.380   4.172 119.571  0.00  0.00    +0.000 A 
ATOM     44  C   UNL     1      -7.019   4.400 119.238  0.00  0.00    +0.000 A 
ATOM     45  F   UNL     1      -6.744   5.276 118.249  0.00  0.00    +0.000 F 
ATOM     46  C   UNL     1      -6.022   4.207 120.219  0.00  0.00    +0.000 A 
ATOM     47  C   UNL     1      -6.356   3.620 121.457  0.00  0.00    +0.000 A 
ENDBRANCH  40  41
ENDBRANCH  34  40
ENDBRANCH  32  34
ENDBRANCH  29  30
ENDBRANCH  10  29
TORSDOF 12
ENDMDL
MODEL 2
REMARK VINA RESULT:     -10.2      3.266      7.253
REMARK  Name = CHEMBL436540
REMARK  13 active torsions:
REMARK  status: ('A' for Active; 'I' for Inactive)
REMARK    1  A    between atoms: C_1  and  C_2
REMARK    2  A    between atoms: C_2  and  C_4
REMARK    3  A    between atoms: C_4  and  C_5
REMARK    4  A    between atoms: C_5  and  C_6
REMARK    5  A    between atoms: C_6  and  C_7
REMARK    6  A    between atoms: N_9  and  C_10
REMARK    7  A    between atoms: C_12  and  C_13
REMARK    8  A    between atoms: N_25  and  C_26
REMARK    9  A    between atoms: C_26  and  C_27
REMARK   10  A    between atoms: N_29  and  C_30
REMARK   11  A    between atoms: C_30  and  C_31
REMARK   12  A    between atoms: C_30  and  C_39
REMARK   13  A    between atoms: C_31  and  C_32
REMARK                            x       y       z     vdW  Elec       q    Type
REMARK                         _______ _______ _______ _____ _____    ______ ____
ROOT
ATOM      1  C   UNL     1      -7.858   4.224 129.164  0.00  0.00    +0.000 C 
ATOM      2  N   UNL     1      -8.337   3.544 127.953  0.00  0.00    +0.000 NA
ATOM      3  C   UNL     1      -7.487   3.095 127.114  0.00  0.00    +0.000 C 
ATOM      4  C   UNL     1      -6.077   3.109 127.378  0.00  0.00    +0.000 A 
ATOM      5  C   UNL     1      -5.244   3.335 126.269  0.00  0.00    +0.000 A 
ATOM      6  C   UNL     1      -3.944   3.121 126.479  0.00  0.00    +0.000 A 
ATOM      7  C   UNL     1      -3.633   2.902 127.804  0.00  0.00    +0.000 A 
ATOM      8  C   UNL     1      -4.340   3.003 128.956  0.00  0.00    +0.000 A 
ATOM      9  C   UNL     1      -5.631   2.821 128.696  0.00  0.00    +0.000 A 
ATOM     10  N   UNL     1      -6.401   2.311 129.761  0.00  0.00    +0.000 N 
ATOM     11  C   UNL     1      -7.452   3.111 130.184  0.00  0.00    +0.000 C 
ATOM     12  O   UNL     1      -7.963   2.986 131.300  0.00  0.00    +0.000 OA
ENDROOT
BRANCH   3  13
ATOM     13  C   UNL     1      -7.897   2.515 125.825  0.00  0.00    +0.000 A 
ATOM     14  C   UNL     1      -8.242   3.367 124.780  0.00  0.00    +0.000 A 
ATOM     15  C   UNL     1      -8.746   2.807 123.613  0.00  0.00    +0.000 A 
ATOM     16  C   UNL     1      -8.762   1.418 123.455  0.00  0.00    +0.000 A 
ATOM     17  C   UNL     1      -8.219   0.584 124.433  0.00  0.00    +0.000 A 
ATOM     18  C   UNL     1      -7.814   1.130 125.643  0.00  0.00    +0.000 A 
ENDBRANCH   3  13
BRANCH   1  21
ATOM     19  C   UNL     1      -8.703   6.231 130.239  0.00  0.00    +0.000 C 
ATOM     20  O   UNL     1      -7.589   6.724 130.409  0.00  0.00    +0.000 OA
ATOM     21  N   UNL     1      -8.933   4.987 129.720  0.00  0.00    +0.000 N 
ATOM     22  H   UNL     1      -9.857   4.582 129.651  0.00  0.00    +0.000 HD
BRANCH  19  23
ATOM     23  C   UNL     1      -9.950   6.978 130.620  0.00  0.00    +0.000 C 
BRANCH  23  24
ATOM     24  C   UNL     1     -10.899   6.925 129.428  0.00  0.00    +0.000 C 
BRANCH  24  25
ATOM     25  C   UNL     1     -10.482   7.831 128.288  0.00  0.00    +0.000 C 
BRANCH  25  27
ATOM     26  C   UNL     1     -11.981   7.296 126.266  0.00  0.00    +0.000 C 
ATOM     27  C   UNL     1     -10.657   7.122 126.954  0.00  0.00    +0.000 C 
ATOM     28  O   UNL     1      -9.775   6.436 126.439  0.00  0.00    +0.000 OA
ENDBRANCH  25  27
ENDBRANCH  24  25
ENDBRANCH  23  24
ENDBRANCH  19  23
ENDBRANCH   1  21
BRANCH  10  29
ATOM     29  C   UNL     1      -5.852   1.239 130.647  0.00  0.00    +0.000 C 
BRANCH  29  30
ATOM     30  C   UNL     1      -6.083  -0.253 130.254  0.00  0.00    +0.000 C 
ATOM     31  O   UNL     1      -6.729  -1.052 130.964  0.00  0.00    +0.000 OA
ATOM     32  N   UNL     1      -5.532  -0.699 129.076  0.00  0.00    +0.000 N 
ATOM     33  H   UNL     1      -4.650  -0.283 128.815  0.00  0.00    +0.000 HD
BRANCH  32  34
ATOM     34  C   UNL     1      -5.875  -2.051 128.571  0.00  0.00    +0.000 C 
BRANCH  34  35
ATOM     35  C   UNL     1      -5.031  -3.197 129.189  0.00  0.00    +0.000 C 
ATOM     36  N   UNL     1      -5.572  -3.933 130.204  0.00  0.00    +0.000 N 
ATOM     37  O   UNL     1      -3.896  -3.473 128.802  0.00  0.00    +0.000 OA
ATOM     38  H   UNL     1      -6.492  -3.835 130.588  0.00  0.00    +0.000 HD
ATOM     39  H   UNL     1      -4.993  -4.673 130.588  0.00  0.00    +0.000 HD
ENDBRANCH  34  35
BRANCH  34  40
ATOM     40  C   UNL     1      -5.710  -2.154 127.027  0.00  0.00    +0.000 C 
BRANCH  40  41
ATOM     41  C   UNL     1      -6.851  -2.546 126.112  0.00  0.00    +0.000 A 
ATOM     42  C   UNL     1      -6.610  -2.838 124.751  0.00  0.00    +0.000 A 
ATOM     43  C   UNL     1      -7.689  -3.042 123.858  0.00  0.00    +0.000 A 
ATOM     44  C   UNL     1      -9.020  -3.048 124.351  0.00  0.00    +0.000 A 
ATOM     45  F   UNL     1      -9.963  -3.689 123.629  0.00  0.00    +0.000 F 
ATOM     46  C   UNL     1      -9.248  -2.925 125.739  0.00  0.00    +0.000 A 
ATOM     47  C   UNL     1      -8.177  -2.619 126.604  0.00  0.00    +0.000 A 
ENDBRANCH  40  41
ENDBRANCH  34  40
ENDBRANCH  32  34
ENDBRANCH  29  30
ENDBRANCH  10  29
TORSDOF 12
ENDMDL
MODEL 3
REMARK VINA RESULT:     -10.0      4.613      8.440
REMARK  Name = CHEMBL436540
REMARK  13 active torsions:
REMARK  status: ('A' for Active; 'I' for Inactive)
REMARK    1  A    between atoms: C_1  and  C_2
REMARK    2  A    between atoms: C_2  and  C_4
REMARK    3  A    between atoms: C_4  and  C_5
REMARK    4  A    between atoms: C_5  and  C_6
REMARK    5  A    between atoms: C_6  and  C_7
REMARK    6  A    between atoms: N_9  and  C_10
REMARK    7  A    between atoms: C_12  and  C_13
REMARK    8  A    between atoms: N_25  and  C_26
REMARK    9  A    between atoms: C_26  and  C_27
REMARK   10  A    between atoms: N_29  and  C_30
REMARK   11  A    between atoms: C_30  and  C_31
REMARK   12  A    between atoms: C_30  and  C_39
REMARK   13  A    between atoms: C_31  and  C_32
REMARK                            x       y       z     vdW  Elec       q    Type
REMARK                         _______ _______ _______ _____ _____    ______ ____
ROOT
ATOM      1  C   UNL     1      -9.912   5.419 131.125  0.00  0.00    +0.000 C 
ATOM      2  N   UNL     1      -8.604   5.675 130.506  0.00  0.00    +0.000 NA
ATOM      3  C   UNL     1      -7.556   5.646 131.233  0.00  0.00    +0.000 C 
ATOM      4  C   UNL     1      -7.594   5.239 132.607  0.00  0.00    +0.000 A 
ATOM      5  C   UNL     1      -6.710   5.905 133.473  0.00  0.00    +0.000 A 
ATOM      6  C   UNL     1      -6.589   5.369 134.688  0.00  0.00    +0.000 A 
ATOM      7  C   UNL     1      -7.504   4.367 134.937  0.00  0.00    +0.000 A 
ATOM      8  C   UNL     1      -8.591   3.911 134.268  0.00  0.00    +0.000 A 
ATOM      9  C   UNL     1      -8.446   4.161 132.971  0.00  0.00    +0.000 A 
ATOM     10  N   UNL     1      -9.125   3.283 132.101  0.00  0.00    +0.000 N 
ATOM     11  C   UNL     1     -10.060   3.869 131.262  0.00  0.00    +0.000 C 
ATOM     12  O   UNL     1     -10.965   3.218 130.732  0.00  0.00    +0.000 OA
ENDROOT
BRANCH   3  13
ATOM     13  C   UNL     1      -6.233   6.013 130.704  0.00  0.00    +0.000 A 
ATOM     14  C   UNL     1      -5.449   5.032 130.104  0.00  0.00    +0.000 A 
ATOM     15  C   UNL     1      -4.155   5.364 129.724  0.00  0.00    +0.000 A 
ATOM     16  C   UNL     1      -3.718   6.690 129.815  0.00  0.00    +0.000 A 
ATOM     17  C   UNL     1      -4.589   7.699 130.227  0.00  0.00    +0.000 A 
ATOM     18  C   UNL     1      -5.845   7.358 130.709  0.00  0.00    +0.000 A 
ENDBRANCH   3  13
BRANCH   1  21
ATOM     19  C   UNL     1     -12.066   6.481 130.764  0.00  0.00    +0.000 C 
ATOM     20  O   UNL     1     -12.365   6.501 131.957  0.00  0.00    +0.000 OA
ATOM     21  N   UNL     1     -10.938   5.903 130.251  0.00  0.00    +0.000 N 
ATOM     22  H   UNL     1     -10.751   5.846 129.260  0.00  0.00    +0.000 HD
BRANCH  19  23
ATOM     23  C   UNL     1     -12.965   7.098 129.728  0.00  0.00    +0.000 C 
BRANCH  23  24
ATOM     24  C   UNL     1     -12.641   8.587 129.669  0.00  0.00    +0.000 C 
BRANCH  24  25
ATOM     25  C   UNL     1     -12.241   9.059 128.286  0.00  0.00    +0.000 C 
BRANCH  25  27
ATOM     26  C   UNL     1     -11.041   7.650 126.499  0.00  0.00    +0.000 C 
ATOM     27  C   UNL     1     -10.977   8.351 127.826  0.00  0.00    +0.000 C 
ATOM     28  O   UNL     1      -9.939   8.337 128.486  0.00  0.00    +0.000 OA
ENDBRANCH  25  27
ENDBRANCH  24  25
ENDBRANCH  23  24
ENDBRANCH  19  23
ENDBRANCH   1  21
BRANCH  10  29
ATOM     29  C   UNL     1      -9.167   1.817 132.388  0.00  0.00    +0.000 C 
BRANCH  29  30
ATOM     30  C   UNL     1      -7.949   0.934 131.976  0.00  0.00    +0.000 C 
ATOM     31  O   UNL     1      -7.681  -0.156 132.523  0.00  0.00    +0.000 OA
ATOM     32  N   UNL     1      -7.132   1.397 130.971  0.00  0.00    +0.000 N 
ATOM     33  H   UNL     1      -7.016   2.399 130.922  0.00  0.00    +0.000 HD
BRANCH  32  34
ATOM     34  C   UNL     1      -6.074   0.515 130.421  0.00  0.00    +0.000 C 
BRANCH  34  35
ATOM     35  C   UNL     1      -4.662   1.159 130.380  0.00  0.00    +0.000 C 
ATOM     36  N   UNL     1      -3.997   1.351 131.556  0.00  0.00    +0.000 N 
ATOM     37  O   UNL     1      -4.115   1.502 129.332  0.00  0.00    +0.000 OA
ATOM     38  H   UNL     1      -4.313   1.088 132.471  0.00  0.00    +0.000 HD
ATOM     39  H   UNL     1      -3.079   1.777 131.496  0.00  0.00    +0.000 HD
ENDBRANCH  34  35
BRANCH  34  40
ATOM     40  C   UNL     1      -6.398   0.053 128.970  0.00  0.00    +0.000 C 
BRANCH  40  41
ATOM     41  C   UNL     1      -7.248  -1.165 128.676  0.00  0.00    +0.000 A 
ATOM     42  C   UNL     1      -7.520  -2.109 129.691  0.00  0.00    +0.000 A 
ATOM     43  C   UNL     1      -8.171  -3.328 129.383  0.00  0.00    +0.000 A 
ATOM     44  C   UNL     1      -8.640  -3.563 128.064  0.00  0.00    +0.000 A 
ATOM     45  F   UNL     1      -9.633  -4.460 127.891  0.00  0.00    +0.000 F 
ATOM     46  C   UNL     1      -8.517  -2.546 127.092  0.00  0.00    +0.000 A 
ATOM     47  C   UNL     1      -7.776  -1.381 127.380  0.00  0.00    +0.000 A 
ENDBRANCH  40  41
ENDBRANCH  34  40
ENDBRANCH  32  34
ENDBRANCH  29  30
ENDBRANCH  10  29
TORSDOF 12
ENDMDL
MODEL 4
REMARK VINA RESULT:      -9.9      4.652      7.783
REMARK  Name = CHEMBL436540
REMARK  13 active torsions:
REMARK  status: ('A' for Active; 'I' for Inactive)
REMARK    1  A    between atoms: C_1  and  C_2
REMARK    2  A    between atoms: C_2  and  C_4
REMARK    3  A    between atoms: C_4  and  C_5
REMARK    4  A    between atoms: C_5  and  C_6
REMARK    5  A    between atoms: C_6  and  C_7
REMARK    6  A    between atoms: N_9  and  C_10
REMARK    7  A    between atoms: C_12  and  C_13
REMARK    8  A    between atoms: N_25  and  C_26
REMARK    9  A    between atoms: C_26  and  C_27
REMARK   10  A    between atoms: N_29  and  C_30
REMARK   11  A    between atoms: C_30  and  C_31
REMARK   12  A    between atoms: C_30  and  C_39
REMARK   13  A    between atoms: C_31  and  C_32
REMARK                            x       y       z     vdW  Elec       q    Type
REMARK                         _______ _______ _______ _____ _____    ______ ____
ROOT
ATOM      1  C   UNL     1      -9.138   5.235 130.184  0.00  0.00    +0.000 C 
ATOM      2  N   UNL     1      -7.701   5.496 130.025  0.00  0.00    +0.000 NA
ATOM      3  C   UNL     1      -6.948   5.482 131.055  0.00  0.00    +0.000 C 
ATOM      4  C   UNL     1      -7.432   5.085 132.346  0.00  0.00    +0.000 A 
ATOM      5  C   UNL     1      -6.883   5.765 133.446  0.00  0.00    +0.000 A 
ATOM      6  C   UNL     1      -7.164   5.240 134.639  0.00  0.00    +0.000 A 
ATOM      7  C   UNL     1      -8.104   4.232 134.585  0.00  0.00    +0.000 A 
ATOM      8  C   UNL     1      -8.910   3.762 133.603  0.00  0.00    +0.000 A 
ATOM      9  C   UNL     1      -8.350   4.003 132.422  0.00  0.00    +0.000 A 
ATOM     10  N   UNL     1      -8.703   3.113 131.387  0.00  0.00    +0.000 N 
ATOM     11  C   UNL     1      -9.314   3.684 130.282  0.00  0.00    +0.000 C 
ATOM     12  O   UNL     1      -9.993   3.022 129.491  0.00  0.00    +0.000 OA
ENDROOT
BRANCH   3  13
ATOM     13  C   UNL     1      -5.526   5.855 130.985  0.00  0.00    +0.000 A 
ATOM     14  C   UNL     1      -5.187   7.190 130.789  0.00  0.00    +0.000 A 
ATOM     15  C   UNL     1      -3.849   7.509 130.600  0.00  0.00    +0.000 A 
ATOM     16  C   UNL     1      -2.868   6.524 130.750  0.00  0.00    +0.000 A 
ATOM     17  C   UNL     1      -3.212   5.232 131.151  0.00  0.00    +0.000 A 
ATOM     18  C   UNL     1      -4.552   4.882 131.236  0.00  0.00    +0.000 A 
ENDBRANCH   3  13
BRANCH   1  21
ATOM     19  C   UNL     1      -9.901   7.042 128.754  0.00  0.00    +0.000 C 
ATOM     20  O   UNL     1      -9.545   7.932 129.525  0.00  0.00    +0.000 OA
ATOM     21  N   UNL     1      -9.824   5.703 129.019  0.00  0.00    +0.000 N 
ATOM     22  H   UNL     1     -10.183   4.997 128.392  0.00  0.00    +0.000 HD
BRANCH  19  23
ATOM     23  C   UNL     1     -10.492   7.370 127.411  0.00  0.00    +0.000 C 
BRANCH  23  24
ATOM     24  C   UNL     1     -11.694   8.278 127.648  0.00  0.00    +0.000 C 
BRANCH  24  25
ATOM     25  C   UNL     1     -12.863   7.569 128.301  0.00  0.00    +0.000 C 
BRANCH  25  27
ATOM     26  C   UNL     1     -12.998   9.478 130.020  0.00  0.00    +0.000 C 
ATOM     27  C   UNL     1     -13.004   8.000 129.752  0.00  0.00    +0.000 C 
ATOM     28  O   UNL     1     -13.121   7.201 130.680  0.00  0.00    +0.000 OA
ENDBRANCH  25  27
ENDBRANCH  24  25
ENDBRANCH  23  24
ENDBRANCH  19  23
ENDBRANCH   1  21
BRANCH  10  29
ATOM     29  C   UNL     1      -8.829   1.648 131.658  0.00  0.00    +0.000 C 
BRANCH  29  30
ATOM     30  C   UNL     1      -7.782   0.675 131.034  0.00  0.00    +0.000 C 
ATOM     31  O   UNL     1      -7.902  -0.568 131.071  0.00  0.00    +0.000 OA
ATOM     32  N   UNL     1      -6.675   1.223 130.431  0.00  0.00    +0.000 N 
ATOM     33  H   UNL     1      -6.326   2.077 130.842  0.00  0.00    +0.000 HD
BRANCH  32  34
ATOM     34  C   UNL     1      -5.748   0.353 129.667  0.00  0.00    +0.000 C 
BRANCH  34  35
ATOM     35  C   UNL     1      -4.382   0.107 130.362  0.00  0.00    +0.000 C 
ATOM     36  N   UNL     1      -3.607  -0.930 129.930  0.00  0.00    +0.000 N 
ATOM     37  O   UNL     1      -3.967   0.809 131.284  0.00  0.00    +0.000 OA
ATOM     38  H   UNL     1      -3.811  -1.553 129.172  0.00  0.00    +0.000 HD
ATOM     39  H   UNL     1      -2.722  -1.066 130.407  0.00  0.00    +0.000 HD
ENDBRANCH  34  35
BRANCH  34  40
ATOM     40  C   UNL     1      -5.437   0.932 128.256  0.00  0.00    +0.000 C 
BRANCH  40  41
ATOM     41  C   UNL     1      -4.904   2.335 128.055  0.00  0.00    +0.000 A 
ATOM     42  C   UNL     1      -5.789   3.409 127.812  0.00  0.00    +0.000 A 
ATOM     43  C   UNL     1      -5.290   4.686 127.459  0.00  0.00    +0.000 A 
ATOM     44  C   UNL     1      -3.889   4.915 127.443  0.00  0.00    +0.000 A 
ATOM     45  F   UNL     1      -3.451   6.184 127.575  0.00  0.00    +0.000 F 
ATOM     46  C   UNL     1      -3.012   3.887 127.851  0.00  0.00    +0.000 A 
ATOM     47  C   UNL     1      -3.512   2.592 128.099  0.00  0.00    +0.000 A 
ENDBRANCH  40  41
ENDBRANCH  34  40
ENDBRANCH  32  34
ENDBRANCH  29  30
ENDBRANCH  10  29
TORSDOF 12
ENDMDL
MODEL 5
REMARK VINA RESULT:      -9.8      3.987      7.686
REMARK  Name = CHEMBL436540
REMARK  13 active torsions:
REMARK  status: ('A' for Active; 'I' for Inactive)
REMARK    1  A    between atoms: C_1  and  C_2
REMARK    2  A    between atoms: C_2  and  C_4
REMARK    3  A    between atoms: C_4  and  C_5
REMARK    4  A    between atoms: C_5  and  C_6
REMARK    5  A    between atoms: C_6  and  C_7
REMARK    6  A    between atoms: N_9  and  C_10
REMARK    7  A    between atoms: C_12  and  C_13
REMARK    8  A    between atoms: N_25  and  C_26
REMARK    9  A    between atoms: C_26  and  C_27
REMARK   10  A    between atoms: N_29  and  C_30
REMARK   11  A    between atoms: C_30  and  C_31
REMARK   12  A    between atoms: C_30  and  C_39
REMARK   13  A    between atoms: C_31  and  C_32
REMARK                            x       y       z     vdW  Elec       q    Type
REMARK                         _______ _______ _______ _____ _____    ______ ____
ROOT
ATOM      1  C   UNL     1      -9.523   5.588 130.990  0.00  0.00    +0.000 C 
ATOM      2  N   UNL     1      -8.220   5.967 130.429  0.00  0.00    +0.000 NA
ATOM      3  C   UNL     1      -7.158   5.698 131.084  0.00  0.00    +0.000 C 
ATOM      4  C   UNL     1      -7.184   4.917 132.287  0.00  0.00    +0.000 A 
ATOM      5  C   UNL     1      -6.256   5.280 133.278  0.00  0.00    +0.000 A 
ATOM      6  C   UNL     1      -6.132   4.416 134.287  0.00  0.00    +0.000 A 
ATOM      7  C   UNL     1      -7.080   3.415 134.269  0.00  0.00    +0.000 A 
ATOM      8  C   UNL     1      -8.198   3.204 133.533  0.00  0.00    +0.000 A 
ATOM      9  C   UNL     1      -8.070   3.809 132.356  0.00  0.00    +0.000 A 
ATOM     10  N   UNL     1      -8.803   3.238 131.295  0.00  0.00    +0.000 N 
ATOM     11  C   UNL     1      -9.730   4.068 130.686  0.00  0.00    +0.000 C 
ATOM     12  O   UNL     1     -10.671   3.626 130.022  0.00  0.00    +0.000 OA
ENDROOT
BRANCH   3  13
ATOM     13  C   UNL     1      -5.833   6.157 130.640  0.00  0.00    +0.000 A 
ATOM     14  C   UNL     1      -4.937   5.230 130.115  0.00  0.00    +0.000 A 
ATOM     15  C   UNL     1      -3.649   5.654 129.817  0.00  0.00    +0.000 A 
ATOM     16  C   UNL     1      -3.320   7.010 129.912  0.00  0.00    +0.000 A 
ATOM     17  C   UNL     1      -4.291   7.956 130.244  0.00  0.00    +0.000 A 
ATOM     18  C   UNL     1      -5.548   7.527 130.645  0.00  0.00    +0.000 A 
ENDBRANCH   3  13
BRANCH   1  21
ATOM     19  C   UNL     1     -11.676   6.712 130.995  0.00  0.00    +0.000 C 
ATOM     20  O   UNL     1     -11.977   6.339 132.128  0.00  0.00    +0.000 OA
ATOM     21  N   UNL     1     -10.547   6.334 130.323  0.00  0.00    +0.000 N 
ATOM     22  H   UNL     1     -10.358   6.606 129.369  0.00  0.00    +0.000 HD
BRANCH  19  23
ATOM     23  C   UNL     1     -12.571   7.637 130.219  0.00  0.00    +0.000 C 
BRANCH  23  24
ATOM     24  C   UNL     1     -12.990   6.909 128.946  0.00  0.00    +0.000 C 
BRANCH  24  25
ATOM     25  C   UNL     1     -12.745   7.714 127.686  0.00  0.00    +0.000 C 
BRANCH  25  27
ATOM     26  C   UNL     1     -11.145   7.881 125.678  0.00  0.00    +0.000 C 
ATOM     27  C   UNL     1     -11.451   7.277 127.018  0.00  0.00    +0.000 C 
ATOM     28  O   UNL     1     -10.672   6.472 127.529  0.00  0.00    +0.000 OA
ENDBRANCH  25  27
ENDBRANCH  24  25
ENDBRANCH  23  24
ENDBRANCH  19  23
ENDBRANCH   1  21
BRANCH  10  29
ATOM     29  C   UNL     1      -8.897   1.753 131.154  0.00  0.00    +0.000 C 
BRANCH  29  30
ATOM     30  C   UNL     1      -7.855   1.014 130.259  0.00  0.00    +0.000 C 
ATOM     31  O   UNL     1      -8.145   0.504 129.157  0.00  0.00    +0.000 OA
ATOM     32  N   UNL     1      -6.565   0.914 130.725  0.00  0.00    +0.000 N 
ATOM     33  H   UNL     1      -6.462   0.825 131.725  0.00  0.00    +0.000 HD
BRANCH  32  34
ATOM     34  C   UNL     1      -5.503   0.386 129.835  0.00  0.00    +0.000 C 
BRANCH  34  35
ATOM     35  C   UNL     1      -4.720  -0.820 130.420  0.00  0.00    +0.000 C 
ATOM     36  N   UNL     1      -3.550  -1.190 129.823  0.00  0.00    +0.000 N 
ATOM     37  O   UNL     1      -5.108  -1.455 131.400  0.00  0.00    +0.000 OA
ATOM     38  H   UNL     1      -3.108  -0.741 129.044  0.00  0.00    +0.000 HD
ATOM     39  H   UNL     1      -3.064  -1.984 130.227  0.00  0.00    +0.000 HD
ENDBRANCH  34  35
BRANCH  34  40
ATOM     40  C   UNL     1      -4.449   1.475 129.478  0.00  0.00    +0.000 C 
BRANCH  40  41
ATOM     41  C   UNL     1      -4.467   2.221 128.161  0.00  0.00    +0.000 A 
ATOM     42  C   UNL     1      -3.274   2.754 127.623  0.00  0.00    +0.000 A 
ATOM     43  C   UNL     1      -3.311   3.591 126.483  0.00  0.00    +0.000 A 
ATOM     44  C   UNL     1      -4.543   3.820 125.816  0.00  0.00    +0.000 A 
ATOM     45  F   UNL     1      -4.505   4.199 124.521  0.00  0.00    +0.000 F 
ATOM     46  C   UNL     1      -5.706   3.149 126.254  0.00  0.00    +0.000 A 
ATOM     47  C   UNL     1      -5.679   2.403 127.451  0.00  0.00    +0.000 A 
ENDBRANCH  40  41
ENDBRANCH  34  40
ENDBRANCH  32  34
ENDBRANCH  29  30
ENDBRANCH  10  29
TORSDOF 12
ENDMDL
MODEL 6
REMARK VINA RESULT:      -9.7      2.299      2.824
REMARK  Name = CHEMBL436540
REMARK  13 active torsions:
REMARK  status: ('A' for Active; 'I' for Inactive)
REMARK    1  A    between atoms: C_1  and  C_2
REMARK    2  A    between atoms: C_2  and  C_4
REMARK    3  A    between atoms: C_4  and  C_5
REMARK    4  A    between atoms: C_5  and  C_6
REMARK    5  A    between atoms: C_6  and  C_7
REMARK    6  A    between atoms: N_9  and  C_10
REMARK    7  A    between atoms: C_12  and  C_13
REMARK    8  A    between atoms: N_25  and  C_26
REMARK    9  A    between atoms: C_26  and  C_27
REMARK   10  A    between atoms: N_29  and  C_30
REMARK   11  A    between atoms: C_30  and  C_31
REMARK   12  A    between atoms: C_30  and  C_39
REMARK   13  A    between atoms: C_31  and  C_32
REMARK                            x       y       z     vdW  Elec       q    Type
REMARK                         _______ _______ _______ _____ _____    ______ ____
ROOT
ATOM      1  C   UNL     1      -7.847   0.589 130.256  0.00  0.00    +0.000 C 
ATOM      2  N   UNL     1      -7.320  -0.428 131.176  0.00  0.00    +0.000 NA
ATOM      3  C   UNL     1      -7.290  -1.648 130.803  0.00  0.00    +0.000 C 
ATOM      4  C   UNL     1      -7.625  -2.044 129.466  0.00  0.00    +0.000 A 
ATOM      5  C   UNL     1      -8.281  -3.279 129.333  0.00  0.00    +0.000 A 
ATOM      6  C   UNL     1      -8.382  -3.741 128.086  0.00  0.00    +0.000 A 
ATOM      7  C   UNL     1      -7.994  -2.825 127.131  0.00  0.00    +0.000 A 
ATOM      8  C   UNL     1      -7.671  -1.510 127.179  0.00  0.00    +0.000 A 
ATOM      9  C   UNL     1      -7.208  -1.214 128.389  0.00  0.00    +0.000 A 
ATOM     10  N   UNL     1      -6.310  -0.129 128.450  0.00  0.00    +0.000 N 
ATOM     11  C   UNL     1      -6.701   0.934 129.249  0.00  0.00    +0.000 C 
ATOM     12  O   UNL     1      -6.225   2.065 129.116  0.00  0.00    +0.000 OA
ENDROOT
BRANCH   3  13
ATOM     13  C   UNL     1      -6.891  -2.731 131.716  0.00  0.00    +0.000 A 
ATOM     14  C   UNL     1      -5.795  -3.523 131.388  0.00  0.00    +0.000 A 
ATOM     15  C   UNL     1      -5.508  -4.617 132.194  0.00  0.00    +0.000 A 
ATOM     16  C   UNL     1      -6.222  -4.819 133.379  0.00  0.00    +0.000 A 
ATOM     17  C   UNL     1      -7.182  -3.896 133.797  0.00  0.00    +0.000 A 
ATOM     18  C   UNL     1      -7.547  -2.862 132.946  0.00  0.00    +0.000 A 
ENDBRANCH   3  13
BRANCH   1  21
ATOM     19  C   UNL     1      -9.275   1.790 131.809  0.00  0.00    +0.000 C 
ATOM     20  O   UNL     1     -10.136   0.912 131.847  0.00  0.00    +0.000 OA
ATOM     21  N   UNL     1      -8.169   1.765 131.005  0.00  0.00    +0.000 N 
ATOM     22  H   UNL     1      -7.513   2.531 130.949  0.00  0.00    +0.000 HD
BRANCH  19  23
ATOM     23  C   UNL     1      -9.384   3.021 132.665  0.00  0.00    +0.000 C 
BRANCH  23  24
ATOM     24  C   UNL     1      -9.518   4.219 131.731  0.00  0.00    +0.000 C 
BRANCH  24  25
ATOM     25  C   UNL     1     -10.637   4.070 130.721  0.00  0.00    +0.000 C 
BRANCH  25  27
ATOM     26  C   UNL     1     -11.287   6.422 131.539  0.00  0.00    +0.000 C 
ATOM     27  C   UNL     1     -11.263   5.422 130.418  0.00  0.00    +0.000 C 
ATOM     28  O   UNL     1     -11.732   5.712 129.318  0.00  0.00    +0.000 OA
ENDBRANCH  25  27
ENDBRANCH  24  25
ENDBRANCH  23  24
ENDBRANCH  19  23
ENDBRANCH   1  21
BRANCH  10  29
ATOM     29  C   UNL     1      -5.268   0.051 127.394  0.00  0.00    +0.000 C 
BRANCH  29  30
ATOM     30  C   UNL     1      -5.383   1.267 126.423  0.00  0.00    +0.000 C 
ATOM     31  O   UNL     1      -4.416   2.003 126.137  0.00  0.00    +0.000 OA
ATOM     32  N   UNL     1      -6.615   1.537 125.875  0.00  0.00    +0.000 N 
ATOM     33  H   UNL     1      -7.412   1.335 126.461  0.00  0.00    +0.000 HD
BRANCH  32  34
ATOM     34  C   UNL     1      -6.736   2.563 124.812  0.00  0.00    +0.000 C 
BRANCH  34  35
ATOM     35  C   UNL     1      -7.824   3.637 125.079  0.00  0.00    +0.000 C 
ATOM     36  N   UNL     1      -7.446   4.947 125.153  0.00  0.00    +0.000 N 
ATOM     37  O   UNL     1      -9.014   3.359 125.227  0.00  0.00    +0.000 OA
ATOM     38  H   UNL     1      -6.521   5.310 125.019  0.00  0.00    +0.000 HD
ATOM     39  H   UNL     1      -8.180   5.623 125.332  0.00  0.00    +0.000 HD
ENDBRANCH  34  35
BRANCH  34  40
ATOM     40  C   UNL     1      -7.062   1.930 123.427  0.00  0.00    +0.000 C 
BRANCH  40  41
ATOM     41  C   UNL     1      -7.624   0.532 123.286  0.00  0.00    +0.000 A 
ATOM     42  C   UNL     1      -9.020   0.324 123.223  0.00  0.00    +0.000 A 
ATOM     43  C   UNL     1      -9.555  -0.986 123.259  0.00  0.00    +0.000 A 
ATOM     44  C   UNL     1      -8.680  -2.104 123.262  0.00  0.00    +0.000 A 
ATOM     45  F   UNL     1      -9.160  -3.288 122.828  0.00  0.00    +0.000 F 
ATOM     46  C   UNL     1      -7.288  -1.897 123.153  0.00  0.00    +0.000 A 
ATOM     47  C   UNL     1      -6.762  -0.591 123.223  0.00  0.00    +0.000 A 
ENDBRANCH  40  41
ENDBRANCH  34  40
ENDBRANCH  32  34
ENDBRANCH  29  30
ENDBRANCH  10  29
TORSDOF 12
ENDMDL
MODEL 7
REMARK VINA RESULT:      -9.7      3.010      7.911
REMARK  Name = CHEMBL436540
REMARK  13 active torsions:
REMARK  status: ('A' for Active; 'I' for Inactive)
REMARK    1  A    between atoms: C_1  and  C_2
REMARK    2  A    between atoms: C_2  and  C_4
REMARK    3  A    between atoms: C_4  and  C_5
REMARK    4  A    between atoms: C_5  and  C_6
REMARK    5  A    between atoms: C_6  and  C_7
REMARK    6  A    between atoms: N_9  and  C_10
REMARK    7  A    between atoms: C_12  and  C_13
REMARK    8  A    between atoms: N_25  and  C_26
REMARK    9  A    between atoms: C_26  and  C_27
REMARK   10  A    between atoms: N_29  and  C_30
REMARK   11  A    between atoms: C_30  and  C_31
REMARK   12  A    between atoms: C_30  and  C_39
REMARK   13  A    between atoms: C_31  and  C_32
REMARK                            x       y       z     vdW  Elec       q    Type
REMARK                         _______ _______ _______ _____ _____    ______ ____
ROOT
ATOM      1  C   UNL     1      -6.885   2.060 125.965  0.00  0.00    +0.000 C 
ATOM      2  N   UNL     1      -7.615   0.968 125.307  0.00  0.00    +0.000 NA
ATOM      3  C   UNL     1      -7.668  -0.174 125.874  0.00  0.00    +0.000 C 
ATOM      4  C   UNL     1      -7.156  -0.393 127.196  0.00  0.00    +0.000 A 
ATOM      5  C   UNL     1      -6.572  -1.648 127.432  0.00  0.00    +0.000 A 
ATOM      6  C   UNL     1      -6.308  -1.924 128.710  0.00  0.00    +0.000 A 
ATOM      7  C   UNL     1      -6.481  -0.843 129.549  0.00  0.00    +0.000 A 
ATOM      8  C   UNL     1      -6.719   0.473 129.335  0.00  0.00    +0.000 A 
ATOM      9  C   UNL     1      -7.344   0.624 128.171  0.00  0.00    +0.000 A 
ATOM     10  N   UNL     1      -8.166   1.764 128.064  0.00  0.00    +0.000 N 
ATOM     11  C   UNL     1      -7.834   2.655 127.056  0.00  0.00    +0.000 C 
ATOM     12  O   UNL     1      -8.207   3.831 127.070  0.00  0.00    +0.000 OA
ENDROOT
BRANCH   3  13
ATOM     13  C   UNL     1      -8.275  -1.342 125.216  0.00  0.00    +0.000 A 
ATOM     14  C   UNL     1      -7.978  -1.595 123.880  0.00  0.00    +0.000 A 
ATOM     15  C   UNL     1      -8.655  -2.625 123.239  0.00  0.00    +0.000 A 
ATOM     16  C   UNL     1      -9.500  -3.467 123.969  0.00  0.00    +0.000 A 
ATOM     17  C   UNL     1      -9.625  -3.324 125.351  0.00  0.00    +0.000 A 
ATOM     18  C   UNL     1      -9.038  -2.234 125.978  0.00  0.00    +0.000 A 
ENDBRANCH   3  13
BRANCH   1  21
ATOM     19  C   UNL     1      -5.354   3.624 124.910  0.00  0.00    +0.000 C 
ATOM     20  O   UNL     1      -4.443   3.421 125.712  0.00  0.00    +0.000 OA
ATOM     21  N   UNL     1      -6.605   3.076 124.996  0.00  0.00    +0.000 N 
ATOM     22  H   UNL     1      -7.352   3.310 124.359  0.00  0.00    +0.000 HD
BRANCH  19  23
ATOM     23  C   UNL     1      -5.166   4.542 123.735  0.00  0.00    +0.000 C 
BRANCH  23  24
ATOM     24  C   UNL     1      -5.849   3.897 122.534  0.00  0.00    +0.000 C 
BRANCH  24  25
ATOM     25  C   UNL     1      -5.149   4.180 121.221  0.00  0.00    +0.000 C 
BRANCH  25  27
ATOM     26  C   UNL     1      -5.733   5.564 119.133  0.00  0.00    +0.000 C 
ATOM     27  C   UNL     1      -6.160   4.540 120.146  0.00  0.00    +0.000 C 
ATOM     28  O   UNL     1      -7.280   4.033 120.081  0.00  0.00    +0.000 OA
ENDBRANCH  25  27
ENDBRANCH  24  25
ENDBRANCH  23  24
ENDBRANCH  19  23
ENDBRANCH   1  21
BRANCH  10  29
ATOM     29  C   UNL     1      -9.016   2.195 129.216  0.00  0.00    +0.000 C 
BRANCH  29  30
ATOM     30  C   UNL     1      -8.490   3.319 130.161  0.00  0.00    +0.000 C 
ATOM     31  O   UNL     1      -7.453   3.201 130.847  0.00  0.00    +0.000 OA
ATOM     32  N   UNL     1      -9.218   4.482 130.243  0.00  0.00    +0.000 N 
ATOM     33  H   UNL     1     -10.219   4.384 130.154  0.00  0.00    +0.000 HD
BRANCH  32  34
ATOM     34  C   UNL     1      -8.665   5.643 130.982  0.00  0.00    +0.000 C 
BRANCH  34  35
ATOM     35  C   UNL     1      -9.026   5.672 132.491  0.00  0.00    +0.000 C 
ATOM     36  N   UNL     1      -8.412   4.784 133.326  0.00  0.00    +0.000 N 
ATOM     37  O   UNL     1      -9.840   6.463 132.968  0.00  0.00    +0.000 OA
ATOM     38  H   UNL     1      -7.711   4.113 133.074  0.00  0.00    +0.000 HD
ATOM     39  H   UNL     1      -8.672   4.825 134.306  0.00  0.00    +0.000 HD
ENDBRANCH  34  35
BRANCH  34  40
ATOM     40  C   UNL     1      -9.146   6.997 130.380  0.00  0.00    +0.000 C 
BRANCH  40  41
ATOM     41  C   UNL     1     -10.417   7.118 129.567  0.00  0.00    +0.000 A 
ATOM     42  C   UNL     1     -10.385   7.671 128.267  0.00  0.00    +0.000 A 
ATOM     43  C   UNL     1     -11.588   7.939 127.570  0.00  0.00    +0.000 A 
ATOM     44  C   UNL     1     -12.832   7.561 128.140  0.00  0.00    +0.000 A 
ATOM     45  F   UNL     1     -13.882   7.383 127.313  0.00  0.00    +0.000 F 
ATOM     46  C   UNL     1     -12.850   6.854 129.363  0.00  0.00    +0.000 A 
ATOM     47  C   UNL     1     -11.657   6.686 130.097  0.00  0.00    +0.000 A 
ENDBRANCH  40  41
ENDBRANCH  34  40
ENDBRANCH  32  34
ENDBRANCH  29  30
ENDBRANCH  10  29
TORSDOF 12
ENDMDL
MODEL 8
REMARK VINA RESULT:      -9.7      3.864      6.364
REMARK  Name = CHEMBL436540
REMARK  13 active torsions:
REMARK  status: ('A' for Active; 'I' for Inactive)
REMARK    1  A    between atoms: C_1  and  C_2
REMARK    2  A    between atoms: C_2  and  C_4
REMARK    3  A    between atoms: C_4  and  C_5
REMARK    4  A    between atoms: C_5  and  C_6
REMARK    5  A    between atoms: C_6  and  C_7
REMARK    6  A    between atoms: N_9  and  C_10
REMARK    7  A    between atoms: C_12  and  C_13
REMARK    8  A    between atoms: N_25  and  C_26
REMARK    9  A    between atoms: C_26  and  C_27
REMARK   10  A    between atoms: N_29  and  C_30
REMARK   11  A    between atoms: C_30  and  C_31
REMARK   12  A    between atoms: C_30  and  C_39
REMARK   13  A    between atoms: C_31  and  C_32
REMARK                            x       y       z     vdW  Elec       q    Type
REMARK                         _______ _______ _______ _____ _____    ______ ____
ROOT
ATOM      1  C   UNL     1      -7.943   4.054 130.636  0.00  0.00    +0.000 C 
ATOM      2  N   UNL     1      -6.782   4.720 130.030  0.00  0.00    +0.000 NA
ATOM      3  C   UNL     1      -5.649   4.134 130.049  0.00  0.00    +0.000 C 
ATOM      4  C   UNL     1      -5.496   2.787 130.519  0.00  0.00    +0.000 A 
ATOM      5  C   UNL     1      -4.298   2.502 131.196  0.00  0.00    +0.000 A 
ATOM      6  C   UNL     1      -4.066   1.209 131.424  0.00  0.00    +0.000 A 
ATOM      7  C   UNL     1      -5.141   0.399 131.124  0.00  0.00    +0.000 A 
ATOM      8  C   UNL     1      -6.430   0.649 130.786  0.00  0.00    +0.000 A 
ATOM      9  C   UNL     1      -6.508   1.841 130.203  0.00  0.00    +0.000 A 
ATOM     10  N   UNL     1      -7.572   2.006 129.293  0.00  0.00    +0.000 N 
ATOM     11  C   UNL     1      -8.472   3.016 129.593  0.00  0.00    +0.000 C 
ATOM     12  O   UNL     1      -9.612   3.041 129.121  0.00  0.00    +0.000 OA
ENDROOT
BRANCH   3  13
ATOM     13  C   UNL     1      -4.423   4.794 129.572  0.00  0.00    +0.000 A 
ATOM     14  C   UNL     1      -3.886   5.841 130.315  0.00  0.00    +0.000 A 
ATOM     15  C   UNL     1      -2.804   6.535 129.789  0.00  0.00    +0.000 A 
ATOM     16  C   UNL     1      -2.192   6.089 128.614  0.00  0.00    +0.000 A 
ATOM     17  C   UNL     1      -2.617   4.914 127.993  0.00  0.00    +0.000 A 
ATOM     18  C   UNL     1      -3.762   4.278 128.451  0.00  0.00    +0.000 A 
ENDBRANCH   3  13
BRANCH   1  21
ATOM     19  C   UNL     1      -9.648   5.041 132.055  0.00  0.00    +0.000 C 
ATOM     20  O   UNL     1      -9.568   4.170 132.921  0.00  0.00    +0.000 OA
ATOM     21  N   UNL     1      -8.963   5.029 130.872  0.00  0.00    +0.000 N 
ATOM     22  H   UNL     1      -9.097   5.726 130.152  0.00  0.00    +0.000 HD
BRANCH  19  23
ATOM     23  C   UNL     1     -10.557   6.226 132.227  0.00  0.00    +0.000 C 
BRANCH  23  24
ATOM     24  C   UNL     1     -11.603   6.167 131.119  0.00  0.00    +0.000 C 
BRANCH  24  25
ATOM     25  C   UNL     1     -11.683   7.440 130.301  0.00  0.00    +0.000 C 
BRANCH  25  27
ATOM     26  C   UNL     1     -10.833   8.494 128.113  0.00  0.00    +0.000 C 
ATOM     27  C   UNL     1     -10.931   7.278 128.990  0.00  0.00    +0.000 C 
ATOM     28  O   UNL     1     -10.415   6.217 128.640  0.00  0.00    +0.000 OA
ENDBRANCH  25  27
ENDBRANCH  24  25
ENDBRANCH  23  24
ENDBRANCH  19  23
ENDBRANCH   1  21
BRANCH  10  29
ATOM     29  C   UNL     1      -7.947   0.900 128.359  0.00  0.00    +0.000 C 
BRANCH  29  30
ATOM     30  C   UNL     1      -8.048   1.206 126.833  0.00  0.00    +0.000 C 
ATOM     31  O   UNL     1      -7.615   2.258 126.319  0.00  0.00    +0.000 OA
ATOM     32  N   UNL     1      -8.658   0.271 126.030  0.00  0.00    +0.000 N 
ATOM     33  H   UNL     1      -9.417  -0.245 126.450  0.00  0.00    +0.000 HD
BRANCH  32  34
ATOM     34  C   UNL     1      -8.615   0.430 124.556  0.00  0.00    +0.000 C 
BRANCH  34  35
ATOM     35  C   UNL     1      -9.705   1.374 123.983  0.00  0.00    +0.000 C 
ATOM     36  N   UNL     1      -9.329   2.603 123.522  0.00  0.00    +0.000 N 
ATOM     37  O   UNL     1     -10.895   1.063 123.924  0.00  0.00    +0.000 OA
ATOM     38  H   UNL     1      -8.395   2.966 123.482  0.00  0.00    +0.000 HD
ATOM     39  H   UNL     1     -10.065   3.198 123.158  0.00  0.00    +0.000 HD
ENDBRANCH  34  35
BRANCH  34  40
ATOM     40  C   UNL     1      -8.771  -0.933 123.819  0.00  0.00    +0.000 C 
BRANCH  40  41
ATOM     41  C   UNL     1      -7.670  -1.971 123.791  0.00  0.00    +0.000 A 
ATOM     42  C   UNL     1      -7.876  -3.250 124.356  0.00  0.00    +0.000 A 
ATOM     43  C   UNL     1      -6.801  -4.162 124.481  0.00  0.00    +0.000 A 
ATOM     44  C   UNL     1      -5.528  -3.829 123.948  0.00  0.00    +0.000 A 
ATOM     45  F   UNL     1      -4.680  -4.835 123.649  0.00  0.00    +0.000 F 
ATOM     46  C   UNL     1      -5.368  -2.622 123.233  0.00  0.00    +0.000 A 
ATOM     47  C   UNL     1      -6.414  -1.676 123.206  0.00  0.00    +0.000 A 
ENDBRANCH  40  41
ENDBRANCH  34  40
ENDBRANCH  32  34
ENDBRANCH  29  30
ENDBRANCH  10  29
TORSDOF 12
ENDMDL
MODEL 9
REMARK VINA RESULT:      -9.7      3.114      6.565
REMARK  Name = CHEMBL436540
REMARK  13 active torsions:
REMARK  status: ('A' for Active; 'I' for Inactive)
REMARK    1  A    between atoms: C_1  and  C_2
REMARK    2  A    between atoms: C_2  and  C_4
REMARK    3  A    between atoms: C_4  and  C_5
REMARK    4  A    between atoms: C_5  and  C_6
REMARK    5  A    between atoms: C_6  and  C_7
REMARK    6  A    between atoms: N_9  and  C_10
REMARK    7  A    between atoms: C_12  and  C_13
REMARK    8  A    between atoms: N_25  and  C_26
REMARK    9  A    between atoms: C_26  and  C_27
REMARK   10  A    between atoms: N_29  and  C_30
REMARK   11  A    between atoms: C_30  and  C_31
REMARK   12  A    between atoms: C_30  and  C_39
REMARK   13  A    between atoms: C_31  and  C_32
REMARK                            x       y       z     vdW  Elec       q    Type
REMARK                         _______ _______ _______ _____ _____    ______ ____
ROOT
ATOM      1  C   UNL     1      -8.967   4.486 129.952  0.00  0.00    +0.000 C 
ATOM      2  N   UNL     1      -8.529   4.317 128.560  0.00  0.00    +0.000 NA
ATOM      3  C   UNL     1      -7.324   3.969 128.325  0.00  0.00    +0.000 C 
ATOM      4  C   UNL     1      -6.418   3.604 129.375  0.00  0.00    +0.000 A 
ATOM      5  C   UNL     1      -5.075   3.968 129.186  0.00  0.00    +0.000 A 
ATOM      6  C   UNL     1      -4.211   3.429 130.048  0.00  0.00    +0.000 A 
ATOM      7  C   UNL     1      -4.822   2.763 131.090  0.00  0.00    +0.000 A 
ATOM      8  C   UNL     1      -6.108   2.663 131.505  0.00  0.00    +0.000 A 
ATOM      9  C   UNL     1      -6.920   2.847 130.468  0.00  0.00    +0.000 A 
ATOM     10  N   UNL     1      -8.178   2.218 130.562  0.00  0.00    +0.000 N 
ATOM     11  C   UNL     1      -9.278   3.059 130.511  0.00  0.00    +0.000 C 
ATOM     12  O   UNL     1     -10.385   2.718 130.938  0.00  0.00    +0.000 OA
ENDROOT
BRANCH   3  13
ATOM     13  C   UNL     1      -6.787   3.902 126.956  0.00  0.00    +0.000 A 
ATOM     14  C   UNL     1      -6.134   2.745 126.542  0.00  0.00    +0.000 A 
ATOM     15  C   UNL     1      -5.524   2.744 125.294  0.00  0.00    +0.000 A 
ATOM     16  C   UNL     1      -5.695   3.831 124.432  0.00  0.00    +0.000 A 
ATOM     17  C   UNL     1      -6.525   4.896 124.785  0.00  0.00    +0.000 A 
ATOM     18  C   UNL     1      -7.048   4.952 126.069  0.00  0.00    +0.000 A 
ENDBRANCH   3  13
BRANCH   1  21
ATOM     19  C   UNL     1     -10.383   6.191 130.943  0.00  0.00    +0.000 C 
ATOM     20  O   UNL     1      -9.672   6.341 131.936  0.00  0.00    +0.000 OA
ATOM     21  N   UNL     1     -10.171   5.258 129.966  0.00  0.00    +0.000 N 
ATOM     22  H   UNL     1     -10.808   5.115 129.195  0.00  0.00    +0.000 HD
BRANCH  19  23
ATOM     23  C   UNL     1     -11.603   7.043 130.726  0.00  0.00    +0.000 C 
BRANCH  23  24
ATOM     24  C   UNL     1     -12.180   6.676 129.362  0.00  0.00    +0.000 C 
BRANCH  24  25
ATOM     25  C   UNL     1     -12.313   7.862 128.428  0.00  0.00    +0.000 C 
BRANCH  25  27
ATOM     26  C   UNL     1     -10.901   7.626 126.291  0.00  0.00    +0.000 C 
ATOM     27  C   UNL     1     -11.000   8.119 127.706  0.00  0.00    +0.000 C 
ATOM     28  O   UNL     1     -10.050   8.702 128.228  0.00  0.00    +0.000 OA
ENDBRANCH  25  27
ENDBRANCH  24  25
ENDBRANCH  23  24
ENDBRANCH  19  23
ENDBRANCH   1  21
BRANCH  10  29
ATOM     29  C   UNL     1      -8.295   0.839 131.127  0.00  0.00    +0.000 C 
BRANCH  29  30
ATOM     30  C   UNL     1      -7.775  -0.367 130.285  0.00  0.00    +0.000 C 
ATOM     31  O   UNL     1      -7.438  -1.457 130.792  0.00  0.00    +0.000 OA
ATOM     32  N   UNL     1      -7.676  -0.203 128.923  0.00  0.00    +0.000 N 
ATOM     33  H   UNL     1      -7.429   0.723 128.607  0.00  0.00    +0.000 HD
BRANCH  32  34
ATOM     34  C   UNL     1      -7.363  -1.371 128.065  0.00  0.00    +0.000 C 
BRANCH  34  35
ATOM     35  C   UNL     1      -5.905  -1.405 127.535  0.00  0.00    +0.000 C 
ATOM     36  N   UNL     1      -5.061  -0.390 127.881  0.00  0.00    +0.000 N 
ATOM     37  O   UNL     1      -5.476  -2.308 126.818  0.00  0.00    +0.000 OA
ATOM     38  H   UNL     1      -5.272   0.385 128.482  0.00  0.00    +0.000 HD
ATOM     39  H   UNL     1      -4.116  -0.439 127.516  0.00  0.00    +0.000 HD
ENDBRANCH  34  35
BRANCH  34  40
ATOM     40  C   UNL     1      -8.294  -1.442 126.819  0.00  0.00    +0.000 C 
BRANCH  40  41
ATOM     41  C   UNL     1      -8.374  -0.325 125.800  0.00  0.00    +0.000 A 
ATOM     42  C   UNL     1      -9.227   0.781 126.015  0.00  0.00    +0.000 A 
ATOM     43  C   UNL     1      -9.430   1.741 124.996  0.00  0.00    +0.000 A 
ATOM     44  C   UNL     1      -8.698   1.647 123.783  0.00  0.00    +0.000 A 
ATOM     45  F   UNL     1      -8.537   2.767 123.048  0.00  0.00    +0.000 F 
ATOM     46  C   UNL     1      -7.721   0.638 123.637  0.00  0.00    +0.000 A 
ATOM     47  C   UNL     1      -7.602  -0.373 124.614  0.00  0.00    +0.000 A 
ENDBRANCH  40  41
ENDBRANCH  34  40
ENDBRANCH  32  34
ENDBRANCH  29  30
ENDBRANCH  10  29
TORSDOF 12
ENDMDL
