MODEL 1
REMARK VINA RESULT:      -9.3      0.000      0.000
REMARK  Name = CHEMBL1765664
REMARK  25 active torsions:
REMARK  status: ('A' for Active; 'I' for Inactive)
REMARK    1  A    between atoms: CD1_1  and  CG_2
REMARK    2  A    between atoms: CG_2  and  CD2_3
REMARK    3  A    between atoms: CG_2  and  CB_4
REMARK    4  A    between atoms: CB_4  and  CA_5
REMARK    5  A    between atoms: CA_9  and  CB_10
REMARK    6  A    between atoms: CB_10  and  CG_11
REMARK    7  A    between atoms: CA_20  and  CB_21
REMARK    8  A    between atoms: CB_21  and  CG_22
REMARK    9  A    between atoms: CZ_25  and  OH_26
REMARK   10  A    between atoms: C_37  and  C_38
REMARK   11  A    between atoms: CA_44  and  C_45
REMARK   12  A    between atoms: N_47  and  C_48
REMARK   13  A    between atoms: C_48  and  C_49
REMARK   14  A    between atoms: C_48  and  C_63
REMARK   15  A    between atoms: C_49  and  C_50
REMARK   16  A    between atoms: C_50  and  C_51
REMARK   17  A    between atoms: C_51  and  C_52
REMARK   18  A    between atoms: C_52  and  N_53
REMARK   19  A    between atoms: C_54  and  C_56
REMARK   20  A    between atoms: C_61  and  N_62
REMARK   21  A    between atoms: N_65  and  CA_66
REMARK   22  A    between atoms: CA_66  and  C_67
REMARK   23  A    between atoms: C_67  and  OXT_69
REMARK   24  A    between atoms: CA_73  and  CB_74
REMARK   25  A    between atoms: CB_74  and  CG_75
REMARK                            x       y       z     vdW  Elec       q    Type
REMARK                         _______ _______ _______ _____ _____    ______ ____
ROOT
ATOM      1  CA  TYR A   1      -6.888   1.900 133.789  0.00  0.00    +0.000 C 
ATOM      2  N   TYR A   1      -6.691   3.091 134.833  0.00  0.00    +0.000 N 
ATOM      3  C   TYR A   1      -5.668   3.932 135.279  0.00  0.00    +0.000 C 
ATOM      4  O   TYR A   1      -5.950   5.098 135.588  0.00  0.00    +0.000 OA
ATOM      5  CA  TYR A   1      -4.163   3.401 135.329  0.00  0.00    +0.000 C 
ATOM      6  N   TYR A   1      -3.192   3.430 134.210  0.00  0.00    +0.000 N 
ATOM      7  C   TYR A   1      -2.552   4.460 133.479  0.00  0.00    +0.000 C 
ATOM      8  O   TYR A   1      -1.559   4.115 132.828  0.00  0.00    +0.000 OA
ATOM      9  CA  TYR A   1      -3.280   6.059 133.346  0.00  0.00    +0.000 C 
ATOM     10  N   TYR A   1      -2.036   6.754 133.293  0.00  0.00    +0.000 N 
ATOM     11  C   UNK A   0      -1.199   6.689 132.215  0.00  0.00    +0.000 C 
ATOM     12  O   UNK A   0      -0.066   7.145 132.401  0.00  0.00    +0.000 OA
ATOM     13  C   UNK A   0      -1.601   6.122 130.803  0.00  0.00    +0.000 C 
ATOM     14  C   UNK A   0      -2.884   5.346 130.458  0.00  0.00    +0.000 C 
ATOM     15  S   UNK A   3      -3.128   4.673 128.767  0.00  0.00    +0.000 S 
ATOM     16  S   UNK A   3      -5.213   4.860 128.574  0.00  0.00    +0.000 S 
ATOM     17  C   UNK A   3      -5.817   3.265 127.870  0.00  0.00    +0.000 C 
ATOM     18  C   UNK A   3      -7.254   2.704 127.940  0.00  0.00    +0.000 C 
ATOM     19  N   UNK A   3      -7.346   1.536 128.834  0.00  0.00    +0.000 N 
ATOM     20  C   ASN A   2      -7.111   1.483 130.155  0.00  0.00    +0.000 C 
ATOM     21  O   ASN A   2      -7.067   0.426 130.784  0.00  0.00    +0.000 OA
ATOM     22  CA  ASN A   2      -6.871   2.781 130.840  0.00  0.00    +0.000 C 
ATOM     23  N   ASN A   2      -7.988   2.675 131.737  0.00  0.00    +0.000 N 
ATOM     24  C   TYR A   1      -8.139   2.295 133.032  0.00  0.00    +0.000 C 
ATOM     25  O   TYR A   1      -9.168   2.642 133.622  0.00  0.00    +0.000 OA
ATOM     26  H   TYR A   1      -7.586   3.571 135.034  0.00  0.00    +0.000 HD
ATOM     27  H   TYR A   1      -2.987   2.509 133.790  0.00  0.00    +0.000 HD
ATOM     28  H   TYR A   1      -1.581   6.950 134.180  0.00  0.00    +0.000 HD
ATOM     29  H   UNK A   3      -7.600   0.630 128.450  0.00  0.00    +0.000 HD
ATOM     30  H   ASN A   2      -8.781   3.157 131.319  0.00  0.00    +0.000 HD
ENDROOT
BRANCH  18  31
ATOM     31  C   UNK A   3      -7.806   2.244 126.540  0.00  0.00    +0.000 C 
ATOM     32  O   UNK A   3      -8.918   1.705 126.480  0.00  0.00    +0.000 OA
ATOM     33  N   PRO A   4      -7.145   2.678 125.398  0.00  0.00    +0.000 N 
ATOM     34  CD  PRO A   4      -5.732   2.600 125.054  0.00  0.00    +0.000 C 
ATOM     35  CG  PRO A   4      -5.556   3.854 124.250  0.00  0.00    +0.000 C 
ATOM     36  CB  PRO A   4      -6.768   3.803 123.340  0.00  0.00    +0.000 C 
ATOM     37  CA  PRO A   4      -7.863   3.086 124.162  0.00  0.00    +0.000 C 
BRANCH  37  38
ATOM     38  C   PRO A   4      -8.298   1.901 123.277  0.00  0.00    +0.000 C 
ATOM     39  O   PRO A   4      -8.936   2.107 122.244  0.00  0.00    +0.000 OA
ATOM     40  N   UNK A   5      -8.024   0.617 123.745  0.00  0.00    +0.000 N 
ATOM     41  H   UNK A   5      -7.781   0.460 124.718  0.00  0.00    +0.000 HD
BRANCH  40  42
ATOM     42  C   UNK A   5      -8.220  -0.607 122.916  0.00  0.00    +0.000 C 
BRANCH  42  43
ATOM     43  C   UNK A   5      -9.053  -1.696 123.689  0.00  0.00    +0.000 C 
ATOM     44  O   UNK A   5      -9.725  -2.535 123.086  0.00  0.00    +0.000 OA
ATOM     45  N   GLY A   6      -9.002  -1.680 125.074  0.00  0.00    +0.000 N 
ATOM     46  H   GLY A   6      -8.439  -0.999 125.577  0.00  0.00    +0.000 HD
BRANCH  45  47
ATOM     47  CA  GLY A   6      -9.757  -2.631 125.910  0.00  0.00    +0.000 C 
BRANCH  47  48
ATOM     48  C   GLY A   6      -8.847  -3.720 126.489  0.00  0.00    +0.000 C 
ATOM     49  O   GLY A   6      -7.922  -4.220 125.860  0.00  0.00    +0.000 OA
BRANCH  48  50
ATOM     50  OXT GLY A   6      -9.128  -4.105 127.757  0.00  0.00    +0.000 OA
ATOM     51  HXT GLY A   6      -9.350  -5.043 127.909  0.00  0.00    +0.000 HD
ENDBRANCH  48  50
ENDBRANCH  47  48
ENDBRANCH  45  47
ENDBRANCH  42  43
BRANCH  42  52
ATOM     52  C   UNK A   5      -6.854  -1.207 122.518  0.00  0.00    +0.000 C 
BRANCH  52  53
ATOM     53  C   UNK A   5      -6.580  -2.533 123.211  0.00  0.00    +0.000 C 
BRANCH  53  54
ATOM     54  C   UNK A   5      -5.360  -2.575 124.088  0.00  0.00    +0.000 C 
BRANCH  54  55
ATOM     55  C   UNK A   5      -5.536  -1.566 125.221  0.00  0.00    +0.000 C 
BRANCH  55  56
ATOM     56  N   UNK A   5      -5.358  -2.208 126.498  0.00  0.00    +0.000 N 
ATOM     57  C   UNK A   5      -6.090  -1.846 127.607  0.00  0.00    +0.000 C 
ATOM     58  O   UNK A   5      -6.945  -0.967 127.607  0.00  0.00    +0.000 OA
ATOM     59  H   UNK A   5      -4.758  -3.026 126.560  0.00  0.00    +0.000 HD
BRANCH  57  60
ATOM     60  C   UNK A   5      -5.751  -2.567 128.865  0.00  0.00    +0.000 A 
ATOM     61  C   UNK A   5      -4.434  -3.024 129.042  0.00  0.00    +0.000 A 
ATOM     62  C   UNK A   5      -4.111  -3.820 130.144  0.00  0.00    +0.000 A 
ATOM     63  C   UNK A   5      -5.079  -4.096 131.105  0.00  0.00    +0.000 A 
ATOM     64  C   UNK A   5      -6.387  -3.629 130.936  0.00  0.00    +0.000 A 
ATOM     65  C   UNK A   5      -6.754  -2.885 129.806  0.00  0.00    +0.000 A 
BRANCH  65  66
ATOM     66  N   UNK A   5      -8.030  -2.294 129.764  0.00  0.00    +0.000 N 
ATOM     67  H   UNK A   5      -8.636  -2.575 129.003  0.00  0.00    +0.000 HD
ATOM     68  H   UNK A   5      -8.022  -1.285 129.928  0.00  0.00    +0.000 HD
ENDBRANCH  65  66
ENDBRANCH  57  60
ENDBRANCH  55  56
ENDBRANCH  54  55
ENDBRANCH  53  54
ENDBRANCH  52  53
ENDBRANCH  42  52
ENDBRANCH  40  42
ENDBRANCH  37  38
ENDBRANCH  18  31
BRANCH  22  69
ATOM     69  CB  ASN A   2      -5.397   2.689 130.991  0.00  0.00    +0.000 C 
BRANCH  69  70
ATOM     70  CG  ASN A   2      -4.415   1.686 130.720  0.00  0.00    +0.000 C 
ATOM     71  ND2 ASN A   2      -3.774   1.490 131.900  0.00  0.00    +0.000 N 
ATOM     72  OD1 ASN A   2      -4.156   1.340 129.625  0.00  0.00    +0.000 OA
ATOM     73 HD21 ASN A   2      -4.330   0.995 132.555  0.00  0.00    +0.000 HD
ATOM     74 HD22 ASN A   2      -2.951   0.946 131.905  0.00  0.00    +0.000 HD
ENDBRANCH  69  70
ENDBRANCH  22  69
BRANCH   9  75
ATOM     75  CB  TYR A   1      -4.344   6.980 132.345  0.00  0.00    +0.000 C 
BRANCH  75  76
ATOM     76  CG  TYR A   1      -5.841   6.704 132.099  0.00  0.00    +0.000 A 
ATOM     77  CD1 TYR A   1      -6.225   7.176 130.903  0.00  0.00    +0.000 A 
ATOM     78  CE1 TYR A   1      -7.541   7.366 130.540  0.00  0.00    +0.000 A 
ATOM     79  CZ  TYR A   1      -8.593   6.714 131.070  0.00  0.00    +0.000 A 
ATOM     80  CE2 TYR A   1      -8.247   6.000 132.183  0.00  0.00    +0.000 A 
ATOM     81  CD2 TYR A   1      -6.880   5.987 132.702  0.00  0.00    +0.000 A 
BRANCH  79  82
ATOM     82  OH  TYR A   1      -9.880   6.999 130.708  0.00  0.00    +0.000 OA
ATOM     83  HH  TYR A   1      -9.945   7.307 129.763  0.00  0.00    +0.000 HD
ENDBRANCH  79  82
ENDBRANCH  75  76
ENDBRANCH   9  75
BRANCH   5  84
ATOM     84  CB  TYR A   1      -3.361   4.152 136.321  0.00  0.00    +0.000 C 
BRANCH  84  85
ATOM     85  CG  TYR A   1      -3.667   3.806 137.713  0.00  0.00    +0.000 A 
ATOM     86  CD1 TYR A   1      -3.885   2.498 138.188  0.00  0.00    +0.000 A 
ATOM     87  CE1 TYR A   1      -4.578   2.306 139.350  0.00  0.00    +0.000 A 
ATOM     88  CZ  TYR A   1      -4.730   3.400 140.177  0.00  0.00    +0.000 A 
ATOM     89  CE2 TYR A   1      -4.400   4.694 139.754  0.00  0.00    +0.000 A 
ATOM     90  CD2 TYR A   1      -3.933   4.912 138.487  0.00  0.00    +0.000 A 
ENDBRANCH  84  85
ENDBRANCH   5  84
BRANCH   1  91
ATOM     91  CB  TYR A   1      -6.781   0.397 133.994  0.00  0.00    +0.000 C 
BRANCH  91  93
ATOM     92  CD1 TYR A   1      -5.397  -0.109 135.896  0.00  0.00    +0.000 C 
ATOM     93  CG  TYR A   1      -5.393   0.012 134.384  0.00  0.00    +0.000 C 
ATOM     94  CD2 TYR A   1      -4.978  -1.301 133.750  0.00  0.00    +0.000 C 
ENDBRANCH  91  93
ENDBRANCH   1  91
TORSDOF 23
ENDMDL
MODEL 2
REMARK VINA RESULT:      -9.2      3.386     12.171
REMARK  Name = CHEMBL1765664
REMARK  25 active torsions:
REMARK  status: ('A' for Active; 'I' for Inactive)
REMARK    1  A    between atoms: CD1_1  and  CG_2
REMARK    2  A    between atoms: CG_2  and  CD2_3
REMARK    3  A    between atoms: CG_2  and  CB_4
REMARK    4  A    between atoms: CB_4  and  CA_5
REMARK    5  A    between atoms: CA_9  and  CB_10
REMARK    6  A    between atoms: CB_10  and  CG_11
REMARK    7  A    between atoms: CA_20  and  CB_21
REMARK    8  A    between atoms: CB_21  and  CG_22
REMARK    9  A    between atoms: CZ_25  and  OH_26
REMARK   10  A    between atoms: C_37  and  C_38
REMARK   11  A    between atoms: CA_44  and  C_45
REMARK   12  A    between atoms: N_47  and  C_48
REMARK   13  A    between atoms: C_48  and  C_49
REMARK   14  A    between atoms: C_48  and  C_63
REMARK   15  A    between atoms: C_49  and  C_50
REMARK   16  A    between atoms: C_50  and  C_51
REMARK   17  A    between atoms: C_51  and  C_52
REMARK   18  A    between atoms: C_52  and  N_53
REMARK   19  A    between atoms: C_54  and  C_56
REMARK   20  A    between atoms: C_61  and  N_62
REMARK   21  A    between atoms: N_65  and  CA_66
REMARK   22  A    between atoms: CA_66  and  C_67
REMARK   23  A    between atoms: C_67  and  OXT_69
REMARK   24  A    between atoms: CA_73  and  CB_74
REMARK   25  A    between atoms: CB_74  and  CG_75
REMARK                            x       y       z     vdW  Elec       q    Type
REMARK                         _______ _______ _______ _____ _____    ______ ____
ROOT
ATOM      1  CA  TYR A   1      -6.765   2.656 125.986  0.00  0.00    +0.000 C 
ATOM      2  N   TYR A   1      -7.864   1.499 125.999  0.00  0.00    +0.000 N 
ATOM      3  C   TYR A   1      -7.952   0.145 126.332  0.00  0.00    +0.000 C 
ATOM      4  O   TYR A   1      -9.008  -0.278 126.824  0.00  0.00    +0.000 OA
ATOM      5  CA  TYR A   1      -6.690  -0.811 126.129  0.00  0.00    +0.000 C 
ATOM      6  N   TYR A   1      -5.594  -1.027 127.104  0.00  0.00    +0.000 N 
ATOM      7  C   TYR A   1      -5.516  -1.595 128.398  0.00  0.00    +0.000 C 
ATOM      8  O   TYR A   1      -4.380  -1.896 128.781  0.00  0.00    +0.000 OA
ATOM      9  CA  TYR A   1      -6.929  -1.643 129.450  0.00  0.00    +0.000 C 
ATOM     10  N   TYR A   1      -6.562  -2.864 130.090  0.00  0.00    +0.000 N 
ATOM     11  C   UNK A   0      -5.510  -2.956 130.956  0.00  0.00    +0.000 C 
ATOM     12  O   UNK A   0      -5.169  -4.107 131.248  0.00  0.00    +0.000 OA
ATOM     13  C   UNK A   0      -4.770  -1.725 131.600  0.00  0.00    +0.000 C 
ATOM     14  C   UNK A   0      -4.933  -0.248 131.203  0.00  0.00    +0.000 C 
ATOM     15  S   UNK A   3      -3.902   1.042 132.006  0.00  0.00    +0.000 S 
ATOM     16  S   UNK A   3      -5.248   2.656 132.024  0.00  0.00    +0.000 S 
ATOM     17  C   UNK A   3      -4.302   4.131 131.445  0.00  0.00    +0.000 C 
ATOM     18  C   UNK A   3      -4.883   5.435 130.857  0.00  0.00    +0.000 C 
ATOM     19  N   UNK A   3      -4.601   5.563 129.416  0.00  0.00    +0.000 N 
ATOM     20  C   ASN A   2      -5.011   4.764 128.418  0.00  0.00    +0.000 C 
ATOM     21  O   ASN A   2      -4.596   4.870 127.264  0.00  0.00    +0.000 OA
ATOM     22  CA  ASN A   2      -5.990   3.703 128.774  0.00  0.00    +0.000 C 
ATOM     23  N   ASN A   2      -7.029   4.170 127.899  0.00  0.00    +0.000 N 
ATOM     24  C   TYR A   1      -7.464   3.817 126.661  0.00  0.00    +0.000 C 
ATOM     25  O   TYR A   1      -8.597   4.175 126.322  0.00  0.00    +0.000 OA
ATOM     26  H   TYR A   1      -8.823   1.886 126.053  0.00  0.00    +0.000 HD
ATOM     27  H   TYR A   1      -4.693  -0.593 126.846  0.00  0.00    +0.000 HD
ATOM     28  H   TYR A   1      -6.797  -3.725 129.605  0.00  0.00    +0.000 HD
ATOM     29  H   UNK A   3      -4.015   6.325 129.085  0.00  0.00    +0.000 HD
ATOM     30  H   ASN A   2      -7.647   4.778 128.431  0.00  0.00    +0.000 HD
ENDROOT
BRANCH  18  31
ATOM     31  C   UNK A   3      -4.311   6.731 131.544  0.00  0.00    +0.000 C 
ATOM     32  O   UNK A   3      -5.095   7.628 131.879  0.00  0.00    +0.000 OA
ATOM     33  N   PRO A   4      -2.991   6.718 131.973  0.00  0.00    +0.000 N 
ATOM     34  CD  PRO A   4      -1.779   6.367 131.247  0.00  0.00    +0.000 C 
ATOM     35  CG  PRO A   4      -0.945   5.768 132.340  0.00  0.00    +0.000 C 
ATOM     36  CB  PRO A   4      -1.134   6.780 133.454  0.00  0.00    +0.000 C 
ATOM     37  CA  PRO A   4      -2.556   7.348 133.247  0.00  0.00    +0.000 C 
BRANCH  37  38
ATOM     38  C   PRO A   4      -2.353   8.873 133.149  0.00  0.00    +0.000 C 
ATOM     39  O   PRO A   4      -2.355   9.425 132.048  0.00  0.00    +0.000 OA
ATOM     40  N   UNK A   5      -2.078   9.561 134.330  0.00  0.00    +0.000 N 
ATOM     41  H   UNK A   5      -1.781   9.062 135.163  0.00  0.00    +0.000 HD
BRANCH  40  42
ATOM     42  C   UNK A   5      -2.043  11.049 134.413  0.00  0.00    +0.000 C 
BRANCH  42  43
ATOM     43  C   UNK A   5      -0.587  11.572 134.701  0.00  0.00    +0.000 C 
ATOM     44  O   UNK A   5       0.315  10.802 135.037  0.00  0.00    +0.000 OA
ATOM     45  N   GLY A   6      -0.352  12.931 134.561  0.00  0.00    +0.000 N 
ATOM     46  H   GLY A   6      -1.089  13.570 134.271  0.00  0.00    +0.000 HD
BRANCH  45  47
ATOM     47  CA  GLY A   6       0.961  13.544 134.827  0.00  0.00    +0.000 C 
BRANCH  47  48
ATOM     48  C   GLY A   6       1.798  13.665 133.548  0.00  0.00    +0.000 C 
ATOM     49  O   GLY A   6       1.464  13.159 132.483  0.00  0.00    +0.000 OA
BRANCH  48  50
ATOM     50  OXT GLY A   6       2.945  14.374 133.663  0.00  0.00    +0.000 OA
ATOM     51  HXT GLY A   6       3.591  14.317 132.934  0.00  0.00    +0.000 HD
ENDBRANCH  48  50
ENDBRANCH  47  48
ENDBRANCH  45  47
ENDBRANCH  42  43
BRANCH  42  52
ATOM     52  C   UNK A   5      -2.986  11.544 135.531  0.00  0.00    +0.000 C 
BRANCH  52  53
ATOM     53  C   UNK A   5      -3.480  10.410 136.416  0.00  0.00    +0.000 C 
BRANCH  53  54
ATOM     54  C   UNK A   5      -3.798  10.780 137.838  0.00  0.00    +0.000 C 
BRANCH  54  55
ATOM     55  C   UNK A   5      -5.149  10.171 138.213  0.00  0.00    +0.000 C 
BRANCH  55  56
ATOM     56  N   UNK A   5      -5.474   9.085 137.325  0.00  0.00    +0.000 N 
ATOM     57  C   UNK A   5      -5.972   7.887 137.787  0.00  0.00    +0.000 C 
ATOM     58  O   UNK A   5      -6.182   7.643 138.970  0.00  0.00    +0.000 OA
ATOM     59  H   UNK A   5      -5.445   9.242 136.322  0.00  0.00    +0.000 HD
BRANCH  57  60
ATOM     60  C   UNK A   5      -6.207   6.845 136.749  0.00  0.00    +0.000 A 
ATOM     61  C   UNK A   5      -5.127   6.440 135.948  0.00  0.00    +0.000 A 
ATOM     62  C   UNK A   5      -5.336   5.568 134.878  0.00  0.00    +0.000 A 
ATOM     63  C   UNK A   5      -6.606   5.042 134.653  0.00  0.00    +0.000 A 
ATOM     64  C   UNK A   5      -7.680   5.434 135.459  0.00  0.00    +0.000 A 
ATOM     65  C   UNK A   5      -7.509   6.360 136.498  0.00  0.00    +0.000 A 
BRANCH  65  66
ATOM     66  N   UNK A   5      -8.576   6.592 137.386  0.00  0.00    +0.000 N 
ATOM     67  H   UNK A   5      -8.465   6.244 138.330  0.00  0.00    +0.000 HD
ATOM     68  H   UNK A   5      -9.495   6.399 136.984  0.00  0.00    +0.000 HD
ENDBRANCH  65  66
ENDBRANCH  57  60
ENDBRANCH  55  56
ENDBRANCH  54  55
ENDBRANCH  53  54
ENDBRANCH  52  53
ENDBRANCH  42  52
ENDBRANCH  40  42
ENDBRANCH  37  38
ENDBRANCH  18  31
BRANCH  22  69
ATOM     69  CB  ASN A   2      -5.071   2.537 128.777  0.00  0.00    +0.000 C 
BRANCH  69  70
ATOM     70  CG  ASN A   2      -3.753   2.290 128.282  0.00  0.00    +0.000 C 
ATOM     71  ND2 ASN A   2      -3.933   1.690 127.078  0.00  0.00    +0.000 N 
ATOM     72  OD1 ASN A   2      -2.795   2.416 128.954  0.00  0.00    +0.000 OA
ATOM     73 HD21 ASN A   2      -4.249   2.323 126.383  0.00  0.00    +0.000 HD
ATOM     74 HD22 ASN A   2      -3.153   1.291 126.627  0.00  0.00    +0.000 HD
ENDBRANCH  69  70
ENDBRANCH  22  69
BRANCH   9  75
ATOM     75  CB  TYR A   1      -7.735  -0.728 130.673  0.00  0.00    +0.000 C 
BRANCH  75  76
ATOM     76  CG  TYR A   1      -8.441   0.629 130.487  0.00  0.00    +0.000 A 
ATOM     77  CD1 TYR A   1      -8.900   1.095 131.658  0.00  0.00    +0.000 A 
ATOM     78  CE1 TYR A   1      -9.835   2.102 131.771  0.00  0.00    +0.000 A 
ATOM     79  CZ  TYR A   1     -10.066   3.051 130.845  0.00  0.00    +0.000 A 
ATOM     80  CE2 TYR A   1      -9.436   2.780 129.662  0.00  0.00    +0.000 A 
ATOM     81  CD2 TYR A   1      -8.623   1.578 129.476  0.00  0.00    +0.000 A 
BRANCH  79  82
ATOM     82  OH  TYR A   1     -11.054   3.984 130.993  0.00  0.00    +0.000 OA
ATOM     83  HH  TYR A   1     -11.572   4.120 130.153  0.00  0.00    +0.000 HD
ENDBRANCH  79  82
ENDBRANCH  75  76
ENDBRANCH   9  75
BRANCH   5  84
ATOM     84  CB  TYR A   1      -7.105  -2.223 125.967  0.00  0.00    +0.000 C 
BRANCH  84  85
ATOM     85  CG  TYR A   1      -7.751  -2.507 124.681  0.00  0.00    +0.000 A 
ATOM     86  CD1 TYR A   1      -7.450  -1.856 123.469  0.00  0.00    +0.000 A 
ATOM     87  CE1 TYR A   1      -8.365  -1.855 122.455  0.00  0.00    +0.000 A 
ATOM     88  CZ  TYR A   1      -9.389  -2.777 122.535  0.00  0.00    +0.000 A 
ATOM     89  CE2 TYR A   1      -9.622  -3.520 123.700  0.00  0.00    +0.000 A 
ATOM     90  CD2 TYR A   1      -8.844  -3.333 124.809  0.00  0.00    +0.000 A 
ENDBRANCH  84  85
ENDBRANCH   5  84
BRANCH   1  91
ATOM     91  CB  TYR A   1      -5.837   3.105 124.869  0.00  0.00    +0.000 C 
BRANCH  91  93
ATOM     92  CD1 TYR A   1      -5.714   4.186 122.722  0.00  0.00    +0.000 C 
ATOM     93  CG  TYR A   1      -6.595   3.318 123.600  0.00  0.00    +0.000 C 
ATOM     94  CD2 TYR A   1      -6.902   2.005 122.907  0.00  0.00    +0.000 C 
ENDBRANCH  91  93
ENDBRANCH   1  91
TORSDOF 23
ENDMDL
MODEL 3
REMARK VINA RESULT:      -9.2      3.583     12.316
REMARK  Name = CHEMBL1765664
REMARK  25 active torsions:
REMARK  status: ('A' for Active; 'I' for Inactive)
REMARK    1  A    between atoms: CD1_1  and  CG_2
REMARK    2  A    between atoms: CG_2  and  CD2_3
REMARK    3  A    between atoms: CG_2  and  CB_4
REMARK    4  A    between atoms: CB_4  and  CA_5
REMARK    5  A    between atoms: CA_9  and  CB_10
REMARK    6  A    between atoms: CB_10  and  CG_11
REMARK    7  A    between atoms: CA_20  and  CB_21
REMARK    8  A    between atoms: CB_21  and  CG_22
REMARK    9  A    between atoms: CZ_25  and  OH_26
REMARK   10  A    between atoms: C_37  and  C_38
REMARK   11  A    between atoms: CA_44  and  C_45
REMARK   12  A    between atoms: N_47  and  C_48
REMARK   13  A    between atoms: C_48  and  C_49
REMARK   14  A    between atoms: C_48  and  C_63
REMARK   15  A    between atoms: C_49  and  C_50
REMARK   16  A    between atoms: C_50  and  C_51
REMARK   17  A    between atoms: C_51  and  C_52
REMARK   18  A    between atoms: C_52  and  N_53
REMARK   19  A    between atoms: C_54  and  C_56
REMARK   20  A    between atoms: C_61  and  N_62
REMARK   21  A    between atoms: N_65  and  CA_66
REMARK   22  A    between atoms: CA_66  and  C_67
REMARK   23  A    between atoms: C_67  and  OXT_69
REMARK   24  A    between atoms: CA_73  and  CB_74
REMARK   25  A    between atoms: CB_74  and  CG_75
REMARK                            x       y       z     vdW  Elec       q    Type
REMARK                         _______ _______ _______ _____ _____    ______ ____
ROOT
ATOM      1  CA  TYR A   1      -6.811   3.273 126.290  0.00  0.00    +0.000 C 
ATOM      2  N   TYR A   1      -8.004   2.222 126.155  0.00  0.00    +0.000 N 
ATOM      3  C   TYR A   1      -8.210   0.849 126.313  0.00  0.00    +0.000 C 
ATOM      4  O   TYR A   1      -9.304   0.460 126.746  0.00  0.00    +0.000 OA
ATOM      5  CA  TYR A   1      -7.032  -0.178 125.991  0.00  0.00    +0.000 C 
ATOM      6  N   TYR A   1      -5.970  -0.608 126.932  0.00  0.00    +0.000 N 
ATOM      7  C   TYR A   1      -5.956  -1.340 128.143  0.00  0.00    +0.000 C 
ATOM      8  O   TYR A   1      -4.854  -1.784 128.486  0.00  0.00    +0.000 OA
ATOM      9  CA  TYR A   1      -7.380  -1.400 129.179  0.00  0.00    +0.000 C 
ATOM     10  N   TYR A   1      -7.126  -2.719 129.659  0.00  0.00    +0.000 N 
ATOM     11  C   UNK A   0      -6.095  -3.009 130.507  0.00  0.00    +0.000 C 
ATOM     12  O   UNK A   0      -5.856  -4.213 130.651  0.00  0.00    +0.000 OA
ATOM     13  C   UNK A   0      -5.262  -1.938 131.304  0.00  0.00    +0.000 C 
ATOM     14  C   UNK A   0      -5.293  -0.414 131.097  0.00  0.00    +0.000 C 
ATOM     15  S   UNK A   3      -4.166   0.671 132.058  0.00  0.00    +0.000 S 
ATOM     16  S   UNK A   3      -5.371   2.379 132.280  0.00  0.00    +0.000 S 
ATOM     17  C   UNK A   3      -4.296   3.829 131.895  0.00  0.00    +0.000 C 
ATOM     18  C   UNK A   3      -4.757   5.241 131.477  0.00  0.00    +0.000 C 
ATOM     19  N   UNK A   3      -4.449   5.526 130.064  0.00  0.00    +0.000 N 
ATOM     20  C   ASN A   2      -4.913   4.898 128.972  0.00  0.00    +0.000 C 
ATOM     21  O   ASN A   2      -4.476   5.113 127.841  0.00  0.00    +0.000 OA
ATOM     22  CA  ASN A   2      -5.983   3.889 129.190  0.00  0.00    +0.000 C 
ATOM     23  N   ASN A   2      -6.968   4.549 128.380  0.00  0.00    +0.000 N 
ATOM     24  C   TYR A   1      -7.416   4.395 127.107  0.00  0.00    +0.000 C 
ATOM     25  O   TYR A   1      -8.511   4.889 126.814  0.00  0.00    +0.000 OA
ATOM     26  H   TYR A   1      -8.927   2.680 126.257  0.00  0.00    +0.000 HD
ATOM     27  H   TYR A   1      -5.032  -0.224 126.732  0.00  0.00    +0.000 HD
ATOM     28  H   TYR A   1      -7.427  -3.488 129.068  0.00  0.00    +0.000 HD
ATOM     29  H   UNK A   3      -3.796   6.271 129.833  0.00  0.00    +0.000 HD
ATOM     30  H   ASN A   2      -7.538   5.136 128.984  0.00  0.00    +0.000 HD
ENDROOT
BRANCH  18  31
ATOM     31  C   UNK A   3      -4.086   6.386 132.323  0.00  0.00    +0.000 C 
ATOM     32  O   UNK A   3      -4.709   6.874 133.273  0.00  0.00    +0.000 OA
ATOM     33  N   PRO A   4      -2.733   6.635 132.135  0.00  0.00    +0.000 N 
ATOM     34  CD  PRO A   4      -1.996   6.885 130.904  0.00  0.00    +0.000 C 
ATOM     35  CG  PRO A   4      -0.669   6.262 131.227  0.00  0.00    +0.000 C 
ATOM     36  CB  PRO A   4      -0.414   6.800 132.622  0.00  0.00    +0.000 C 
ATOM     37  CA  PRO A   4      -1.814   6.962 133.256  0.00  0.00    +0.000 C 
BRANCH  37  38
ATOM     38  C   PRO A   4      -1.871   8.438 133.697  0.00  0.00    +0.000 C 
ATOM     39  O   PRO A   4      -2.568   9.240 133.075  0.00  0.00    +0.000 OA
ATOM     40  N   UNK A   5      -1.040   8.825 134.747  0.00  0.00    +0.000 N 
ATOM     41  H   UNK A   5      -0.265   8.238 135.039  0.00  0.00    +0.000 HD
BRANCH  40  42
ATOM     42  C   UNK A   5      -1.125  10.165 135.396  0.00  0.00    +0.000 C 
BRANCH  42  43
ATOM     43  C   UNK A   5      -0.147  11.194 134.716  0.00  0.00    +0.000 C 
ATOM     44  O   UNK A   5       0.961  11.438 135.198  0.00  0.00    +0.000 OA
ATOM     45  N   GLY A   6      -0.575  11.814 133.553  0.00  0.00    +0.000 N 
ATOM     46  H   GLY A   6      -1.482  11.607 133.143  0.00  0.00    +0.000 HD
BRANCH  45  47
ATOM     47  CA  GLY A   6       0.239  12.814 132.838  0.00  0.00    +0.000 C 
BRANCH  47  48
ATOM     48  C   GLY A   6      -0.162  12.918 131.363  0.00  0.00    +0.000 C 
ATOM     49  O   GLY A   6       0.655  12.943 130.449  0.00  0.00    +0.000 OA
BRANCH  48  50
ATOM     50  OXT GLY A   6      -1.493  12.982 131.120  0.00  0.00    +0.000 OA
ATOM     51  HXT GLY A   6      -2.100  12.774 131.855  0.00  0.00    +0.000 HD
ENDBRANCH  48  50
ENDBRANCH  47  48
ENDBRANCH  45  47
ENDBRANCH  42  43
BRANCH  42  52
ATOM     52  C   UNK A   5      -0.776  10.055 136.896  0.00  0.00    +0.000 C 
BRANCH  52  53
ATOM     53  C   UNK A   5      -1.961   9.601 137.735  0.00  0.00    +0.000 C 
BRANCH  53  54
ATOM     54  C   UNK A   5      -3.302  10.138 137.319  0.00  0.00    +0.000 C 
BRANCH  54  55
ATOM     55  C   UNK A   5      -4.207   8.964 136.951  0.00  0.00    +0.000 C 
BRANCH  55  56
ATOM     56  N   UNK A   5      -5.587   9.294 137.202  0.00  0.00    +0.000 N 
ATOM     57  C   UNK A   5      -6.399   8.498 137.980  0.00  0.00    +0.000 C 
ATOM     58  O   UNK A   5      -6.029   7.461 138.519  0.00  0.00    +0.000 OA
ATOM     59  H   UNK A   5      -5.942  10.194 136.895  0.00  0.00    +0.000 HD
BRANCH  57  60
ATOM     60  C   UNK A   5      -7.814   8.947 138.100  0.00  0.00    +0.000 A 
ATOM     61  C   UNK A   5      -8.101  10.049 138.922  0.00  0.00    +0.000 A 
ATOM     62  C   UNK A   5      -9.426  10.414 139.166  0.00  0.00    +0.000 A 
ATOM     63  C   UNK A   5     -10.460   9.729 138.534  0.00  0.00    +0.000 A 
ATOM     64  C   UNK A   5     -10.174   8.639 137.705  0.00  0.00    +0.000 A 
ATOM     65  C   UNK A   5      -8.856   8.211 137.496  0.00  0.00    +0.000 A 
BRANCH  65  66
ATOM     66  N   UNK A   5      -8.606   7.224 136.524  0.00  0.00    +0.000 N 
ATOM     67  H   UNK A   5      -9.140   7.286 135.665  0.00  0.00    +0.000 HD
ATOM     68  H   UNK A   5      -8.552   6.277 136.903  0.00  0.00    +0.000 HD
ENDBRANCH  65  66
ENDBRANCH  57  60
ENDBRANCH  55  56
ENDBRANCH  54  55
ENDBRANCH  53  54
ENDBRANCH  52  53
ENDBRANCH  42  52
ENDBRANCH  40  42
ENDBRANCH  37  38
ENDBRANCH  18  31
BRANCH  22  69
ATOM     69  CB  ASN A   2      -5.166   2.657 129.045  0.00  0.00    +0.000 C 
BRANCH  69  70
ATOM     70  CG  ASN A   2      -3.861   2.366 128.539  0.00  0.00    +0.000 C 
ATOM     71  ND2 ASN A   2      -4.071   1.802 127.323  0.00  0.00    +0.000 N 
ATOM     72  OD1 ASN A   2      -2.897   2.434 129.210  0.00  0.00    +0.000 OA
ATOM     73 HD21 ASN A   2      -4.361   2.464 126.644  0.00  0.00    +0.000 HD
ATOM     74 HD22 ASN A   2      -3.309   1.381 126.859  0.00  0.00    +0.000 HD
ENDBRANCH  69  70
ENDBRANCH  22  69
BRANCH   9  75
ATOM     75  CB  TYR A   1      -8.119  -0.581 130.507  0.00  0.00    +0.000 C 
BRANCH  75  76
ATOM     76  CG  TYR A   1      -8.678   0.855 130.504  0.00  0.00    +0.000 A 
ATOM     77  CD1 TYR A   1      -9.005   1.245 131.745  0.00  0.00    +0.000 A 
ATOM     78  CE1 TYR A   1      -9.811   2.329 132.021  0.00  0.00    +0.000 A 
ATOM     79  CZ  TYR A   1      -9.993   3.387 131.208  0.00  0.00    +0.000 A 
ATOM     80  CE2 TYR A   1      -9.475   3.171 129.962  0.00  0.00    +0.000 A 
ATOM     81  CD2 TYR A   1      -8.817   1.916 129.603  0.00  0.00    +0.000 A 
BRANCH  79  82
ATOM     82  OH  TYR A   1     -10.858   4.399 131.517  0.00  0.00    +0.000 OA
ATOM     83  HH  TYR A   1     -11.677   4.067 131.978  0.00  0.00    +0.000 HD
ENDBRANCH  79  82
ENDBRANCH  75  76
ENDBRANCH   9  75
BRANCH   5  84
ATOM     84  CB  TYR A   1      -7.564  -1.517 125.651  0.00  0.00    +0.000 C 
BRANCH  84  85
ATOM     85  CG  TYR A   1      -6.809  -2.204 124.597  0.00  0.00    +0.000 A 
ATOM     86  CD1 TYR A   1      -5.979  -3.323 124.801  0.00  0.00    +0.000 A 
ATOM     87  CE1 TYR A   1      -4.999  -3.615 123.894  0.00  0.00    +0.000 A 
ATOM     88  CZ  TYR A   1      -5.093  -3.011 122.656  0.00  0.00    +0.000 A 
ATOM     89  CE2 TYR A   1      -6.004  -1.976 122.408  0.00  0.00    +0.000 A 
ATOM     90  CD2 TYR A   1      -6.819  -1.516 123.406  0.00  0.00    +0.000 A 
ENDBRANCH  84  85
ENDBRANCH   5  84
BRANCH   1  91
ATOM     91  CB  TYR A   1      -5.834   3.779 125.240  0.00  0.00    +0.000 C 
BRANCH  91  93
ATOM     92  CD1 TYR A   1      -5.482   4.465 122.960  0.00  0.00    +0.000 C 
ATOM     93  CG  TYR A   1      -6.452   3.749 123.881  0.00  0.00    +0.000 C 
ATOM     94  CD2 TYR A   1      -6.682   2.329 123.404  0.00  0.00    +0.000 C 
ENDBRANCH  91  93
ENDBRANCH   1  91
TORSDOF 23
ENDMDL
MODEL 4
REMARK VINA RESULT:      -8.5      2.398      5.031
REMARK  Name = CHEMBL1765664
REMARK  25 active torsions:
REMARK  status: ('A' for Active; 'I' for Inactive)
REMARK    1  A    between atoms: CD1_1  and  CG_2
REMARK    2  A    between atoms: CG_2  and  CD2_3
REMARK    3  A    between atoms: CG_2  and  CB_4
REMARK    4  A    between atoms: CB_4  and  CA_5
REMARK    5  A    between atoms: CA_9  and  CB_10
REMARK    6  A    between atoms: CB_10  and  CG_11
REMARK    7  A    between atoms: CA_20  and  CB_21
REMARK    8  A    between atoms: CB_21  and  CG_22
REMARK    9  A    between atoms: CZ_25  and  OH_26
REMARK   10  A    between atoms: C_37  and  C_38
REMARK   11  A    between atoms: CA_44  and  C_45
REMARK   12  A    between atoms: N_47  and  C_48
REMARK   13  A    between atoms: C_48  and  C_49
REMARK   14  A    between atoms: C_48  and  C_63
REMARK   15  A    between atoms: C_49  and  C_50
REMARK   16  A    between atoms: C_50  and  C_51
REMARK   17  A    between atoms: C_51  and  C_52
REMARK   18  A    between atoms: C_52  and  N_53
REMARK   19  A    between atoms: C_54  and  C_56
REMARK   20  A    between atoms: C_61  and  N_62
REMARK   21  A    between atoms: N_65  and  CA_66
REMARK   22  A    between atoms: CA_66  and  C_67
REMARK   23  A    between atoms: C_67  and  OXT_69
REMARK   24  A    between atoms: CA_73  and  CB_74
REMARK   25  A    between atoms: CB_74  and  CG_75
REMARK                            x       y       z     vdW  Elec       q    Type
REMARK                         _______ _______ _______ _____ _____    ______ ____
ROOT
ATOM      1  CA  TYR A   1      -7.646   5.418 131.723  0.00  0.00    +0.000 C 
ATOM      2  N   TYR A   1      -6.652   6.138 132.743  0.00  0.00    +0.000 N 
ATOM      3  C   TYR A   1      -6.005   5.854 133.948  0.00  0.00    +0.000 C 
ATOM      4  O   TYR A   1      -4.874   6.322 134.139  0.00  0.00    +0.000 OA
ATOM      5  CA  TYR A   1      -6.700   4.899 135.022  0.00  0.00    +0.000 C 
ATOM      6  N   TYR A   1      -6.612   3.420 135.058  0.00  0.00    +0.000 N 
ATOM      7  C   TYR A   1      -5.562   2.494 135.266  0.00  0.00    +0.000 C 
ATOM      8  O   TYR A   1      -5.914   1.342 135.545  0.00  0.00    +0.000 OA
ATOM      9  CA  TYR A   1      -3.891   2.931 134.920  0.00  0.00    +0.000 C 
ATOM     10  N   TYR A   1      -3.336   2.117 135.952  0.00  0.00    +0.000 N 
ATOM     11  C   UNK A   0      -3.333   0.752 135.894  0.00  0.00    +0.000 C 
ATOM     12  O   UNK A   0      -3.037   0.182 136.951  0.00  0.00    +0.000 OA
ATOM     13  C   UNK A   0      -3.637  -0.091 134.600  0.00  0.00    +0.000 C 
ATOM     14  C   UNK A   0      -4.207   0.441 133.274  0.00  0.00    +0.000 C 
ATOM     15  S   UNK A   3      -4.591  -0.720 131.904  0.00  0.00    +0.000 S 
ATOM     16  S   UNK A   3      -4.148   0.486 130.240  0.00  0.00    +0.000 S 
ATOM     17  C   UNK A   3      -5.544   0.270 129.053  0.00  0.00    +0.000 C 
ATOM     18  C   UNK A   3      -5.948   1.226 127.910  0.00  0.00    +0.000 C 
ATOM     19  N   UNK A   3      -7.218   1.918 128.193  0.00  0.00    +0.000 N 
ATOM     20  C   ASN A   2      -7.492   2.771 129.193  0.00  0.00    +0.000 C 
ATOM     21  O   ASN A   2      -8.630   3.178 129.431  0.00  0.00    +0.000 OA
ATOM     22  CA  ASN A   2      -6.345   3.195 130.038  0.00  0.00    +0.000 C 
ATOM     23  N   ASN A   2      -6.459   4.595 129.739  0.00  0.00    +0.000 N 
ATOM     24  C   TYR A   1      -7.008   5.664 130.372  0.00  0.00    +0.000 C 
ATOM     25  O   TYR A   1      -6.641   6.793 130.028  0.00  0.00    +0.000 OA
ATOM     26  H   TYR A   1      -6.111   6.890 132.279  0.00  0.00    +0.000 HD
ATOM     27  H   TYR A   1      -7.477   2.928 134.782  0.00  0.00    +0.000 HD
ATOM     28  H   TYR A   1      -3.326   2.508 136.889  0.00  0.00    +0.000 HD
ATOM     29  H   UNK A   3      -8.024   1.750 127.596  0.00  0.00    +0.000 HD
ATOM     30  H   ASN A   2      -5.836   4.809 128.964  0.00  0.00    +0.000 HD
ENDROOT
BRANCH  18  31
ATOM     31  C   UNK A   3      -6.131   0.495 126.529  0.00  0.00    +0.000 C 
ATOM     32  O   UNK A   3      -6.382   1.168 125.522  0.00  0.00    +0.000 OA
ATOM     33  N   PRO A   4      -5.763  -0.841 126.439  0.00  0.00    +0.000 N 
ATOM     34  CD  PRO A   4      -6.144  -1.970 127.277  0.00  0.00    +0.000 C 
ATOM     35  CG  PRO A   4      -4.898  -2.805 127.227  0.00  0.00    +0.000 C 
ATOM     36  CB  PRO A   4      -4.575  -2.778 125.745  0.00  0.00    +0.000 C 
ATOM     37  CA  PRO A   4      -5.084  -1.407 125.245  0.00  0.00    +0.000 C 
BRANCH  37  38
ATOM     38  C   PRO A   4      -6.043  -1.749 124.088  0.00  0.00    +0.000 C 
ATOM     39  O   PRO A   4      -5.604  -2.245 123.049  0.00  0.00    +0.000 OA
ATOM     40  N   UNK A   5      -7.382  -1.390 124.237  0.00  0.00    +0.000 N 
ATOM     41  H   UNK A   5      -7.663  -0.722 124.948  0.00  0.00    +0.000 HD
BRANCH  40  42
ATOM     42  C   UNK A   5      -8.448  -1.820 123.288  0.00  0.00    +0.000 C 
BRANCH  42  43
ATOM     43  C   UNK A   5      -9.375  -0.615 122.883  0.00  0.00    +0.000 C 
ATOM     44  O   UNK A   5     -10.525  -0.800 122.477  0.00  0.00    +0.000 OA
ATOM     45  N   GLY A   6      -8.855   0.664 123.001  0.00  0.00    +0.000 N 
ATOM     46  H   GLY A   6      -7.912   0.824 123.348  0.00  0.00    +0.000 HD
BRANCH  45  47
ATOM     47  CA  GLY A   6      -9.616   1.871 122.629  0.00  0.00    +0.000 C 
BRANCH  47  48
ATOM     48  C   GLY A   6      -8.691   3.072 122.400  0.00  0.00    +0.000 C 
ATOM     49  O   GLY A   6      -8.359   3.454 121.283  0.00  0.00    +0.000 OA
BRANCH  48  50
ATOM     50  OXT GLY A   6      -8.257   3.700 123.518  0.00  0.00    +0.000 OA
ATOM     51  HXT GLY A   6      -7.720   4.507 123.407  0.00  0.00    +0.000 HD
ENDBRANCH  48  50
ENDBRANCH  47  48
ENDBRANCH  45  47
ENDBRANCH  42  43
BRANCH  42  52
ATOM     52  C   UNK A   5      -9.314  -2.929 123.924  0.00  0.00    +0.000 C 
BRANCH  52  53
ATOM     53  C   UNK A   5      -9.490  -2.737 125.423  0.00  0.00    +0.000 C 
BRANCH  53  54
ATOM     54  C   UNK A   5      -8.740  -3.701 126.300  0.00  0.00    +0.000 C 
BRANCH  54  55
ATOM     55  C   UNK A   5      -9.440  -3.776 127.656  0.00  0.00    +0.000 C 
BRANCH  55  56
ATOM     56  N   UNK A   5      -8.493  -4.096 128.693  0.00  0.00    +0.000 N 
ATOM     57  C   UNK A   5      -8.099  -3.170 129.633  0.00  0.00    +0.000 C 
ATOM     58  O   UNK A   5      -8.511  -2.016 129.674  0.00  0.00    +0.000 OA
ATOM     59  H   UNK A   5      -8.193  -5.059 128.807  0.00  0.00    +0.000 HD
BRANCH  57  60
ATOM     60  C   UNK A   5      -7.073  -3.639 130.606  0.00  0.00    +0.000 A 
ATOM     61  C   UNK A   5      -6.085  -4.532 130.161  0.00  0.00    +0.000 A 
ATOM     62  C   UNK A   5      -5.190  -5.098 131.072  0.00  0.00    +0.000 A 
ATOM     63  C   UNK A   5      -5.233  -4.717 132.411  0.00  0.00    +0.000 A 
ATOM     64  C   UNK A   5      -6.208  -3.817 132.852  0.00  0.00    +0.000 A 
ATOM     65  C   UNK A   5      -7.160  -3.286 131.970  0.00  0.00    +0.000 A 
BRANCH  65  66
ATOM     66  N   UNK A   5      -8.009  -2.258 132.422  0.00  0.00    +0.000 N 
ATOM     67  H   UNK A   5      -8.220  -1.520 131.762  0.00  0.00    +0.000 HD
ATOM     68  H   UNK A   5      -7.779  -1.916 133.357  0.00  0.00    +0.000 HD
ENDBRANCH  65  66
ENDBRANCH  57  60
ENDBRANCH  55  56
ENDBRANCH  54  55
ENDBRANCH  53  54
ENDBRANCH  52  53
ENDBRANCH  42  52
ENDBRANCH  40  42
ENDBRANCH  37  38
ENDBRANCH  18  31
BRANCH  22  69
ATOM     69  CB  ASN A   2      -6.620   2.355 131.231  0.00  0.00    +0.000 C 
BRANCH  69  70
ATOM     70  CG  ASN A   2      -7.716   1.547 131.666  0.00  0.00    +0.000 C 
ATOM     71  ND2 ASN A   2      -8.394   2.318 132.555  0.00  0.00    +0.000 N 
ATOM     72  OD1 ASN A   2      -7.790   0.400 131.414  0.00  0.00    +0.000 OA
ATOM     73 HD21 ASN A   2      -8.899   3.048 132.114  0.00  0.00    +0.000 HD
ATOM     74 HD22 ASN A   2      -9.104   1.900 133.097  0.00  0.00    +0.000 HD
ENDBRANCH  69  70
ENDBRANCH  22  69
BRANCH   9  75
ATOM     75  CB  TYR A   1      -2.720   2.893 133.651  0.00  0.00    +0.000 C 
BRANCH  75  76
ATOM     76  CG  TYR A   1      -2.342   4.058 132.716  0.00  0.00    +0.000 A 
ATOM     77  CD1 TYR A   1      -3.183   4.129 131.674  0.00  0.00    +0.000 A 
ATOM     78  CE1 TYR A   1      -2.921   4.844 130.524  0.00  0.00    +0.000 A 
ATOM     79  CZ  TYR A   1      -2.089   5.899 130.440  0.00  0.00    +0.000 A 
ATOM     80  CE2 TYR A   1      -1.339   6.053 131.572  0.00  0.00    +0.000 A 
ATOM     81  CD2 TYR A   1      -1.459   5.144 132.711  0.00  0.00    +0.000 A 
BRANCH  79  82
ATOM     82  OH  TYR A   1      -1.827   6.523 129.253  0.00  0.00    +0.000 OA
ATOM     83  HH  TYR A   1      -1.495   7.454 129.382  0.00  0.00    +0.000 HD
ENDBRANCH  79  82
ENDBRANCH  75  76
ENDBRANCH   9  75
BRANCH   5  84
ATOM     84  CB  TYR A   1      -6.197   5.170 136.388  0.00  0.00    +0.000 C 
BRANCH  84  85
ATOM     85  CG  TYR A   1      -6.814   6.339 137.025  0.00  0.00    +0.000 A 
ATOM     86  CD1 TYR A   1      -8.201   6.557 137.134  0.00  0.00    +0.000 A 
ATOM     87  CE1 TYR A   1      -8.675   7.824 137.326  0.00  0.00    +0.000 A 
ATOM     88  CZ  TYR A   1      -7.767   8.775 137.748  0.00  0.00    +0.000 A 
ATOM     89  CE2 TYR A   1      -6.389   8.524 137.758  0.00  0.00    +0.000 A 
ATOM     90  CD2 TYR A   1      -5.900   7.322 137.324  0.00  0.00    +0.000 A 
ENDBRANCH  84  85
ENDBRANCH   5  84
BRANCH   1  91
ATOM     91  CB  TYR A   1      -9.165   5.441 131.663  0.00  0.00    +0.000 C 
BRANCH  91  93
ATOM     92  CD1 TYR A   1     -10.962   5.232 130.076  0.00  0.00    +0.000 C 
ATOM     93  CG  TYR A   1      -9.637   5.924 130.332  0.00  0.00    +0.000 C 
ATOM     94  CD2 TYR A   1      -9.816   7.429 130.315  0.00  0.00    +0.000 C 
ENDBRANCH  91  93
ENDBRANCH   1  91
TORSDOF 23
ENDMDL
MODEL 5
REMARK VINA RESULT:      -8.5      3.922     10.263
REMARK  Name = CHEMBL1765664
REMARK  25 active torsions:
REMARK  status: ('A' for Active; 'I' for Inactive)
REMARK    1  A    between atoms: CD1_1  and  CG_2
REMARK    2  A    between atoms: CG_2  and  CD2_3
REMARK    3  A    between atoms: CG_2  and  CB_4
REMARK    4  A    between atoms: CB_4  and  CA_5
REMARK    5  A    between atoms: CA_9  and  CB_10
REMARK    6  A    between atoms: CB_10  and  CG_11
REMARK    7  A    between atoms: CA_20  and  CB_21
REMARK    8  A    between atoms: CB_21  and  CG_22
REMARK    9  A    between atoms: CZ_25  and  OH_26
REMARK   10  A    between atoms: C_37  and  C_38
REMARK   11  A    between atoms: CA_44  and  C_45
REMARK   12  A    between atoms: N_47  and  C_48
REMARK   13  A    between atoms: C_48  and  C_49
REMARK   14  A    between atoms: C_48  and  C_63
REMARK   15  A    between atoms: C_49  and  C_50
REMARK   16  A    between atoms: C_50  and  C_51
REMARK   17  A    between atoms: C_51  and  C_52
REMARK   18  A    between atoms: C_52  and  N_53
REMARK   19  A    between atoms: C_54  and  C_56
REMARK   20  A    between atoms: C_61  and  N_62
REMARK   21  A    between atoms: N_65  and  CA_66
REMARK   22  A    between atoms: CA_66  and  C_67
REMARK   23  A    between atoms: C_67  and  OXT_69
REMARK   24  A    between atoms: CA_73  and  CB_74
REMARK   25  A    between atoms: CB_74  and  CG_75
REMARK                            x       y       z     vdW  Elec       q    Type
REMARK                         _______ _______ _______ _____ _____    ______ ____
ROOT
ATOM      1  CA  TYR A   1      -6.574  -0.482 127.306  0.00  0.00    +0.000 C 
ATOM      2  N   TYR A   1      -5.545   0.474 126.547  0.00  0.00    +0.000 N 
ATOM      3  C   TYR A   1      -5.310   1.842 126.391  0.00  0.00    +0.000 C 
ATOM      4  O   TYR A   1      -4.139   2.235 126.290  0.00  0.00    +0.000 OA
ATOM      5  CA  TYR A   1      -6.532   2.869 126.399  0.00  0.00    +0.000 C 
ATOM      6  N   TYR A   1      -7.138   3.491 127.600  0.00  0.00    +0.000 N 
ATOM      7  C   TYR A   1      -6.680   4.397 128.586  0.00  0.00    +0.000 C 
ATOM      8  O   TYR A   1      -7.561   4.944 129.260  0.00  0.00    +0.000 OA
ATOM      9  CA  TYR A   1      -4.962   4.538 128.954  0.00  0.00    +0.000 C 
ATOM     10  N   TYR A   1      -5.022   5.926 129.279  0.00  0.00    +0.000 N 
ATOM     11  C   UNK A   0      -5.634   6.394 130.407  0.00  0.00    +0.000 C 
ATOM     12  O   UNK A   0      -5.811   7.617 130.439  0.00  0.00    +0.000 OA
ATOM     13  C   UNK A   0      -6.071   5.500 131.626  0.00  0.00    +0.000 C 
ATOM     14  C   UNK A   0      -6.105   3.963 131.669  0.00  0.00    +0.000 C 
ATOM     15  S   UNK A   3      -6.745   3.096 133.156  0.00  0.00    +0.000 S 
ATOM     16  S   UNK A   3      -5.531   1.380 133.155  0.00  0.00    +0.000 S 
ATOM     17  C   UNK A   3      -6.652  -0.054 133.459  0.00  0.00    +0.000 C 
ATOM     18  C   UNK A   3      -6.378  -1.535 133.124  0.00  0.00    +0.000 C 
ATOM     19  N   UNK A   3      -7.218  -2.013 132.011  0.00  0.00    +0.000 N 
ATOM     20  C   ASN A   2      -7.232  -1.582 130.739  0.00  0.00    +0.000 C 
ATOM     21  O   ASN A   2      -8.079  -1.942 129.921  0.00  0.00    +0.000 OA
ATOM     22  CA  ASN A   2      -6.176  -0.608 130.355  0.00  0.00    +0.000 C 
ATOM     23  N   ASN A   2      -5.585  -1.434 129.339  0.00  0.00    +0.000 N 
ATOM     24  C   TYR A   1      -5.680  -1.497 127.986  0.00  0.00    +0.000 C 
ATOM     25  O   TYR A   1      -4.785  -2.085 127.369  0.00  0.00    +0.000 OA
ATOM     26  H   TYR A   1      -4.652  -0.011 126.349  0.00  0.00    +0.000 HD
ATOM     27  H   TYR A   1      -8.073   3.130 127.849  0.00  0.00    +0.000 HD
ATOM     28  H   TYR A   1      -4.988   6.581 128.503  0.00  0.00    +0.000 HD
ATOM     29  H   UNK A   3      -7.900  -2.749 132.177  0.00  0.00    +0.000 HD
ATOM     30  H   ASN A   2      -4.815  -1.952 129.756  0.00  0.00    +0.000 HD
ENDROOT
BRANCH  18  31
ATOM     31  C   UNK A   3      -6.644  -2.502 134.336  0.00  0.00    +0.000 C 
ATOM     32  O   UNK A   3      -7.642  -2.318 135.043  0.00  0.00    +0.000 OA
ATOM     33  N   PRO A   4      -5.896  -3.668 134.423  0.00  0.00    +0.000 N 
ATOM     34  CD  PRO A   4      -4.452  -3.854 134.377  0.00  0.00    +0.000 C 
ATOM     35  CG  PRO A   4      -4.349  -5.191 133.704  0.00  0.00    +0.000 C 
ATOM     36  CB  PRO A   4      -5.393  -5.990 134.460  0.00  0.00    +0.000 C 
ATOM     37  CA  PRO A   4      -6.477  -4.964 134.861  0.00  0.00    +0.000 C 
BRANCH  37  38
ATOM     38  C   PRO A   4      -6.597  -5.106 136.391  0.00  0.00    +0.000 C 
ATOM     39  O   PRO A   4      -5.857  -5.881 136.998  0.00  0.00    +0.000 OA
ATOM     40  N   UNK A   5      -7.623  -4.403 137.022  0.00  0.00    +0.000 N 
ATOM     41  H   UNK A   5      -8.397  -4.022 136.486  0.00  0.00    +0.000 HD
BRANCH  40  42
ATOM     42  C   UNK A   5      -7.743  -4.299 138.505  0.00  0.00    +0.000 C 
BRANCH  42  43
ATOM     43  C   UNK A   5      -9.209  -3.925 138.936  0.00  0.00    +0.000 C 
ATOM     44  O   UNK A   5      -9.471  -3.597 140.095  0.00  0.00    +0.000 OA
ATOM     45  N   GLY A   6     -10.197  -3.974 137.966  0.00  0.00    +0.000 N 
ATOM     46  H   GLY A   6      -9.985  -4.231 137.004  0.00  0.00    +0.000 HD
BRANCH  45  47
ATOM     47  CA  GLY A   6     -11.611  -3.671 138.252  0.00  0.00    +0.000 C 
BRANCH  47  48
ATOM     48  C   GLY A   6     -11.920  -2.182 138.055  0.00  0.00    +0.000 C 
ATOM     49  O   GLY A   6     -12.972  -1.778 137.573  0.00  0.00    +0.000 OA
BRANCH  48  50
ATOM     50  OXT GLY A   6     -10.950  -1.324 138.451  0.00  0.00    +0.000 OA
ATOM     51  HXT GLY A   6     -10.038  -1.665 138.511  0.00  0.00    +0.000 HD
ENDBRANCH  48  50
ENDBRANCH  47  48
ENDBRANCH  45  47
ENDBRANCH  42  43
BRANCH  42  52
ATOM     52  C   UNK A   5      -6.770  -3.229 139.046  0.00  0.00    +0.000 C 
BRANCH  52  53
ATOM     53  C   UNK A   5      -7.047  -1.849 138.466  0.00  0.00    +0.000 C 
BRANCH  53  54
ATOM     54  C   UNK A   5      -5.905  -0.873 138.524  0.00  0.00    +0.000 C 
BRANCH  54  55
ATOM     55  C   UNK A   5      -5.298  -0.745 137.128  0.00  0.00    +0.000 C 
BRANCH  55  56
ATOM     56  N   UNK A   5      -4.016  -1.401 137.075  0.00  0.00    +0.000 N 
ATOM     57  C   UNK A   5      -3.078  -1.095 136.115  0.00  0.00    +0.000 C 
ATOM     58  O   UNK A   5      -3.242  -0.253 135.239  0.00  0.00    +0.000 OA
ATOM     59  H   UNK A   5      -3.749  -2.024 137.831  0.00  0.00    +0.000 HD
BRANCH  57  60
ATOM     60  C   UNK A   5      -1.825  -1.899 136.161  0.00  0.00    +0.000 A 
ATOM     61  C   UNK A   5      -1.382  -2.380 137.404  0.00  0.00    +0.000 A 
ATOM     62  C   UNK A   5      -0.145  -3.020 137.507  0.00  0.00    +0.000 A 
ATOM     63  C   UNK A   5       0.615  -3.245 136.362  0.00  0.00    +0.000 A 
ATOM     64  C   UNK A   5       0.168  -2.778 135.122  0.00  0.00    +0.000 A 
ATOM     65  C   UNK A   5      -1.039  -2.074 135.002  0.00  0.00    +0.000 A 
BRANCH  65  66
ATOM     66  N   UNK A   5      -1.529  -1.776 133.716  0.00  0.00    +0.000 N 
ATOM     67  H   UNK A   5      -1.000  -1.105 133.173  0.00  0.00    +0.000 HD
ATOM     68  H   UNK A   5      -2.539  -1.621 133.686  0.00  0.00    +0.000 HD
ENDBRANCH  65  66
ENDBRANCH  57  60
ENDBRANCH  55  56
ENDBRANCH  54  55
ENDBRANCH  53  54
ENDBRANCH  52  53
ENDBRANCH  42  52
ENDBRANCH  40  42
ENDBRANCH  37  38
ENDBRANCH  18  31
BRANCH  22  69
ATOM     69  CB  ASN A   2      -6.998   0.628 130.350  0.00  0.00    +0.000 C 
BRANCH  69  70
ATOM     70  CG  ASN A   2      -8.395   0.911 130.464  0.00  0.00    +0.000 C 
ATOM     71  ND2 ASN A   2      -8.724   1.545 129.311  0.00  0.00    +0.000 N 
ATOM     72  OD1 ASN A   2      -8.981   0.781 131.476  0.00  0.00    +0.000 OA
ATOM     73 HD21 ASN A   2      -8.750   0.928 128.534  0.00  0.00    +0.000 HD
ATOM     74 HD22 ASN A   2      -9.611   1.970 129.241  0.00  0.00    +0.000 HD
ENDBRANCH  69  70
ENDBRANCH  22  69
BRANCH   9  75
ATOM     75  CB  TYR A   1      -3.747   3.892 129.997  0.00  0.00    +0.000 C 
BRANCH  75  76
ATOM     76  CG  TYR A   1      -2.770   4.696 130.876  0.00  0.00    +0.000 A 
ATOM     77  CD1 TYR A   1      -2.587   4.097 132.062  0.00  0.00    +0.000 A 
ATOM     78  CE1 TYR A   1      -2.038   4.722 133.162  0.00  0.00    +0.000 A 
ATOM     79  CZ  TYR A   1      -1.208   5.781 133.116  0.00  0.00    +0.000 A 
ATOM     80  CE2 TYR A   1      -1.144   6.331 131.866  0.00  0.00    +0.000 A 
ATOM     81  CD2 TYR A   1      -1.916   5.797 130.745  0.00  0.00    +0.000 A 
BRANCH  79  82
ATOM     82  OH  TYR A   1      -0.749   6.393 134.249  0.00  0.00    +0.000 OA
ATOM     83  HH  TYR A   1      -0.477   7.337 134.083  0.00  0.00    +0.000 HD
ENDBRANCH  79  82
ENDBRANCH  75  76
ENDBRANCH   9  75
BRANCH   5  84
ATOM     84  CB  TYR A   1      -6.194   4.112 125.669  0.00  0.00    +0.000 C 
BRANCH  84  85
ATOM     85  CG  TYR A   1      -6.424   4.030 124.223  0.00  0.00    +0.000 A 
ATOM     86  CD1 TYR A   1      -7.525   3.392 123.618  0.00  0.00    +0.000 A 
ATOM     87  CE1 TYR A   1      -7.440   2.982 122.317  0.00  0.00    +0.000 A 
ATOM     88  CZ  TYR A   1      -6.419   3.517 121.558  0.00  0.00    +0.000 A 
ATOM     89  CE2 TYR A   1      -5.381   4.259 122.137  0.00  0.00    +0.000 A 
ATOM     90  CD2 TYR A   1      -5.341   4.457 123.490  0.00  0.00    +0.000 A 
ENDBRANCH  84  85
ENDBRANCH   5  84
BRANCH   1  91
ATOM     91  CB  TYR A   1      -7.880  -1.088 126.820  0.00  0.00    +0.000 C 
BRANCH  91  93
ATOM     92  CD1 TYR A   1      -8.881  -1.511 124.672  0.00  0.00    +0.000 C 
ATOM     93  CG  TYR A   1      -8.349  -0.413 125.574  0.00  0.00    +0.000 C 
ATOM     94  CD2 TYR A   1      -9.435   0.604 125.864  0.00  0.00    +0.000 C 
ENDBRANCH  91  93
ENDBRANCH   1  91
TORSDOF 23
ENDMDL
MODEL 6
REMARK VINA RESULT:      -8.5      3.491     11.844
REMARK  Name = CHEMBL1765664
REMARK  25 active torsions:
REMARK  status: ('A' for Active; 'I' for Inactive)
REMARK    1  A    between atoms: CD1_1  and  CG_2
REMARK    2  A    between atoms: CG_2  and  CD2_3
REMARK    3  A    between atoms: CG_2  and  CB_4
REMARK    4  A    between atoms: CB_4  and  CA_5
REMARK    5  A    between atoms: CA_9  and  CB_10
REMARK    6  A    between atoms: CB_10  and  CG_11
REMARK    7  A    between atoms: CA_20  and  CB_21
REMARK    8  A    between atoms: CB_21  and  CG_22
REMARK    9  A    between atoms: CZ_25  and  OH_26
REMARK   10  A    between atoms: C_37  and  C_38
REMARK   11  A    between atoms: CA_44  and  C_45
REMARK   12  A    between atoms: N_47  and  C_48
REMARK   13  A    between atoms: C_48  and  C_49
REMARK   14  A    between atoms: C_48  and  C_63
REMARK   15  A    between atoms: C_49  and  C_50
REMARK   16  A    between atoms: C_50  and  C_51
REMARK   17  A    between atoms: C_51  and  C_52
REMARK   18  A    between atoms: C_52  and  N_53
REMARK   19  A    between atoms: C_54  and  C_56
REMARK   20  A    between atoms: C_61  and  N_62
REMARK   21  A    between atoms: N_65  and  CA_66
REMARK   22  A    between atoms: CA_66  and  C_67
REMARK   23  A    between atoms: C_67  and  OXT_69
REMARK   24  A    between atoms: CA_73  and  CB_74
REMARK   25  A    between atoms: CB_74  and  CG_75
REMARK                            x       y       z     vdW  Elec       q    Type
REMARK                         _______ _______ _______ _____ _____    ______ ____
ROOT
ATOM      1  CA  TYR A   1      -6.981   2.421 129.331  0.00  0.00    +0.000 C 
ATOM      2  N   TYR A   1      -7.579   1.032 128.822  0.00  0.00    +0.000 N 
ATOM      3  C   TYR A   1      -7.158  -0.290 128.656  0.00  0.00    +0.000 C 
ATOM      4  O   TYR A   1      -7.975  -1.201 128.850  0.00  0.00    +0.000 OA
ATOM      5  CA  TYR A   1      -5.639  -0.603 128.280  0.00  0.00    +0.000 C 
ATOM      6  N   TYR A   1      -4.519  -0.760 129.239  0.00  0.00    +0.000 N 
ATOM      7  C   TYR A   1      -4.210  -1.691 130.259  0.00  0.00    +0.000 C 
ATOM      8  O   TYR A   1      -3.034  -1.694 130.641  0.00  0.00    +0.000 OA
ATOM      9  CA  TYR A   1      -5.484  -2.606 131.063  0.00  0.00    +0.000 C 
ATOM     10  N   TYR A   1      -4.681  -3.765 131.281  0.00  0.00    +0.000 N 
ATOM     11  C   UNK A   0      -3.650  -3.790 132.176  0.00  0.00    +0.000 C 
ATOM     12  O   UNK A   0      -2.904  -4.773 132.090  0.00  0.00    +0.000 OA
ATOM     13  C   UNK A   0      -3.397  -2.701 133.284  0.00  0.00    +0.000 C 
ATOM     14  C   UNK A   0      -4.098  -1.336 133.403  0.00  0.00    +0.000 C 
ATOM     15  S   UNK A   3      -3.592  -0.152 134.711  0.00  0.00    +0.000 S 
ATOM     16  S   UNK A   3      -5.435   0.768 135.131  0.00  0.00    +0.000 S 
ATOM     17  C   UNK A   3      -5.108   2.583 135.206  0.00  0.00    +0.000 C 
ATOM     18  C   UNK A   3      -6.138   3.720 135.041  0.00  0.00    +0.000 C 
ATOM     19  N   UNK A   3      -5.955   4.450 133.773  0.00  0.00    +0.000 N 
ATOM     20  C   ASN A   2      -6.066   3.977 132.521  0.00  0.00    +0.000 C 
ATOM     21  O   ASN A   2      -5.744   4.630 131.529  0.00  0.00    +0.000 OA
ATOM     22  CA  ASN A   2      -6.581   2.589 132.378  0.00  0.00    +0.000 C 
ATOM     23  N   ASN A   2      -7.738   2.946 131.605  0.00  0.00    +0.000 N 
ATOM     24  C   TYR A   1      -8.041   2.937 130.281  0.00  0.00    +0.000 C 
ATOM     25  O   TYR A   1      -9.234   2.974 129.960  0.00  0.00    +0.000 OA
ATOM     26  H   TYR A   1      -8.612   1.013 128.897  0.00  0.00    +0.000 HD
ATOM     27  H   TYR A   1      -3.846   0.023 129.250  0.00  0.00    +0.000 HD
ATOM     28  H   TYR A   1      -4.596  -4.416 130.506  0.00  0.00    +0.000 HD
ATOM     29  H   UNK A   3      -5.695   5.433 133.793  0.00  0.00    +0.000 HD
ATOM     30  H   ASN A   2      -8.524   3.065 132.241  0.00  0.00    +0.000 HD
ENDROOT
BRANCH  18  31
ATOM     31  C   UNK A   3      -6.065   4.792 136.191  0.00  0.00    +0.000 C 
ATOM     32  O   UNK A   3      -6.925   5.680 136.240  0.00  0.00    +0.000 OA
ATOM     33  N   PRO A   4      -5.194   4.563 137.248  0.00  0.00    +0.000 N 
ATOM     34  CD  PRO A   4      -3.774   4.241 137.230  0.00  0.00    +0.000 C 
ATOM     35  CG  PRO A   4      -3.659   3.357 138.438  0.00  0.00    +0.000 C 
ATOM     36  CB  PRO A   4      -4.450   4.145 139.465  0.00  0.00    +0.000 C 
ATOM     37  CA  PRO A   4      -5.541   4.883 138.657  0.00  0.00    +0.000 C 
BRANCH  37  38
ATOM     38  C   PRO A   4      -5.353   6.370 139.020  0.00  0.00    +0.000 C 
ATOM     39  O   PRO A   4      -4.758   6.680 140.053  0.00  0.00    +0.000 OA
ATOM     40  N   UNK A   5      -5.958   7.314 138.193  0.00  0.00    +0.000 N 
ATOM     41  H   UNK A   5      -6.685   7.040 137.538  0.00  0.00    +0.000 HD
BRANCH  40  42
ATOM     42  C   UNK A   5      -5.708   8.779 138.316  0.00  0.00    +0.000 C 
BRANCH  42  43
ATOM     43  C   UNK A   5      -7.056   9.580 138.452  0.00  0.00    +0.000 C 
ATOM     44  O   UNK A   5      -7.062  10.808 138.567  0.00  0.00    +0.000 OA
ATOM     45  N   GLY A   6      -8.238   8.858 138.435  0.00  0.00    +0.000 N 
ATOM     46  H   GLY A   6      -8.241   7.846 138.327  0.00  0.00    +0.000 HD
BRANCH  45  47
ATOM     47  CA  GLY A   6      -9.561   9.491 138.580  0.00  0.00    +0.000 C 
BRANCH  47  48
ATOM     48  C   GLY A   6     -10.563   8.948 137.555  0.00  0.00    +0.000 C 
ATOM     49  O   GLY A   6     -11.745   8.757 137.814  0.00  0.00    +0.000 OA
BRANCH  48  50
ATOM     50  OXT GLY A   6     -10.059   8.687 136.325  0.00  0.00    +0.000 OA
ATOM     51  HXT GLY A   6      -9.380   7.990 136.249  0.00  0.00    +0.000 HD
ENDBRANCH  48  50
ENDBRANCH  47  48
ENDBRANCH  45  47
ENDBRANCH  42  43
BRANCH  42  52
ATOM     52  C   UNK A   5      -4.938   9.295 137.080  0.00  0.00    +0.000 C 
BRANCH  52  53
ATOM     53  C   UNK A   5      -3.761   8.402 136.717  0.00  0.00    +0.000 C 
BRANCH  53  54
ATOM     54  C   UNK A   5      -3.890   7.638 135.429  0.00  0.00    +0.000 C 
BRANCH  54  55
ATOM     55  C   UNK A   5      -2.723   8.012 134.518  0.00  0.00    +0.000 C 
BRANCH  55  56
ATOM     56  N   UNK A   5      -2.853   7.360 133.240  0.00  0.00    +0.000 N 
ATOM     57  C   UNK A   5      -2.834   8.062 132.056  0.00  0.00    +0.000 C 
ATOM     58  O   UNK A   5      -2.705   9.279 131.982  0.00  0.00    +0.000 OA
ATOM     59  H   UNK A   5      -2.844   6.345 133.202  0.00  0.00    +0.000 HD
BRANCH  57  60
ATOM     60  C   UNK A   5      -3.035   7.249 130.824  0.00  0.00    +0.000 A 
ATOM     61  C   UNK A   5      -2.508   5.948 130.785  0.00  0.00    +0.000 A 
ATOM     62  C   UNK A   5      -2.558   5.207 129.602  0.00  0.00    +0.000 A 
ATOM     63  C   UNK A   5      -3.197   5.733 128.483  0.00  0.00    +0.000 A 
ATOM     64  C   UNK A   5      -3.733   7.024 128.525  0.00  0.00    +0.000 A 
ATOM     65  C   UNK A   5      -3.638   7.814 129.679  0.00  0.00    +0.000 A 
BRANCH  65  66
ATOM     66  N   UNK A   5      -4.339   9.033 129.730  0.00  0.00    +0.000 N 
ATOM     67  H   UNK A   5      -4.669   9.330 130.641  0.00  0.00    +0.000 HD
ATOM     68  H   UNK A   5      -5.036   9.139 128.990  0.00  0.00    +0.000 HD
ENDBRANCH  65  66
ENDBRANCH  57  60
ENDBRANCH  55  56
ENDBRANCH  54  55
ENDBRANCH  53  54
ENDBRANCH  52  53
ENDBRANCH  42  52
ENDBRANCH  40  42
ENDBRANCH  37  38
ENDBRANCH  18  31
BRANCH  22  69
ATOM     69  CB  ASN A   2      -5.299   1.900 132.084  0.00  0.00    +0.000 C 
BRANCH  69  70
ATOM     70  CG  ASN A   2      -4.093   2.260 131.407  0.00  0.00    +0.000 C 
ATOM     71  ND2 ASN A   2      -3.322   2.860 132.348  0.00  0.00    +0.000 N 
ATOM     72  OD1 ASN A   2      -3.990   2.203 130.236  0.00  0.00    +0.000 OA
ATOM     73 HD21 ASN A   2      -2.951   2.213 133.002  0.00  0.00    +0.000 HD
ATOM     74 HD22 ASN A   2      -2.502   3.327 132.061  0.00  0.00    +0.000 HD
ENDBRANCH  69  70
ENDBRANCH  22  69
BRANCH   9  75
ATOM     75  CB  TYR A   1      -6.541  -2.537 132.427  0.00  0.00    +0.000 C 
BRANCH  75  76
ATOM     76  CG  TYR A   1      -6.822  -3.675 133.428  0.00  0.00    +0.000 A 
ATOM     77  CD1 TYR A   1      -7.993  -3.484 134.053  0.00  0.00    +0.000 A 
ATOM     78  CE1 TYR A   1      -8.362  -4.141 135.209  0.00  0.00    +0.000 A 
ATOM     79  CZ  TYR A   1      -7.884  -5.334 135.607  0.00  0.00    +0.000 A 
ATOM     80  CE2 TYR A   1      -6.810  -5.733 134.862  0.00  0.00    +0.000 A 
ATOM     81  CD2 TYR A   1      -6.276  -4.915 133.774  0.00  0.00    +0.000 A 
BRANCH  79  82
ATOM     82  OH  TYR A   1      -8.246  -5.899 136.798  0.00  0.00    +0.000 OA
ATOM     83  HH  TYR A   1      -7.685  -6.691 137.025  0.00  0.00    +0.000 HD
ENDBRANCH  79  82
ENDBRANCH  75  76
ENDBRANCH   9  75
BRANCH   5  84
ATOM     84  CB  TYR A   1      -5.513  -1.911 127.598  0.00  0.00    +0.000 C 
BRANCH  84  85
ATOM     85  CG  TYR A   1      -5.569  -1.822 126.135  0.00  0.00    +0.000 A 
ATOM     86  CD1 TYR A   1      -5.930  -0.668 125.412  0.00  0.00    +0.000 A 
ATOM     87  CE1 TYR A   1      -6.378  -0.786 124.126  0.00  0.00    +0.000 A 
ATOM     88  CZ  TYR A   1      -6.130  -1.983 123.484  0.00  0.00    +0.000 A 
ATOM     89  CE2 TYR A   1      -5.653  -3.104 124.175  0.00  0.00    +0.000 A 
ATOM     90  CD2 TYR A   1      -5.440  -3.049 125.525  0.00  0.00    +0.000 A 
ENDBRANCH  84  85
ENDBRANCH   5  84
BRANCH   1  91
ATOM     91  CB  TYR A   1      -6.306   3.537 128.549  0.00  0.00    +0.000 C 
BRANCH  91  93
ATOM     92  CD1 TYR A   1      -6.385   4.375 126.295  0.00  0.00    +0.000 C 
ATOM     93  CG  TYR A   1      -6.099   3.139 127.126  0.00  0.00    +0.000 C 
ATOM     94  CD2 TYR A   1      -4.684   2.654 126.881  0.00  0.00    +0.000 C 
ENDBRANCH  91  93
ENDBRANCH   1  91
TORSDOF 23
ENDMDL
MODEL 7
REMARK VINA RESULT:      -8.4      3.888     12.362
REMARK  Name = CHEMBL1765664
REMARK  25 active torsions:
REMARK  status: ('A' for Active; 'I' for Inactive)
REMARK    1  A    between atoms: CD1_1  and  CG_2
REMARK    2  A    between atoms: CG_2  and  CD2_3
REMARK    3  A    between atoms: CG_2  and  CB_4
REMARK    4  A    between atoms: CB_4  and  CA_5
REMARK    5  A    between atoms: CA_9  and  CB_10
REMARK    6  A    between atoms: CB_10  and  CG_11
REMARK    7  A    between atoms: CA_20  and  CB_21
REMARK    8  A    between atoms: CB_21  and  CG_22
REMARK    9  A    between atoms: CZ_25  and  OH_26
REMARK   10  A    between atoms: C_37  and  C_38
REMARK   11  A    between atoms: CA_44  and  C_45
REMARK   12  A    between atoms: N_47  and  C_48
REMARK   13  A    between atoms: C_48  and  C_49
REMARK   14  A    between atoms: C_48  and  C_63
REMARK   15  A    between atoms: C_49  and  C_50
REMARK   16  A    between atoms: C_50  and  C_51
REMARK   17  A    between atoms: C_51  and  C_52
REMARK   18  A    between atoms: C_52  and  N_53
REMARK   19  A    between atoms: C_54  and  C_56
REMARK   20  A    between atoms: C_61  and  N_62
REMARK   21  A    between atoms: N_65  and  CA_66
REMARK   22  A    between atoms: CA_66  and  C_67
REMARK   23  A    between atoms: C_67  and  OXT_69
REMARK   24  A    between atoms: CA_73  and  CB_74
REMARK   25  A    between atoms: CB_74  and  CG_75
REMARK                            x       y       z     vdW  Elec       q    Type
REMARK                         _______ _______ _______ _____ _____    ______ ____
ROOT
ATOM      1  CA  TYR A   1      -7.040   3.071 128.259  0.00  0.00    +0.000 C 
ATOM      2  N   TYR A   1      -7.873   1.715 128.156  0.00  0.00    +0.000 N 
ATOM      3  C   TYR A   1      -7.638   0.338 128.198  0.00  0.00    +0.000 C 
ATOM      4  O   TYR A   1      -8.496  -0.395 128.710  0.00  0.00    +0.000 OA
ATOM      5  CA  TYR A   1      -6.264  -0.256 127.643  0.00  0.00    +0.000 C 
ATOM      6  N   TYR A   1      -5.003  -0.395 128.410  0.00  0.00    +0.000 N 
ATOM      7  C   TYR A   1      -4.605  -1.159 129.533  0.00  0.00    +0.000 C 
ATOM      8  O   TYR A   1      -3.385  -1.263 129.703  0.00  0.00    +0.000 OA
ATOM      9  CA  TYR A   1      -5.790  -1.717 130.711  0.00  0.00    +0.000 C 
ATOM     10  N   TYR A   1      -5.091  -2.921 131.025  0.00  0.00    +0.000 N 
ATOM     11  C   UNK A   0      -3.914  -2.932 131.718  0.00  0.00    +0.000 C 
ATOM     12  O   UNK A   0      -3.311  -4.011 131.712  0.00  0.00    +0.000 OA
ATOM     13  C   UNK A   0      -3.335  -1.707 132.519  0.00  0.00    +0.000 C 
ATOM     14  C   UNK A   0      -3.846  -0.257 132.470  0.00  0.00    +0.000 C 
ATOM     15  S   UNK A   3      -2.971   1.061 133.402  0.00  0.00    +0.000 S 
ATOM     16  S   UNK A   3      -4.586   2.299 133.929  0.00  0.00    +0.000 S 
ATOM     17  C   UNK A   3      -4.055   4.030 133.572  0.00  0.00    +0.000 C 
ATOM     18  C   UNK A   3      -4.968   5.255 133.352  0.00  0.00    +0.000 C 
ATOM     19  N   UNK A   3      -4.956   5.707 131.949  0.00  0.00    +0.000 N 
ATOM     20  C   ASN A   2      -5.359   5.034 130.859  0.00  0.00    +0.000 C 
ATOM     21  O   ASN A   2      -5.167   5.442 129.713  0.00  0.00    +0.000 OA
ATOM     22  CA  ASN A   2      -6.040   3.733 131.094  0.00  0.00    +0.000 C 
ATOM     23  N   ASN A   2      -7.279   4.107 130.471  0.00  0.00    +0.000 N 
ATOM     24  C   TYR A   1      -7.832   3.900 129.248  0.00  0.00    +0.000 C 
ATOM     25  O   TYR A   1      -9.054   4.050 129.132  0.00  0.00    +0.000 OA
ATOM     26  H   TYR A   1      -8.867   1.860 128.407  0.00  0.00    +0.000 HD
ATOM     27  H   TYR A   1      -4.259   0.271 128.145  0.00  0.00    +0.000 HD
ATOM     28  H   TYR A   1      -5.229  -3.709 130.398  0.00  0.00    +0.000 HD
ATOM     29  H   UNK A   3      -4.592   6.629 131.722  0.00  0.00    +0.000 HD
ATOM     30  H   ASN A   2      -7.909   4.452 131.192  0.00  0.00    +0.000 HD
ENDROOT
BRANCH  18  31
ATOM     31  C   UNK A   3      -4.557   6.497 134.228  0.00  0.00    +0.000 C 
ATOM     32  O   UNK A   3      -5.292   6.843 135.160  0.00  0.00    +0.000 OA
ATOM     33  N   PRO A   4      -3.273   7.005 134.085  0.00  0.00    +0.000 N 
ATOM     34  CD  PRO A   4      -2.559   7.407 132.881  0.00  0.00    +0.000 C 
ATOM     35  CG  PRO A   4      -1.148   7.048 133.243  0.00  0.00    +0.000 C 
ATOM     36  CB  PRO A   4      -1.045   7.607 134.649  0.00  0.00    +0.000 C 
ATOM     37  CA  PRO A   4      -2.469   7.488 135.238  0.00  0.00    +0.000 C 
BRANCH  37  38
ATOM     38  C   PRO A   4      -2.823   8.919 135.687  0.00  0.00    +0.000 C 
ATOM     39  O   PRO A   4      -3.728   9.102 136.502  0.00  0.00    +0.000 OA
ATOM     40  N   UNK A   5      -2.151   9.971 135.067  0.00  0.00    +0.000 N 
ATOM     41  H   UNK A   5      -1.643   9.822 134.200  0.00  0.00    +0.000 HD
BRANCH  40  42
ATOM     42  C   UNK A   5      -2.257  11.385 135.527  0.00  0.00    +0.000 C 
BRANCH  42  43
ATOM     43  C   UNK A   5      -1.994  12.393 134.347  0.00  0.00    +0.000 C 
ATOM     44  O   UNK A   5      -2.298  13.584 134.443  0.00  0.00    +0.000 OA
ATOM     45  N   GLY A   6      -1.406  11.895 133.196  0.00  0.00    +0.000 N 
ATOM     46  H   GLY A   6      -1.141  10.916 133.115  0.00  0.00    +0.000 HD
BRANCH  45  47
ATOM     47  CA  GLY A   6      -1.133  12.733 132.014  0.00  0.00    +0.000 C 
BRANCH  47  48
ATOM     48  C   GLY A   6       0.371  12.942 131.805  0.00  0.00    +0.000 C 
ATOM     49  O   GLY A   6       1.157  13.098 132.732  0.00  0.00    +0.000 OA
BRANCH  48  50
ATOM     50  OXT GLY A   6       0.789  12.945 130.517  0.00  0.00    +0.000 OA
ATOM     51  HXT GLY A   6       0.314  12.375 129.883  0.00  0.00    +0.000 HD
ENDBRANCH  48  50
ENDBRANCH  47  48
ENDBRANCH  45  47
ENDBRANCH  42  43
BRANCH  42  52
ATOM     52  C   UNK A   5      -1.239  11.656 136.657  0.00  0.00    +0.000 C 
BRANCH  52  53
ATOM     53  C   UNK A   5      -1.901  11.743 138.024  0.00  0.00    +0.000 C 
BRANCH  53  54
ATOM     54  C   UNK A   5      -3.316  12.250 138.036  0.00  0.00    +0.000 C 
BRANCH  54  55
ATOM     55  C   UNK A   5      -4.072  11.571 139.177  0.00  0.00    +0.000 C 
BRANCH  55  56
ATOM     56  N   UNK A   5      -5.281  10.961 138.686  0.00  0.00    +0.000 N 
ATOM     57  C   UNK A   5      -5.870   9.891 139.323  0.00  0.00    +0.000 C 
ATOM     58  O   UNK A   5      -5.431   9.375 140.344  0.00  0.00    +0.000 OA
ATOM     59  H   UNK A   5      -5.777  11.399 137.916  0.00  0.00    +0.000 HD
BRANCH  57  60
ATOM     60  C   UNK A   5      -7.085   9.339 138.661  0.00  0.00    +0.000 A 
ATOM     61  C   UNK A   5      -8.273  10.088 138.707  0.00  0.00    +0.000 A 
ATOM     62  C   UNK A   5      -9.463   9.544 138.218  0.00  0.00    +0.000 A 
ATOM     63  C   UNK A   5      -9.454   8.288 137.618  0.00  0.00    +0.000 A 
ATOM     64  C   UNK A   5      -8.268   7.548 137.560  0.00  0.00    +0.000 A 
ATOM     65  C   UNK A   5      -7.074   8.043 138.103  0.00  0.00    +0.000 A 
BRANCH  65  66
ATOM     66  N   UNK A   5      -5.877   7.341 137.870  0.00  0.00    +0.000 N 
ATOM     67  H   UNK A   5      -5.015   7.831 138.077  0.00  0.00    +0.000 HD
ATOM     68  H   UNK A   5      -5.860   6.842 136.978  0.00  0.00    +0.000 HD
ENDBRANCH  65  66
ENDBRANCH  57  60
ENDBRANCH  55  56
ENDBRANCH  54  55
ENDBRANCH  53  54
ENDBRANCH  52  53
ENDBRANCH  42  52
ENDBRANCH  40  42
ENDBRANCH  37  38
ENDBRANCH  18  31
BRANCH  22  69
ATOM     69  CB  ASN A   2      -4.922   2.824 130.736  0.00  0.00    +0.000 C 
BRANCH  69  70
ATOM     70  CG  ASN A   2      -3.848   2.868 129.793  0.00  0.00    +0.000 C 
ATOM     71  ND2 ASN A   2      -2.974   3.777 130.293  0.00  0.00    +0.000 N 
ATOM     72  OD1 ASN A   2      -3.919   2.354 128.737  0.00  0.00    +0.000 OA
ATOM     73 HD21 ASN A   2      -2.479   3.432 131.081  0.00  0.00    +0.000 HD
ATOM     74 HD22 ASN A   2      -2.228   4.079 129.723  0.00  0.00    +0.000 HD
ENDBRANCH  69  70
ENDBRANCH  22  69
BRANCH   9  75
ATOM     75  CB  TYR A   1      -6.548  -1.249 132.190  0.00  0.00    +0.000 C 
BRANCH  75  76
ATOM     76  CG  TYR A   1      -7.439  -0.011 132.413  0.00  0.00    +0.000 A 
ATOM     77  CD1 TYR A   1      -8.649  -0.186 131.862  0.00  0.00    +0.000 A 
ATOM     78  CE1 TYR A   1      -9.537   0.841 131.617  0.00  0.00    +0.000 A 
ATOM     79  CZ  TYR A   1      -9.561   2.016 132.272  0.00  0.00    +0.000 A 
ATOM     80  CE2 TYR A   1      -8.457   2.189 133.059  0.00  0.00    +0.000 A 
ATOM     81  CD2 TYR A   1      -7.396   1.185 133.137  0.00  0.00    +0.000 A 
BRANCH  79  82
ATOM     82  OH  TYR A   1     -10.428   3.017 131.934  0.00  0.00    +0.000 OA
ATOM     83  HH  TYR A   1     -10.284   3.342 131.003  0.00  0.00    +0.000 HD
ENDBRANCH  79  82
ENDBRANCH  75  76
ENDBRANCH   9  75
BRANCH   5  84
ATOM     84  CB  TYR A   1      -6.416  -1.670 127.233  0.00  0.00    +0.000 C 
BRANCH  84  85
ATOM     85  CG  TYR A   1      -6.411  -1.869 125.780  0.00  0.00    +0.000 A 
ATOM     86  CD1 TYR A   1      -5.687  -2.872 125.107  0.00  0.00    +0.000 A 
ATOM     87  CE1 TYR A   1      -5.388  -2.719 123.783  0.00  0.00    +0.000 A 
ATOM     88  CZ  TYR A   1      -6.099  -1.763 123.086  0.00  0.00    +0.000 A 
ATOM     89  CE2 TYR A   1      -6.920  -0.835 123.740  0.00  0.00    +0.000 A 
ATOM     90  CD2 TYR A   1      -7.022  -0.838 125.104  0.00  0.00    +0.000 A 
ENDBRANCH  84  85
ENDBRANCH   5  84
BRANCH   1  91
ATOM     91  CB  TYR A   1      -6.413   3.916 127.162  0.00  0.00    +0.000 C 
BRANCH  91  93
ATOM     92  CD1 TYR A   1      -6.699   4.322 124.808  0.00  0.00    +0.000 C 
ATOM     93  CG  TYR A   1      -6.509   3.228 125.841  0.00  0.00    +0.000 C 
ATOM     94  CD2 TYR A   1      -5.260   2.425 125.536  0.00  0.00    +0.000 C 
ENDBRANCH  91  93
ENDBRANCH   1  91
TORSDOF 23
ENDMDL
MODEL 8
REMARK VINA RESULT:      -8.1      4.386     10.671
REMARK  Name = CHEMBL1765664
REMARK  25 active torsions:
REMARK  status: ('A' for Active; 'I' for Inactive)
REMARK    1  A    between atoms: CD1_1  and  CG_2
REMARK    2  A    between atoms: CG_2  and  CD2_3
REMARK    3  A    between atoms: CG_2  and  CB_4
REMARK    4  A    between atoms: CB_4  and  CA_5
REMARK    5  A    between atoms: CA_9  and  CB_10
REMARK    6  A    between atoms: CB_10  and  CG_11
REMARK    7  A    between atoms: CA_20  and  CB_21
REMARK    8  A    between atoms: CB_21  and  CG_22
REMARK    9  A    between atoms: CZ_25  and  OH_26
REMARK   10  A    between atoms: C_37  and  C_38
REMARK   11  A    between atoms: CA_44  and  C_45
REMARK   12  A    between atoms: N_47  and  C_48
REMARK   13  A    between atoms: C_48  and  C_49
REMARK   14  A    between atoms: C_48  and  C_63
REMARK   15  A    between atoms: C_49  and  C_50
REMARK   16  A    between atoms: C_50  and  C_51
REMARK   17  A    between atoms: C_51  and  C_52
REMARK   18  A    between atoms: C_52  and  N_53
REMARK   19  A    between atoms: C_54  and  C_56
REMARK   20  A    between atoms: C_61  and  N_62
REMARK   21  A    between atoms: N_65  and  CA_66
REMARK   22  A    between atoms: CA_66  and  C_67
REMARK   23  A    between atoms: C_67  and  OXT_69
REMARK   24  A    between atoms: CA_73  and  CB_74
REMARK   25  A    between atoms: CB_74  and  CG_75
REMARK                            x       y       z     vdW  Elec       q    Type
REMARK                         _______ _______ _______ _____ _____    ______ ____
ROOT
ATOM      1  CA  TYR A   1      -6.399  -0.675 128.010  0.00  0.00    +0.000 C 
ATOM      2  N   TYR A   1      -5.409   0.232 127.149  0.00  0.00    +0.000 N 
ATOM      3  C   TYR A   1      -5.212   1.586 126.864  0.00  0.00    +0.000 C 
ATOM      4  O   TYR A   1      -4.054   1.997 126.707  0.00  0.00    +0.000 OA
ATOM      5  CA  TYR A   1      -6.461   2.578 126.801  0.00  0.00    +0.000 C 
ATOM      6  N   TYR A   1      -7.064   3.292 127.952  0.00  0.00    +0.000 N 
ATOM      7  C   TYR A   1      -6.615   4.296 128.843  0.00  0.00    +0.000 C 
ATOM      8  O   TYR A   1      -7.499   4.880 129.480  0.00  0.00    +0.000 OA
ATOM      9  CA  TYR A   1      -4.896   4.513 129.165  0.00  0.00    +0.000 C 
ATOM     10  N   TYR A   1      -4.987   5.923 129.363  0.00  0.00    +0.000 N 
ATOM     11  C   UNK A   0      -5.594   6.477 130.454  0.00  0.00    +0.000 C 
ATOM     12  O   UNK A   0      -5.803   7.693 130.378  0.00  0.00    +0.000 OA
ATOM     13  C   UNK A   0      -5.987   5.688 131.758  0.00  0.00    +0.000 C 
ATOM     14  C   UNK A   0      -5.980   4.160 131.941  0.00  0.00    +0.000 C 
ATOM     15  S   UNK A   3      -6.573   3.418 133.512  0.00  0.00    +0.000 S 
ATOM     16  S   UNK A   3      -5.313   1.740 133.645  0.00  0.00    +0.000 S 
ATOM     17  C   UNK A   3      -6.391   0.313 134.099  0.00  0.00    +0.000 C 
ATOM     18  C   UNK A   3      -6.083  -1.186 133.896  0.00  0.00    +0.000 C 
ATOM     19  N   UNK A   3      -6.927  -1.785 132.847  0.00  0.00    +0.000 N 
ATOM     20  C   ASN A   2      -6.973  -1.473 131.541  0.00  0.00    +0.000 C 
ATOM     21  O   ASN A   2      -7.823  -1.927 130.775  0.00  0.00    +0.000 OA
ATOM     22  CA  ASN A   2      -5.950  -0.512 131.051  0.00  0.00    +0.000 C 
ATOM     23  N   ASN A   2      -5.353  -1.412 130.104  0.00  0.00    +0.000 N 
ATOM     24  C   TYR A   1      -5.468  -1.601 128.764  0.00  0.00    +0.000 C 
ATOM     25  O   TYR A   1      -4.568  -2.221 128.187  0.00  0.00    +0.000 OA
ATOM     26  H   TYR A   1      -4.506  -0.246 126.980  0.00  0.00    +0.000 HD
ATOM     27  H   TYR A   1      -7.986   2.933 128.250  0.00  0.00    +0.000 HD
ATOM     28  H   TYR A   1      -4.984   6.505 128.530  0.00  0.00    +0.000 HD
ATOM     29  H   UNK A   3      -7.586  -2.519 133.092  0.00  0.00    +0.000 HD
ATOM     30  H   ASN A   2      -4.563  -1.870 130.552  0.00  0.00    +0.000 HD
ENDROOT
BRANCH  18  31
ATOM     31  C   UNK A   3      -6.304  -2.044 135.196  0.00  0.00    +0.000 C 
ATOM     32  O   UNK A   3      -6.766  -1.498 136.205  0.00  0.00    +0.000 OA
ATOM     33  N   PRO A   4      -6.209  -3.426 135.095  0.00  0.00    +0.000 N 
ATOM     34  CD  PRO A   4      -5.146  -4.247 134.533  0.00  0.00    +0.000 C 
ATOM     35  CG  PRO A   4      -5.929  -5.404 133.983  0.00  0.00    +0.000 C 
ATOM     36  CB  PRO A   4      -6.866  -5.708 135.135  0.00  0.00    +0.000 C 
ATOM     37  CA  PRO A   4      -7.119  -4.347 135.823  0.00  0.00    +0.000 C 
BRANCH  37  38
ATOM     38  C   PRO A   4      -6.723  -4.578 137.295  0.00  0.00    +0.000 C 
ATOM     39  O   PRO A   4      -6.229  -5.653 137.639  0.00  0.00    +0.000 OA
ATOM     40  N   UNK A   5      -7.034  -3.572 138.208  0.00  0.00    +0.000 N 
ATOM     41  H   UNK A   5      -7.701  -2.844 137.971  0.00  0.00    +0.000 HD
BRANCH  40  42
ATOM     42  C   UNK A   5      -6.549  -3.578 139.618  0.00  0.00    +0.000 C 
BRANCH  42  43
ATOM     43  C   UNK A   5      -7.726  -3.318 140.630  0.00  0.00    +0.000 C 
ATOM     44  O   UNK A   5      -7.514  -2.861 141.755  0.00  0.00    +0.000 OA
ATOM     45  N   GLY A   6      -9.012  -3.618 140.211  0.00  0.00    +0.000 N 
ATOM     46  H   GLY A   6      -9.196  -3.982 139.279  0.00  0.00    +0.000 HD
BRANCH  45  47
ATOM     47  CA  GLY A   6     -10.193  -3.443 141.075  0.00  0.00    +0.000 C 
BRANCH  47  48
ATOM     48  C   GLY A   6     -10.845  -2.071 140.869  0.00  0.00    +0.000 C 
ATOM     49  O   GLY A   6     -11.976  -1.931 140.418  0.00  0.00    +0.000 OA
BRANCH  48  50
ATOM     50  OXT GLY A   6     -10.089  -1.004 141.221  0.00  0.00    +0.000 OA
ATOM     51  HXT GLY A   6      -9.243  -1.176 141.677  0.00  0.00    +0.000 HD
ENDBRANCH  48  50
ENDBRANCH  47  48
ENDBRANCH  45  47
ENDBRANCH  42  43
BRANCH  42  52
ATOM     52  C   UNK A   5      -5.467  -2.493 139.815  0.00  0.00    +0.000 C 
BRANCH  52  53
ATOM     53  C   UNK A   5      -4.085  -2.971 139.394  0.00  0.00    +0.000 C 
BRANCH  53  54
ATOM     54  C   UNK A   5      -3.737  -4.384 139.771  0.00  0.00    +0.000 C 
BRANCH  54  55
ATOM     55  C   UNK A   5      -2.869  -4.986 138.667  0.00  0.00    +0.000 C 
BRANCH  55  56
ATOM     56  N   UNK A   5      -2.526  -3.982 137.693  0.00  0.00    +0.000 N 
ATOM     57  C   UNK A   5      -1.638  -4.230 136.670  0.00  0.00    +0.000 C 
ATOM     58  O   UNK A   5      -1.075  -5.304 136.496  0.00  0.00    +0.000 OA
ATOM     59  H   UNK A   5      -3.035  -3.103 137.690  0.00  0.00    +0.000 HD
BRANCH  57  60
ATOM     60  C   UNK A   5      -1.346  -3.073 135.778  0.00  0.00    +0.000 A 
ATOM     61  C   UNK A   5      -2.401  -2.217 135.422  0.00  0.00    +0.000 A 
ATOM     62  C   UNK A   5      -2.195  -1.205 134.482  0.00  0.00    +0.000 A 
ATOM     63  C   UNK A   5      -0.923  -0.999 133.955  0.00  0.00    +0.000 A 
ATOM     64  C   UNK A   5       0.132  -1.842 134.321  0.00  0.00    +0.000 A 
ATOM     65  C   UNK A   5      -0.064  -2.907 135.211  0.00  0.00    +0.000 A 
BRANCH  65  66
ATOM     66  N   UNK A   5       1.056  -3.619 135.679  0.00  0.00    +0.000 N 
ATOM     67  H   UNK A   5       0.874  -4.395 136.304  0.00  0.00    +0.000 HD
ATOM     68  H   UNK A   5       1.825  -3.020 135.985  0.00  0.00    +0.000 HD
ENDBRANCH  65  66
ENDBRANCH  57  60
ENDBRANCH  55  56
ENDBRANCH  54  55
ENDBRANCH  53  54
ENDBRANCH  52  53
ENDBRANCH  42  52
ENDBRANCH  40  42
ENDBRANCH  37  38
ENDBRANCH  18  31
BRANCH  22  69
ATOM     69  CB  ASN A   2      -6.805   0.698 130.948  0.00  0.00    +0.000 C 
BRANCH  69  70
ATOM     70  CG  ASN A   2      -8.156   0.948 130.555  0.00  0.00    +0.000 C 
ATOM     71  ND2 ASN A   2      -8.898   0.712 131.667  0.00  0.00    +0.000 N 
ATOM     72  OD1 ASN A   2      -8.465   1.100 129.430  0.00  0.00    +0.000 OA
ATOM     73 HD21 ASN A   2      -8.796   1.425 132.348  0.00  0.00    +0.000 HD
ATOM     74 HD22 ASN A   2      -9.880   0.675 131.580  0.00  0.00    +0.000 HD
ENDBRANCH  69  70
ENDBRANCH  22  69
BRANCH   9  75
ATOM     75  CB  TYR A   1      -3.647   3.996 130.240  0.00  0.00    +0.000 C 
BRANCH  75  76
ATOM     76  CG  TYR A   1      -2.606   4.894 130.936  0.00  0.00    +0.000 A 
ATOM     77  CD1 TYR A   1      -2.250   4.383 132.124  0.00  0.00    +0.000 A 
ATOM     78  CE1 TYR A   1      -1.596   5.100 133.103  0.00  0.00    +0.000 A 
ATOM     79  CZ  TYR A   1      -0.828   6.184 132.887  0.00  0.00    +0.000 A 
ATOM     80  CE2 TYR A   1      -0.946   6.651 131.608  0.00  0.00    +0.000 A 
ATOM     81  CD2 TYR A   1      -1.827   6.014 130.629  0.00  0.00    +0.000 A 
BRANCH  79  82
ATOM     82  OH  TYR A   1      -0.260   6.886 133.913  0.00  0.00    +0.000 OA
ATOM     83  HH  TYR A   1      -0.722   6.725 134.781  0.00  0.00    +0.000 HD
ENDBRANCH  79  82
ENDBRANCH  75  76
ENDBRANCH   9  75
BRANCH   5  84
ATOM     84  CB  TYR A   1      -6.169   3.758 125.955  0.00  0.00    +0.000 C 
BRANCH  84  85
ATOM     85  CG  TYR A   1      -6.801   3.708 124.633  0.00  0.00    +0.000 A 
ATOM     86  CD1 TYR A   1      -8.132   3.314 124.392  0.00  0.00    +0.000 A 
ATOM     87  CE1 TYR A   1      -8.495   2.879 123.149  0.00  0.00    +0.000 A 
ATOM     88  CZ  TYR A   1      -7.638   3.172 122.107  0.00  0.00    +0.000 A 
ATOM     89  CE2 TYR A   1      -6.352   3.681 122.333  0.00  0.00    +0.000 A 
ATOM     90  CD2 TYR A   1      -5.900   3.883 123.609  0.00  0.00    +0.000 A 
ENDBRANCH  84  85
ENDBRANCH   5  84
BRANCH   1  91
ATOM     91  CB  TYR A   1      -7.697  -1.356 127.606  0.00  0.00    +0.000 C 
BRANCH  91  93
ATOM     92  CD1 TYR A   1      -8.537  -2.479 125.651  0.00  0.00    +0.000 C 
ATOM     93  CG  TYR A   1      -7.965  -1.166 126.150  0.00  0.00    +0.000 C 
ATOM     94  CD2 TYR A   1      -8.946  -0.037 125.906  0.00  0.00    +0.000 C 
ENDBRANCH  91  93
ENDBRANCH   1  91
TORSDOF 23
ENDMDL
MODEL 9
REMARK VINA RESULT:      -7.9      2.126      4.182
REMARK  Name = CHEMBL1765664
REMARK  25 active torsions:
REMARK  status: ('A' for Active; 'I' for Inactive)
REMARK    1  A    between atoms: CD1_1  and  CG_2
REMARK    2  A    between atoms: CG_2  and  CD2_3
REMARK    3  A    between atoms: CG_2  and  CB_4
REMARK    4  A    between atoms: CB_4  and  CA_5
REMARK    5  A    between atoms: CA_9  and  CB_10
REMARK    6  A    between atoms: CB_10  and  CG_11
REMARK    7  A    between atoms: CA_20  and  CB_21
REMARK    8  A    between atoms: CB_21  and  CG_22
REMARK    9  A    between atoms: CZ_25  and  OH_26
REMARK   10  A    between atoms: C_37  and  C_38
REMARK   11  A    between atoms: CA_44  and  C_45
REMARK   12  A    between atoms: N_47  and  C_48
REMARK   13  A    between atoms: C_48  and  C_49
REMARK   14  A    between atoms: C_48  and  C_63
REMARK   15  A    between atoms: C_49  and  C_50
REMARK   16  A    between atoms: C_50  and  C_51
REMARK   17  A    between atoms: C_51  and  C_52
REMARK   18  A    between atoms: C_52  and  N_53
REMARK   19  A    between atoms: C_54  and  C_56
REMARK   20  A    between atoms: C_61  and  N_62
REMARK   21  A    between atoms: N_65  and  CA_66
REMARK   22  A    between atoms: CA_66  and  C_67
REMARK   23  A    between atoms: C_67  and  OXT_69
REMARK   24  A    between atoms: CA_73  and  CB_74
REMARK   25  A    between atoms: CB_74  and  CG_75
REMARK                            x       y       z     vdW  Elec       q    Type
REMARK                         _______ _______ _______ _____ _____    ______ ____
ROOT
ATOM      1  CA  TYR A   1      -7.887   5.983 132.297  0.00  0.00    +0.000 C 
ATOM      2  N   TYR A   1      -6.623   6.455 133.150  0.00  0.00    +0.000 N 
ATOM      3  C   TYR A   1      -5.809   5.962 134.173  0.00  0.00    +0.000 C 
ATOM      4  O   TYR A   1      -4.606   6.257 134.168  0.00  0.00    +0.000 OA
ATOM      5  CA  TYR A   1      -6.421   4.994 135.285  0.00  0.00    +0.000 C 
ATOM      6  N   TYR A   1      -6.547   3.520 135.183  0.00  0.00    +0.000 N 
ATOM      7  C   TYR A   1      -5.625   2.450 135.100  0.00  0.00    +0.000 C 
ATOM      8  O   TYR A   1      -6.083   1.329 135.351  0.00  0.00    +0.000 OA
ATOM      9  CA  TYR A   1      -4.003   2.704 134.459  0.00  0.00    +0.000 C 
ATOM     10  N   TYR A   1      -3.389   1.719 135.290  0.00  0.00    +0.000 N 
ATOM     11  C   UNK A   0      -3.598   0.379 135.123  0.00  0.00    +0.000 C 
ATOM     12  O   UNK A   0      -3.195  -0.334 136.049  0.00  0.00    +0.000 OA
ATOM     13  C   UNK A   0      -4.261  -0.273 133.854  0.00  0.00    +0.000 C 
ATOM     14  C   UNK A   0      -4.986   0.467 132.717  0.00  0.00    +0.000 C 
ATOM     15  S   UNK A   3      -5.789  -0.481 131.364  0.00  0.00    +0.000 S 
ATOM     16  S   UNK A   3      -5.496   0.830 129.748  0.00  0.00    +0.000 S 
ATOM     17  C   UNK A   3      -7.107   0.925 128.853  0.00  0.00    +0.000 C 
ATOM     18  C   UNK A   3      -7.574   2.042 127.896  0.00  0.00    +0.000 C 
ATOM     19  N   UNK A   3      -8.653   2.857 128.484  0.00  0.00    +0.000 N 
ATOM     20  C   ASN A   2      -8.604   3.625 129.584  0.00  0.00    +0.000 C 
ATOM     21  O   ASN A   2      -9.604   4.147 130.079  0.00  0.00    +0.000 OA
ATOM     22  CA  ASN A   2      -7.268   3.805 130.212  0.00  0.00    +0.000 C 
ATOM     23  N   ASN A   2      -7.230   5.232 130.055  0.00  0.00    +0.000 N 
ATOM     24  C   TYR A   1      -7.486   6.289 130.870  0.00  0.00    +0.000 C 
ATOM     25  O   TYR A   1      -7.028   7.391 130.550  0.00  0.00    +0.000 OA
ATOM     26  H   TYR A   1      -6.075   7.176 132.649  0.00  0.00    +0.000 HD
ATOM     27  H   TYR A   1      -7.512   3.176 135.049  0.00  0.00    +0.000 HD
ATOM     28  H   TYR A   1      -3.145   2.003 136.234  0.00  0.00    +0.000 HD
ATOM     29  H   UNK A   3      -9.572   2.859 128.051  0.00  0.00    +0.000 HD
ATOM     30  H   ASN A   2      -6.740   5.446 129.190  0.00  0.00    +0.000 HD
ENDROOT
BRANCH  18  31
ATOM     31  C   UNK A   3      -8.120   1.493 126.526  0.00  0.00    +0.000 C 
ATOM     32  O   UNK A   3      -9.107   0.746 126.529  0.00  0.00    +0.000 OA
ATOM     33  N   PRO A   4      -7.638   2.057 125.353  0.00  0.00    +0.000 N 
ATOM     34  CD  PRO A   4      -6.264   2.260 124.915  0.00  0.00    +0.000 C 
ATOM     35  CG  PRO A   4      -6.392   3.531 124.127  0.00  0.00    +0.000 C 
ATOM     36  CB  PRO A   4      -7.630   3.249 123.298  0.00  0.00    +0.000 C 
ATOM     37  CA  PRO A   4      -8.504   2.325 124.176  0.00  0.00    +0.000 C 
BRANCH  37  38
ATOM     38  C   PRO A   4      -8.760   1.085 123.297  0.00  0.00    +0.000 C 
ATOM     39  O   PRO A   4      -9.502   1.166 122.318  0.00  0.00    +0.000 OA
ATOM     40  N   UNK A   5      -8.200  -0.122 123.713  0.00  0.00    +0.000 N 
ATOM     41  H   UNK A   5      -7.857  -0.235 124.662  0.00  0.00    +0.000 HD
BRANCH  40  42
ATOM     42  C   UNK A   5      -8.209  -1.353 122.871  0.00  0.00    +0.000 C 
BRANCH  42  43
ATOM     43  C   UNK A   5      -8.928  -2.545 123.607  0.00  0.00    +0.000 C 
ATOM     44  O   UNK A   5      -9.436  -3.473 122.975  0.00  0.00    +0.000 OA
ATOM     45  N   GLY A   6      -8.968  -2.515 124.991  0.00  0.00    +0.000 N 
ATOM     46  H   GLY A   6      -8.538  -1.759 125.519  0.00  0.00    +0.000 HD
BRANCH  45  47
ATOM     47  CA  GLY A   6      -9.634  -3.559 125.792  0.00  0.00    +0.000 C 
BRANCH  47  48
ATOM     48  C   GLY A   6      -9.240  -3.473 127.271  0.00  0.00    +0.000 C 
ATOM     49  O   GLY A   6      -9.515  -4.346 128.085  0.00  0.00    +0.000 OA
BRANCH  48  50
ATOM     50  OXT GLY A   6      -8.559  -2.360 127.633  0.00  0.00    +0.000 OA
ATOM     51  HXT GLY A   6      -8.958  -1.494 127.425  0.00  0.00    +0.000 HD
ENDBRANCH  48  50
ENDBRANCH  47  48
ENDBRANCH  45  47
ENDBRANCH  42  43
BRANCH  42  52
ATOM     52  C   UNK A   5      -6.764  -1.774 122.525  0.00  0.00    +0.000 C 
BRANCH  52  53
ATOM     53  C   UNK A   5      -6.278  -2.935 123.381  0.00  0.00    +0.000 C 
BRANCH  53  54
ATOM     54  C   UNK A   5      -5.164  -2.621 124.340  0.00  0.00    +0.000 C 
BRANCH  54  55
ATOM     55  C   UNK A   5      -5.738  -1.832 125.516  0.00  0.00    +0.000 C 
BRANCH  55  56
ATOM     56  N   UNK A   5      -5.648  -2.602 126.729  0.00  0.00    +0.000 N 
ATOM     57  C   UNK A   5      -5.046  -2.109 127.866  0.00  0.00    +0.000 C 
ATOM     58  O   UNK A   5      -4.545  -0.993 127.947  0.00  0.00    +0.000 OA
ATOM     59  H   UNK A   5      -6.141  -3.488 126.789  0.00  0.00    +0.000 HD
BRANCH  57  60
ATOM     60  C   UNK A   5      -4.986  -3.048 129.020  0.00  0.00    +0.000 A 
ATOM     61  C   UNK A   5      -6.150  -3.747 129.379  0.00  0.00    +0.000 A 
ATOM     62  C   UNK A   5      -6.169  -4.530 130.535  0.00  0.00    +0.000 A 
ATOM     63  C   UNK A   5      -5.009  -4.676 131.291  0.00  0.00    +0.000 A 
ATOM     64  C   UNK A   5      -3.845  -3.991 130.927  0.00  0.00    +0.000 A 
ATOM     65  C   UNK A   5      -3.819  -3.145 129.808  0.00  0.00    +0.000 A 
BRANCH  65  66
ATOM     66  N   UNK A   5      -2.586  -2.615 129.384  0.00  0.00    +0.000 N 
ATOM     67  H   UNK A   5      -2.624  -1.839 128.735  0.00  0.00    +0.000 HD
ATOM     68  H   UNK A   5      -1.898  -3.327 129.129  0.00  0.00    +0.000 HD
ENDBRANCH  65  66
ENDBRANCH  57  60
ENDBRANCH  55  56
ENDBRANCH  54  55
ENDBRANCH  53  54
ENDBRANCH  52  53
ENDBRANCH  42  52
ENDBRANCH  40  42
ENDBRANCH  37  38
ENDBRANCH  18  31
BRANCH  22  69
ATOM     69  CB  ASN A   2      -7.434   2.883 131.364  0.00  0.00    +0.000 C 
BRANCH  69  70
ATOM     70  CG  ASN A   2      -8.531   2.163 131.931  0.00  0.00    +0.000 C 
ATOM     71  ND2 ASN A   2      -8.906   2.886 133.017  0.00  0.00    +0.000 N 
ATOM     72  OD1 ASN A   2      -8.815   1.076 131.583  0.00  0.00    +0.000 OA
ATOM     73 HD21 ASN A   2      -9.377   3.724 132.769  0.00  0.00    +0.000 HD
ATOM     74 HD22 ASN A   2      -9.551   2.490 133.648  0.00  0.00    +0.000 HD
ENDBRANCH  69  70
ENDBRANCH  22  69
BRANCH   9  75
ATOM     75  CB  TYR A   1      -3.111   2.652 132.982  0.00  0.00    +0.000 C 
BRANCH  75  76
ATOM     76  CG  TYR A   1      -2.773   3.850 132.073  0.00  0.00    +0.000 A 
ATOM     77  CD1 TYR A   1      -3.565   3.871 130.991  0.00  0.00    +0.000 A 
ATOM     78  CE1 TYR A   1      -3.300   4.612 129.859  0.00  0.00    +0.000 A 
ATOM     79  CZ  TYR A   1      -2.542   5.724 129.821  0.00  0.00    +0.000 A 
ATOM     80  CE2 TYR A   1      -1.860   5.921 130.989  0.00  0.00    +0.000 A 
ATOM     81  CD2 TYR A   1      -1.970   4.995 132.116  0.00  0.00    +0.000 A 
BRANCH  79  82
ATOM     82  OH  TYR A   1      -2.268   6.375 128.651  0.00  0.00    +0.000 OA
ATOM     83  HH  TYR A   1      -3.080   6.494 128.087  0.00  0.00    +0.000 HD
ENDBRANCH  79  82
ENDBRANCH  75  76
ENDBRANCH   9  75
BRANCH   5  84
ATOM     84  CB  TYR A   1      -5.635   5.050 136.539  0.00  0.00    +0.000 C 
BRANCH  84  85
ATOM     85  CG  TYR A   1      -6.297   5.789 137.619  0.00  0.00    +0.000 A 
ATOM     86  CD1 TYR A   1      -5.928   5.730 138.977  0.00  0.00    +0.000 A 
ATOM     87  CE1 TYR A   1      -6.833   6.076 139.941  0.00  0.00    +0.000 A 
ATOM     88  CZ  TYR A   1      -7.940   6.793 139.532  0.00  0.00    +0.000 A 
ATOM     89  CE2 TYR A   1      -8.248   6.961 138.175  0.00  0.00    +0.000 A 
ATOM     90  CD2 TYR A   1      -7.462   6.393 137.210  0.00  0.00    +0.000 A 
ENDBRANCH  84  85
ENDBRANCH   5  84
BRANCH   1  91
ATOM     91  CB  TYR A   1      -9.370   6.206 132.547  0.00  0.00    +0.000 C 
BRANCH  91  93
ATOM     92  CD1 TYR A   1     -11.585   5.975 131.636  0.00  0.00    +0.000 C 
ATOM     93  CG  TYR A   1     -10.132   6.199 131.264  0.00  0.00    +0.000 C 
ATOM     94  CD2 TYR A   1      -9.974   7.507 130.514  0.00  0.00    +0.000 C 
ENDBRANCH  91  93
ENDBRANCH   1  91
TORSDOF 23
ENDMDL
