MODEL 1
REMARK VINA RESULT:     -10.0      0.000      0.000
REMARK  Name = CHEMBL2017867
REMARK  10 active torsions:
REMARK  status: ('A' for Active; 'I' for Inactive)
REMARK    1  A    between atoms: C_1  and  S_2
REMARK    2  A    between atoms: S_2  and  N_5
REMARK    3  A    between atoms: C_8  and  O_9
REMARK    4  A    between atoms: O_9  and  C_10
REMARK    5  A    between atoms: C_13  and  C_14
REMARK    6  A    between atoms: C_14  and  C_15
REMARK    7  A    between atoms: C_20  and  N_21
REMARK    8  A    between atoms: C_34  and  O_35
REMARK    9  A    between atoms: O_35  and  C_36
REMARK   10  A    between atoms: C_36  and  C_37
REMARK                            x       y       z     vdW  Elec       q    Type
REMARK                         _______ _______ _______ _____ _____    ______ ____
ROOT
ATOM      1  C   UNL     1      -7.883   6.313 131.906  0.00  0.00    +0.000 A 
ATOM      2  C   UNL     1      -7.090   7.068 131.059  0.00  0.00    +0.000 A 
ATOM      3  C   UNL     1      -5.801   6.599 130.707  0.00  0.00    +0.000 A 
ATOM      4  C   UNL     1      -5.234   5.438 131.302  0.00  0.00    +0.000 A 
ATOM      5  C   UNL     1      -6.093   4.672 132.090  0.00  0.00    +0.000 A 
ATOM      6  C   UNL     1      -7.371   5.114 132.355  0.00  0.00    +0.000 A 
ENDROOT
BRANCH   1   7
ATOM      7  O   UNL     1      -9.204   6.614 132.092  0.00  0.00    +0.000 OA
BRANCH   7  11
ATOM      8  N   UNL     1     -11.602   6.796 129.318  0.00  0.00    +0.000 NA
ATOM      9  C   UNL     1     -10.216   6.236 129.187  0.00  0.00    +0.000 C 
ATOM     10  C   UNL     1     -10.025   5.103 130.212  0.00  0.00    +0.000 C 
ATOM     11  C   UNL     1     -10.161   5.624 131.650  0.00  0.00    +0.000 C 
ATOM     12  C   UNL     1     -11.552   6.260 131.756  0.00  0.00    +0.000 C 
ATOM     13  C   UNL     1     -11.765   7.341 130.698  0.00  0.00    +0.000 C 
BRANCH   8  15
ATOM     14  C   UNL     1     -12.895   9.230 128.988  0.00  0.00    +0.000 C 
ATOM     15  S   UNL     1     -11.964   7.972 128.099  0.00  0.00    +0.000 S 
ATOM     16  O   UNL     1     -12.847   7.354 127.135  0.00  0.00    +0.000 OA
ATOM     17  O   UNL     1     -10.704   8.551 127.680  0.00  0.00    +0.000 OA
ENDBRANCH   8  15
ENDBRANCH   7  11
ENDBRANCH   1   7
BRANCH   4  18
ATOM     18  C   UNL     1      -3.749   5.092 131.068  0.00  0.00    +0.000 C 
BRANCH  18  19
ATOM     19  C   UNL     1      -3.218   4.890 129.601  0.00  0.00    +0.000 C 
ATOM     20  O   UNL     1      -2.333   5.525 129.044  0.00  0.00    +0.000 OA
ATOM     21  N   UNL     1      -3.790   3.928 128.786  0.00  0.00    +0.000 N 
ATOM     22  C   UNL     1      -2.910   3.109 127.953  0.00  0.00    +0.000 C 
ATOM     23  C   UNL     1      -3.156   3.204 126.459  0.00  0.00    +0.000 C 
ATOM     24  C   UNL     1      -4.863   2.615 126.061  0.00  0.00    +0.000 C 
ATOM     25  C   UNL     1      -5.451   4.053 126.900  0.00  0.00    +0.000 C 
ATOM     26  C   UNL     1      -5.187   3.983 128.408  0.00  0.00    +0.000 C 
BRANCH  24  27
ATOM     27  N   UNL     1      -5.468   0.773 125.851  0.00  0.00    +0.000 N 
ATOM     28  C   UNL     1      -6.132   2.077 124.867  0.00  0.00    +0.000 C 
ATOM     29  O   UNL     1      -6.697   2.831 124.120  0.00  0.00    +0.000 OA
ATOM     30  C   UNL     1      -6.693   0.944 124.448  0.00  0.00    +0.000 C 
ATOM     31  C   UNL     1      -7.605   0.592 123.475  0.00  0.00    +0.000 C 
ATOM     32  C   UNL     1      -7.423  -0.767 124.037  0.00  0.00    +0.000 A 
ATOM     33  C   UNL     1      -8.457  -1.581 123.119  0.00  0.00    +0.000 A 
ATOM     34  C   UNL     1      -8.820  -2.867 123.283  0.00  0.00    +0.000 A 
ATOM     35  C   UNL     1      -7.983  -3.334 124.284  0.00  0.00    +0.000 A 
ATOM     36  C   UNL     1      -6.832  -2.424 125.248  0.00  0.00    +0.000 A 
ATOM     37  C   UNL     1      -6.391  -0.842 125.280  0.00  0.00    +0.000 A 
ENDBRANCH  24  27
ENDBRANCH  18  19
ENDBRANCH   4  18
BRANCH   5  38
ATOM     38  O   UNL     1      -5.756   3.407 132.443  0.00  0.00    +0.000 OA
BRANCH  38  39
ATOM     39  C   UNL     1      -6.645   2.301 132.303  0.00  0.00    +0.000 C 
BRANCH  39  40
ATOM     40  C   UNL     1      -6.812   1.943 130.849  0.00  0.00    +0.000 C 
ATOM     41  C   UNL     1      -8.005   1.967 130.243  0.00  0.00    +0.000 C 
ATOM     42  I   UNL     1      -8.277   1.509 128.273  0.00  0.00    +0.000 I 
ENDBRANCH  39  40
ENDBRANCH  38  39
ENDBRANCH   5  38
TORSDOF 9
ENDMDL
MODEL 2
REMARK VINA RESULT:      -9.5      2.764      4.175
REMARK  Name = CHEMBL2017867
REMARK  10 active torsions:
REMARK  status: ('A' for Active; 'I' for Inactive)
REMARK    1  A    between atoms: C_1  and  S_2
REMARK    2  A    between atoms: S_2  and  N_5
REMARK    3  A    between atoms: C_8  and  O_9
REMARK    4  A    between atoms: O_9  and  C_10
REMARK    5  A    between atoms: C_13  and  C_14
REMARK    6  A    between atoms: C_14  and  C_15
REMARK    7  A    between atoms: C_20  and  N_21
REMARK    8  A    between atoms: C_34  and  O_35
REMARK    9  A    between atoms: O_35  and  C_36
REMARK   10  A    between atoms: C_36  and  C_37
REMARK                            x       y       z     vdW  Elec       q    Type
REMARK                         _______ _______ _______ _____ _____    ______ ____
ROOT
ATOM      1  C   UNL     1      -9.235   5.539 132.670  0.00  0.00    +0.000 A 
ATOM      2  C   UNL     1      -9.461   4.657 133.712  0.00  0.00    +0.000 A 
ATOM      3  C   UNL     1      -8.389   3.878 134.213  0.00  0.00    +0.000 A 
ATOM      4  C   UNL     1      -7.110   3.873 133.591  0.00  0.00    +0.000 A 
ATOM      5  C   UNL     1      -6.908   4.826 132.595  0.00  0.00    +0.000 A 
ATOM      6  C   UNL     1      -7.950   5.626 132.178  0.00  0.00    +0.000 A 
ENDROOT
BRANCH   1   7
ATOM      7  O   UNL     1     -10.178   6.461 132.308  0.00  0.00    +0.000 OA
BRANCH   7  11
ATOM      8  N   UNL     1     -11.434   6.673 128.864  0.00  0.00    +0.000 NA
ATOM      9  C   UNL     1     -10.607   5.533 129.382  0.00  0.00    +0.000 C 
ATOM     10  C   UNL     1     -11.298   4.921 130.614  0.00  0.00    +0.000 C 
ATOM     11  C   UNL     1     -11.410   5.943 131.755  0.00  0.00    +0.000 C 
ATOM     12  C   UNL     1     -12.194   7.137 131.197  0.00  0.00    +0.000 C 
ATOM     13  C   UNL     1     -11.543   7.705 129.938  0.00  0.00    +0.000 C 
BRANCH   8  15
ATOM     14  C   UNL     1     -12.211   7.202 126.252  0.00  0.00    +0.000 C 
ATOM     15  S   UNL     1     -10.817   7.327 127.383  0.00  0.00    +0.000 S 
ATOM     16  O   UNL     1      -9.772   6.445 126.912  0.00  0.00    +0.000 OA
ATOM     17  O   UNL     1     -10.547   8.730 127.618  0.00  0.00    +0.000 OA
ENDBRANCH   8  15
ENDBRANCH   7  11
ENDBRANCH   1   7
BRANCH   4  18
ATOM     18  C   UNL     1      -6.043   2.844 134.022  0.00  0.00    +0.000 C 
BRANCH  18  19
ATOM     19  C   UNL     1      -6.268   1.317 133.724  0.00  0.00    +0.000 C 
ATOM     20  O   UNL     1      -6.230   0.395 134.529  0.00  0.00    +0.000 OA
ATOM     21  N   UNL     1      -6.508   0.895 132.427  0.00  0.00    +0.000 N 
ATOM     22  C   UNL     1      -7.533  -0.126 132.207  0.00  0.00    +0.000 C 
ATOM     23  C   UNL     1      -7.045  -1.407 131.556  0.00  0.00    +0.000 C 
ATOM     24  C   UNL     1      -6.371  -1.043 129.872  0.00  0.00    +0.000 C 
ATOM     25  C   UNL     1      -5.054  -0.197 130.688  0.00  0.00    +0.000 C 
ATOM     26  C   UNL     1      -5.536   1.088 131.371  0.00  0.00    +0.000 C 
BRANCH  24  27
ATOM     27  N   UNL     1      -7.372  -0.807 128.215  0.00  0.00    +0.000 N 
ATOM     28  C   UNL     1      -5.923  -1.810 128.280  0.00  0.00    +0.000 C 
ATOM     29  O   UNL     1      -4.961  -2.518 128.136  0.00  0.00    +0.000 OA
ATOM     30  C   UNL     1      -6.407  -1.898 127.042  0.00  0.00    +0.000 C 
ATOM     31  C   UNL     1      -6.055  -2.565 125.888  0.00  0.00    +0.000 C 
ATOM     32  C   UNL     1      -7.222  -1.848 125.320  0.00  0.00    +0.000 A 
ATOM     33  C   UNL     1      -7.143  -2.360 123.802  0.00  0.00    +0.000 A 
ATOM     34  C   UNL     1      -7.888  -1.910 122.775  0.00  0.00    +0.000 A 
ATOM     35  C   UNL     1      -8.815  -1.067 123.367  0.00  0.00    +0.000 A 
ATOM     36  C   UNL     1      -8.899  -0.554 125.044  0.00  0.00    +0.000 A 
ATOM     37  C   UNL     1      -7.983  -0.881 126.370  0.00  0.00    +0.000 A 
ENDBRANCH  24  27
ENDBRANCH  18  19
ENDBRANCH   4  18
BRANCH   5  38
ATOM     38  O   UNL     1      -5.655   5.114 132.163  0.00  0.00    +0.000 OA
BRANCH  38  39
ATOM     39  C   UNL     1      -5.008   6.356 132.433  0.00  0.00    +0.000 C 
BRANCH  39  40
ATOM     40  C   UNL     1      -4.125   6.748 131.276  0.00  0.00    +0.000 C 
ATOM     41  C   UNL     1      -3.777   5.878 130.320  0.00  0.00    +0.000 C 
ATOM     42  I   UNL     1      -2.601   6.368 128.727  0.00  0.00    +0.000 I 
ENDBRANCH  39  40
ENDBRANCH  38  39
ENDBRANCH   5  38
TORSDOF 9
ENDMDL
MODEL 3
REMARK VINA RESULT:      -9.4      4.706      7.366
REMARK  Name = CHEMBL2017867
REMARK  10 active torsions:
REMARK  status: ('A' for Active; 'I' for Inactive)
REMARK    1  A    between atoms: C_1  and  S_2
REMARK    2  A    between atoms: S_2  and  N_5
REMARK    3  A    between atoms: C_8  and  O_9
REMARK    4  A    between atoms: O_9  and  C_10
REMARK    5  A    between atoms: C_13  and  C_14
REMARK    6  A    between atoms: C_14  and  C_15
REMARK    7  A    between atoms: C_20  and  N_21
REMARK    8  A    between atoms: C_34  and  O_35
REMARK    9  A    between atoms: O_35  and  C_36
REMARK   10  A    between atoms: C_36  and  C_37
REMARK                            x       y       z     vdW  Elec       q    Type
REMARK                         _______ _______ _______ _____ _____    ______ ____
ROOT
ATOM      1  C   UNL     1      -2.879   7.473 132.742  0.00  0.00    +0.000 A 
ATOM      2  C   UNL     1      -3.734   6.722 133.529  0.00  0.00    +0.000 A 
ATOM      3  C   UNL     1      -4.942   6.231 132.976  0.00  0.00    +0.000 A 
ATOM      4  C   UNL     1      -5.375   6.599 131.671  0.00  0.00    +0.000 A 
ATOM      5  C   UNL     1      -4.452   7.294 130.892  0.00  0.00    +0.000 A 
ATOM      6  C   UNL     1      -3.249   7.693 131.432  0.00  0.00    +0.000 A 
ENDROOT
BRANCH   1   7
ATOM      7  O   UNL     1      -1.613   7.774 133.163  0.00  0.00    +0.000 OA
BRANCH   7  11
ATOM      8  N   UNL     1      -0.253  11.126 133.793  0.00  0.00    +0.000 NA
ATOM      9  C   UNL     1      -1.701  10.853 133.508  0.00  0.00    +0.000 C 
ATOM     10  C   UNL     1      -2.237   9.833 134.529  0.00  0.00    +0.000 C 
ATOM     11  C   UNL     1      -1.500   8.490 134.415  0.00  0.00    +0.000 C 
ATOM     12  C   UNL     1      -0.013   8.787 134.635  0.00  0.00    +0.000 C 
ATOM     13  C   UNL     1       0.505   9.846 133.664  0.00  0.00    +0.000 C 
BRANCH   8  15
ATOM     14  C   UNL     1      -0.937  12.740 131.641  0.00  0.00    +0.000 C 
ATOM     15  S   UNL     1       0.399  12.381 132.793  0.00  0.00    +0.000 S 
ATOM     16  O   UNL     1       1.503  11.822 132.044  0.00  0.00    +0.000 OA
ATOM     17  O   UNL     1       0.593  13.541 133.638  0.00  0.00    +0.000 OA
ENDBRANCH   8  15
ENDBRANCH   7  11
ENDBRANCH   1   7
BRANCH   4  18
ATOM     18  C   UNL     1      -6.797   6.235 131.196  0.00  0.00    +0.000 C 
BRANCH  18  19
ATOM     19  C   UNL     1      -7.374   4.802 131.490  0.00  0.00    +0.000 C 
ATOM     20  O   UNL     1      -7.738   4.362 132.573  0.00  0.00    +0.000 OA
ATOM     21  N   UNL     1      -7.480   3.876 130.465  0.00  0.00    +0.000 N 
ATOM     22  C   UNL     1      -8.688   3.054 130.394  0.00  0.00    +0.000 C 
ATOM     23  C   UNL     1      -8.460   1.556 130.485  0.00  0.00    +0.000 C 
ATOM     24  C   UNL     1      -7.417   0.987 129.067  0.00  0.00    +0.000 C 
ATOM     25  C   UNL     1      -6.090   1.884 129.810  0.00  0.00    +0.000 C 
ATOM     26  C   UNL     1      -6.317   3.399 129.747  0.00  0.00    +0.000 C 
BRANCH  24  27
ATOM     27  N   UNL     1      -7.995   0.596 127.247  0.00  0.00    +0.000 N 
ATOM     28  C   UNL     1      -7.636  -0.693 128.395  0.00  0.00    +0.000 C 
ATOM     29  O   UNL     1      -7.430  -1.691 129.034  0.00  0.00    +0.000 OA
ATOM     30  C   UNL     1      -8.060  -1.273 127.274  0.00  0.00    +0.000 C 
ATOM     31  C   UNL     1      -8.277  -2.567 126.850  0.00  0.00    +0.000 C 
ATOM     32  C   UNL     1      -8.632  -1.908 125.571  0.00  0.00    +0.000 A 
ATOM     33  C   UNL     1      -8.942  -3.202 124.676  0.00  0.00    +0.000 A 
ATOM     34  C   UNL     1      -9.183  -3.210 123.351  0.00  0.00    +0.000 A 
ATOM     35  C   UNL     1      -9.266  -1.870 123.009  0.00  0.00    +0.000 A 
ATOM     36  C   UNL     1      -8.957  -0.471 124.024  0.00  0.00    +0.000 A 
ATOM     37  C   UNL     1      -8.507  -0.295 125.595  0.00  0.00    +0.000 A 
ENDBRANCH  24  27
ENDBRANCH  18  19
ENDBRANCH   4  18
BRANCH   5  38
ATOM     38  O   UNL     1      -4.637   7.417 129.554  0.00  0.00    +0.000 OA
BRANCH  38  39
ATOM     39  C   UNL     1      -3.557   7.489 128.626  0.00  0.00    +0.000 C 
BRANCH  39  40
ATOM     40  C   UNL     1      -3.475   6.220 127.817  0.00  0.00    +0.000 C 
ATOM     41  C   UNL     1      -2.710   5.187 128.191  0.00  0.00    +0.000 C 
ATOM     42  I   UNL     1      -2.582   3.443 127.139  0.00  0.00    +0.000 I 
ENDBRANCH  39  40
ENDBRANCH  38  39
ENDBRANCH   5  38
TORSDOF 9
ENDMDL
MODEL 4
REMARK VINA RESULT:      -9.4      3.039      4.409
REMARK  Name = CHEMBL2017867
REMARK  10 active torsions:
REMARK  status: ('A' for Active; 'I' for Inactive)
REMARK    1  A    between atoms: C_1  and  S_2
REMARK    2  A    between atoms: S_2  and  N_5
REMARK    3  A    between atoms: C_8  and  O_9
REMARK    4  A    between atoms: O_9  and  C_10
REMARK    5  A    between atoms: C_13  and  C_14
REMARK    6  A    between atoms: C_14  and  C_15
REMARK    7  A    between atoms: C_20  and  N_21
REMARK    8  A    between atoms: C_34  and  O_35
REMARK    9  A    between atoms: O_35  and  C_36
REMARK   10  A    between atoms: C_36  and  C_37
REMARK                            x       y       z     vdW  Elec       q    Type
REMARK                         _______ _______ _______ _____ _____    ______ ____
ROOT
ATOM      1  C   UNL     1      -9.113   5.536 132.725  0.00  0.00    +0.000 A 
ATOM      2  C   UNL     1      -9.505   4.430 133.459  0.00  0.00    +0.000 A 
ATOM      3  C   UNL     1      -8.523   3.615 134.074  0.00  0.00    +0.000 A 
ATOM      4  C   UNL     1      -7.133   3.817 133.851  0.00  0.00    +0.000 A 
ATOM      5  C   UNL     1      -6.784   4.981 133.168  0.00  0.00    +0.000 A 
ATOM      6  C   UNL     1      -7.762   5.799 132.646  0.00  0.00    +0.000 A 
ENDROOT
BRANCH   1   7
ATOM      7  O   UNL     1     -10.026   6.465 132.307  0.00  0.00    +0.000 OA
BRANCH   7  11
ATOM      8  N   UNL     1     -11.379   6.666 128.900  0.00  0.00    +0.000 NA
ATOM      9  C   UNL     1     -10.549   5.521 129.402  0.00  0.00    +0.000 C 
ATOM     10  C   UNL     1     -11.210   4.925 130.659  0.00  0.00    +0.000 C 
ATOM     11  C   UNL     1     -11.279   5.957 131.795  0.00  0.00    +0.000 C 
ATOM     12  C   UNL     1     -12.065   7.155 131.250  0.00  0.00    +0.000 C 
ATOM     13  C   UNL     1     -11.446   7.707 129.969  0.00  0.00    +0.000 C 
BRANCH   8  15
ATOM     14  C   UNL     1     -12.221   7.166 126.303  0.00  0.00    +0.000 C 
ATOM     15  S   UNL     1     -10.798   7.302 127.397  0.00  0.00    +0.000 S 
ATOM     16  O   UNL     1      -9.767   6.413 126.909  0.00  0.00    +0.000 OA
ATOM     17  O   UNL     1     -10.521   8.707 127.609  0.00  0.00    +0.000 OA
ENDBRANCH   8  15
ENDBRANCH   7  11
ENDBRANCH   1   7
BRANCH   4  18
ATOM     18  C   UNL     1      -6.109   2.775 134.347  0.00  0.00    +0.000 C 
BRANCH  18  19
ATOM     19  C   UNL     1      -6.190   1.294 133.826  0.00  0.00    +0.000 C 
ATOM     20  O   UNL     1      -6.286   0.279 134.504  0.00  0.00    +0.000 OA
ATOM     21  N   UNL     1      -6.119   1.035 132.468  0.00  0.00    +0.000 N 
ATOM     22  C   UNL     1      -7.020   0.030 131.904  0.00  0.00    +0.000 C 
ATOM     23  C   UNL     1      -6.341  -1.148 131.231  0.00  0.00    +0.000 C 
ATOM     24  C   UNL     1      -5.332  -0.561 129.796  0.00  0.00    +0.000 C 
ATOM     25  C   UNL     1      -4.268   0.201 130.981  0.00  0.00    +0.000 C 
ATOM     26  C   UNL     1      -4.949   1.379 131.687  0.00  0.00    +0.000 C 
BRANCH  24  27
ATOM     27  N   UNL     1      -5.954  -0.136 127.998  0.00  0.00    +0.000 N 
ATOM     28  C   UNL     1      -5.173  -1.674 128.361  0.00  0.00    +0.000 C 
ATOM     29  O   UNL     1      -4.659  -2.760 128.423  0.00  0.00    +0.000 OA
ATOM     30  C   UNL     1      -5.535  -1.711 127.080  0.00  0.00    +0.000 C 
ATOM     31  C   UNL     1      -5.449  -2.628 126.054  0.00  0.00    +0.000 C 
ATOM     32  C   UNL     1      -6.078  -1.545 125.261  0.00  0.00    +0.000 A 
ATOM     33  C   UNL     1      -6.126  -2.253 123.823  0.00  0.00    +0.000 A 
ATOM     34  C   UNL     1      -6.476  -1.668 122.663  0.00  0.00    +0.000 A 
ATOM     35  C   UNL     1      -6.933  -0.413 123.036  0.00  0.00    +0.000 A 
ATOM     36  C   UNL     1      -6.901   0.322 124.630  0.00  0.00    +0.000 A 
ATOM     37  C   UNL     1      -6.369  -0.191 126.098  0.00  0.00    +0.000 A 
ENDBRANCH  24  27
ENDBRANCH  18  19
ENDBRANCH   4  18
BRANCH   5  38
ATOM     38  O   UNL     1      -5.502   5.424 133.176  0.00  0.00    +0.000 OA
BRANCH  38  39
ATOM     39  C   UNL     1      -4.958   6.207 134.237  0.00  0.00    +0.000 C 
BRANCH  39  40
ATOM     40  C   UNL     1      -3.459   6.285 134.115  0.00  0.00    +0.000 C 
ATOM     41  C   UNL     1      -2.858   6.744 133.009  0.00  0.00    +0.000 C 
ATOM     42  I   UNL     1      -0.833   6.886 132.805  0.00  0.00    +0.000 I 
ENDBRANCH  39  40
ENDBRANCH  38  39
ENDBRANCH   5  38
TORSDOF 9
ENDMDL
MODEL 5
REMARK VINA RESULT:      -9.4      5.376      7.533
REMARK  Name = CHEMBL2017867
REMARK  10 active torsions:
REMARK  status: ('A' for Active; 'I' for Inactive)
REMARK    1  A    between atoms: C_1  and  S_2
REMARK    2  A    between atoms: S_2  and  N_5
REMARK    3  A    between atoms: C_8  and  O_9
REMARK    4  A    between atoms: O_9  and  C_10
REMARK    5  A    between atoms: C_13  and  C_14
REMARK    6  A    between atoms: C_14  and  C_15
REMARK    7  A    between atoms: C_20  and  N_21
REMARK    8  A    between atoms: C_34  and  O_35
REMARK    9  A    between atoms: O_35  and  C_36
REMARK   10  A    between atoms: C_36  and  C_37
REMARK                            x       y       z     vdW  Elec       q    Type
REMARK                         _______ _______ _______ _____ _____    ______ ____
ROOT
ATOM      1  C   UNL     1      -1.328   8.345 133.079  0.00  0.00    +0.000 A 
ATOM      2  C   UNL     1      -0.406   7.430 132.602  0.00  0.00    +0.000 A 
ATOM      3  C   UNL     1      -0.827   6.418 131.704  0.00  0.00    +0.000 A 
ATOM      4  C   UNL     1      -2.198   6.226 131.377  0.00  0.00    +0.000 A 
ATOM      5  C   UNL     1      -3.078   7.212 131.820  0.00  0.00    +0.000 A 
ATOM      6  C   UNL     1      -2.627   8.232 132.631  0.00  0.00    +0.000 A 
ENDROOT
BRANCH   1   7
ATOM      7  O   UNL     1      -0.928   9.460 133.763  0.00  0.00    +0.000 OA
BRANCH   7  11
ATOM      8  N   UNL     1       0.148  12.952 134.129  0.00  0.00    +0.000 NA
ATOM      9  C   UNL     1       0.261  12.174 132.851  0.00  0.00    +0.000 C 
ATOM     10  C   UNL     1      -1.128  11.638 132.456  0.00  0.00    +0.000 C 
ATOM     11  C   UNL     1      -1.676  10.673 133.518  0.00  0.00    +0.000 C 
ATOM     12  C   UNL     1      -1.720  11.453 134.837  0.00  0.00    +0.000 C 
ATOM     13  C   UNL     1      -0.356  12.038 135.197  0.00  0.00    +0.000 C 
BRANCH   8  15
ATOM     14  C   UNL     1       2.501  12.466 135.519  0.00  0.00    +0.000 C 
ATOM     15  S   UNL     1       1.633  13.726 134.572  0.00  0.00    +0.000 S 
ATOM     16  O   UNL     1       1.313  14.820 135.463  0.00  0.00    +0.000 OA
ATOM     17  O   UNL     1       2.370  13.963 133.348  0.00  0.00    +0.000 OA
ENDBRANCH   8  15
ENDBRANCH   7  11
ENDBRANCH   1   7
BRANCH   4  18
ATOM     18  C   UNL     1      -2.638   4.978 130.584  0.00  0.00    +0.000 C 
BRANCH  18  19
ATOM     19  C   UNL     1      -2.748   5.049 129.017  0.00  0.00    +0.000 C 
ATOM     20  O   UNL     1      -2.271   5.904 128.283  0.00  0.00    +0.000 OA
ATOM     21  N   UNL     1      -3.476   4.090 128.332  0.00  0.00    +0.000 N 
ATOM     22  C   UNL     1      -2.925   3.559 127.085  0.00  0.00    +0.000 C 
ATOM     23  C   UNL     1      -3.784   3.769 125.853  0.00  0.00    +0.000 C 
ATOM     24  C   UNL     1      -5.407   2.904 126.058  0.00  0.00    +0.000 C 
ATOM     25  C   UNL     1      -5.774   4.097 127.308  0.00  0.00    +0.000 C 
ATOM     26  C   UNL     1      -4.896   3.911 128.551  0.00  0.00    +0.000 C 
BRANCH  24  27
ATOM     27  N   UNL     1      -5.792   1.015 125.771  0.00  0.00    +0.000 N 
ATOM     28  C   UNL     1      -6.693   2.276 124.929  0.00  0.00    +0.000 C 
ATOM     29  O   UNL     1      -7.408   2.992 124.280  0.00  0.00    +0.000 OA
ATOM     30  C   UNL     1      -7.141   1.105 124.479  0.00  0.00    +0.000 C 
ATOM     31  C   UNL     1      -8.079   0.694 123.556  0.00  0.00    +0.000 C 
ATOM     32  C   UNL     1      -7.684  -0.660 124.009  0.00  0.00    +0.000 A 
ATOM     33  C   UNL     1      -8.681  -1.547 123.119  0.00  0.00    +0.000 A 
ATOM     34  C   UNL     1      -8.866  -2.876 123.223  0.00  0.00    +0.000 A 
ATOM     35  C   UNL     1      -7.897  -3.288 124.124  0.00  0.00    +0.000 A 
ATOM     36  C   UNL     1      -6.792  -2.293 125.058  0.00  0.00    +0.000 A 
ATOM     37  C   UNL     1      -6.550  -0.671 125.163  0.00  0.00    +0.000 A 
ENDBRANCH  24  27
ENDBRANCH  18  19
ENDBRANCH   4  18
BRANCH   5  38
ATOM     38  O   UNL     1      -4.331   7.295 131.308  0.00  0.00    +0.000 OA
BRANCH  38  39
ATOM     39  C   UNL     1      -5.450   6.626 131.887  0.00  0.00    +0.000 C 
BRANCH  39  40
ATOM     40  C   UNL     1      -6.678   6.829 131.039  0.00  0.00    +0.000 C 
ATOM     41  C   UNL     1      -7.897   6.462 131.453  0.00  0.00    +0.000 C 
ATOM     42  I   UNL     1      -9.591   6.734 130.348  0.00  0.00    +0.000 I 
ENDBRANCH  39  40
ENDBRANCH  38  39
ENDBRANCH   5  38
TORSDOF 9
ENDMDL
MODEL 6
REMARK VINA RESULT:      -9.2      2.911      4.562
REMARK  Name = CHEMBL2017867
REMARK  10 active torsions:
REMARK  status: ('A' for Active; 'I' for Inactive)
REMARK    1  A    between atoms: C_1  and  S_2
REMARK    2  A    between atoms: S_2  and  N_5
REMARK    3  A    between atoms: C_8  and  O_9
REMARK    4  A    between atoms: O_9  and  C_10
REMARK    5  A    between atoms: C_13  and  C_14
REMARK    6  A    between atoms: C_14  and  C_15
REMARK    7  A    between atoms: C_20  and  N_21
REMARK    8  A    between atoms: C_34  and  O_35
REMARK    9  A    between atoms: O_35  and  C_36
REMARK   10  A    between atoms: C_36  and  C_37
REMARK                            x       y       z     vdW  Elec       q    Type
REMARK                         _______ _______ _______ _____ _____    ______ ____
ROOT
ATOM      1  C   UNL     1      -8.800   4.011 131.629  0.00  0.00    +0.000 A 
ATOM      2  C   UNL     1      -9.253   3.501 132.834  0.00  0.00    +0.000 A 
ATOM      3  C   UNL     1      -8.361   2.783 133.668  0.00  0.00    +0.000 A 
ATOM      4  C   UNL     1      -7.043   2.450 133.248  0.00  0.00    +0.000 A 
ATOM      5  C   UNL     1      -6.608   3.044 132.065  0.00  0.00    +0.000 A 
ATOM      6  C   UNL     1      -7.475   3.804 131.309  0.00  0.00    +0.000 A 
ENDROOT
BRANCH   1   7
ATOM      7  O   UNL     1      -9.557   4.892 130.906  0.00  0.00    +0.000 OA
BRANCH   7  11
ATOM      8  N   UNL     1     -11.634   7.663 129.687  0.00  0.00    +0.000 NA
ATOM      9  C   UNL     1     -12.121   6.613 130.641  0.00  0.00    +0.000 C 
ATOM     10  C   UNL     1     -11.201   6.580 131.876  0.00  0.00    +0.000 C 
ATOM     11  C   UNL     1      -9.764   6.198 131.490  0.00  0.00    +0.000 C 
ATOM     12  C   UNL     1      -9.299   7.234 130.459  0.00  0.00    +0.000 C 
ATOM     13  C   UNL     1     -10.245   7.312 129.264  0.00  0.00    +0.000 C 
BRANCH   8  15
ATOM     14  C   UNL     1     -11.604   7.760 126.913  0.00  0.00    +0.000 C 
ATOM     15  S   UNL     1     -12.697   7.883 128.337  0.00  0.00    +0.000 S 
ATOM     16  O   UNL     1     -13.214   9.233 128.396  0.00  0.00    +0.000 OA
ATOM     17  O   UNL     1     -13.598   6.749 128.317  0.00  0.00    +0.000 OA
ENDBRANCH   8  15
ENDBRANCH   7  11
ENDBRANCH   1   7
BRANCH   4  18
ATOM     18  C   UNL     1      -6.188   1.475 134.083  0.00  0.00    +0.000 C 
BRANCH  18  19
ATOM     19  C   UNL     1      -6.331  -0.075 133.859  0.00  0.00    +0.000 C 
ATOM     20  O   UNL     1      -6.195  -0.956 134.698  0.00  0.00    +0.000 OA
ATOM     21  N   UNL     1      -6.609  -0.568 132.595  0.00  0.00    +0.000 N 
ATOM     22  C   UNL     1      -7.577  -1.657 132.471  0.00  0.00    +0.000 C 
ATOM     23  C   UNL     1      -7.043  -2.933 131.848  0.00  0.00    +0.000 C 
ATOM     24  C   UNL     1      -6.479  -2.605 130.117  0.00  0.00    +0.000 C 
ATOM     25  C   UNL     1      -5.178  -1.645 130.828  0.00  0.00    +0.000 C 
ATOM     26  C   UNL     1      -5.705  -0.363 131.482  0.00  0.00    +0.000 C 
BRANCH  24  27
ATOM     27  N   UNL     1      -7.574  -2.503 128.508  0.00  0.00    +0.000 N 
ATOM     28  C   UNL     1      -5.813  -2.534 128.422  0.00  0.00    +0.000 C 
ATOM     29  O   UNL     1      -4.636  -2.536 128.174  0.00  0.00    +0.000 OA
ATOM     30  C   UNL     1      -6.268  -2.526 127.170  0.00  0.00    +0.000 C 
ATOM     31  C   UNL     1      -5.703  -2.548 125.912  0.00  0.00    +0.000 C 
ATOM     32  C   UNL     1      -7.112  -2.453 125.463  0.00  0.00    +0.000 A 
ATOM     33  C   UNL     1      -6.888  -2.399 123.876  0.00  0.00    +0.000 A 
ATOM     34  C   UNL     1      -7.836  -2.163 122.950  0.00  0.00    +0.000 A 
ATOM     35  C   UNL     1      -9.022  -2.157 123.667  0.00  0.00    +0.000 A 
ATOM     36  C   UNL     1      -9.238  -2.256 125.406  0.00  0.00    +0.000 A 
ATOM     37  C   UNL     1      -8.191  -2.385 126.666  0.00  0.00    +0.000 A 
ENDBRANCH  24  27
ENDBRANCH  18  19
ENDBRANCH   4  18
BRANCH   5  38
ATOM     38  O   UNL     1      -5.291   3.048 131.742  0.00  0.00    +0.000 OA
BRANCH  38  39
ATOM     39  C   UNL     1      -4.690   4.068 130.947  0.00  0.00    +0.000 C 
BRANCH  39  40
ATOM     40  C   UNL     1      -3.974   3.461 129.768  0.00  0.00    +0.000 C 
ATOM     41  C   UNL     1      -3.527   4.205 128.748  0.00  0.00    +0.000 C 
ATOM     42  I   UNL     1      -2.537   3.431 127.141  0.00  0.00    +0.000 I 
ENDBRANCH  39  40
ENDBRANCH  38  39
ENDBRANCH   5  38
TORSDOF 9
ENDMDL
MODEL 7
REMARK VINA RESULT:      -8.9      2.502      3.659
REMARK  Name = CHEMBL2017867
REMARK  10 active torsions:
REMARK  status: ('A' for Active; 'I' for Inactive)
REMARK    1  A    between atoms: C_1  and  S_2
REMARK    2  A    between atoms: S_2  and  N_5
REMARK    3  A    between atoms: C_8  and  O_9
REMARK    4  A    between atoms: O_9  and  C_10
REMARK    5  A    between atoms: C_13  and  C_14
REMARK    6  A    between atoms: C_14  and  C_15
REMARK    7  A    between atoms: C_20  and  N_21
REMARK    8  A    between atoms: C_34  and  O_35
REMARK    9  A    between atoms: O_35  and  C_36
REMARK   10  A    between atoms: C_36  and  C_37
REMARK                            x       y       z     vdW  Elec       q    Type
REMARK                         _______ _______ _______ _____ _____    ______ ____
ROOT
ATOM      1  C   UNL     1      -8.886   3.859 131.622  0.00  0.00    +0.000 A 
ATOM      2  C   UNL     1      -9.313   2.595 131.991  0.00  0.00    +0.000 A 
ATOM      3  C   UNL     1      -8.478   1.784 132.799  0.00  0.00    +0.000 A 
ATOM      4  C   UNL     1      -7.152   2.173 133.136  0.00  0.00    +0.000 A 
ATOM      5  C   UNL     1      -6.793   3.479 132.807  0.00  0.00    +0.000 A 
ATOM      6  C   UNL     1      -7.656   4.275 132.085  0.00  0.00    +0.000 A 
ENDROOT
BRANCH   1   7
ATOM      7  O   UNL     1      -9.743   4.751 131.037  0.00  0.00    +0.000 OA
BRANCH   7  11
ATOM      8  N   UNL     1     -11.628   7.701 129.930  0.00  0.00    +0.000 NA
ATOM      9  C   UNL     1     -12.184   6.651 130.848  0.00  0.00    +0.000 C 
ATOM     10  C   UNL     1     -11.266   6.510 132.076  0.00  0.00    +0.000 C 
ATOM     11  C   UNL     1      -9.859   6.046 131.669  0.00  0.00    +0.000 C 
ATOM     12  C   UNL     1      -9.326   7.084 130.676  0.00  0.00    +0.000 C 
ATOM     13  C   UNL     1     -10.267   7.271 129.489  0.00  0.00    +0.000 C 
BRANCH   8  15
ATOM     14  C   UNL     1     -11.628   7.777 127.156  0.00  0.00    +0.000 C 
ATOM     15  S   UNL     1     -12.676   8.042 128.594  0.00  0.00    +0.000 S 
ATOM     16  O   UNL     1     -13.021   9.446 128.650  0.00  0.00    +0.000 OA
ATOM     17  O   UNL     1     -13.710   7.028 128.596  0.00  0.00    +0.000 OA
ENDBRANCH   8  15
ENDBRANCH   7  11
ENDBRANCH   1   7
BRANCH   4  18
ATOM     18  C   UNL     1      -6.200   1.168 133.818  0.00  0.00    +0.000 C 
BRANCH  18  19
ATOM     19  C   UNL     1      -5.189   0.337 132.945  0.00  0.00    +0.000 C 
ATOM     20  O   UNL     1      -4.029   0.062 133.223  0.00  0.00    +0.000 OA
ATOM     21  N   UNL     1      -5.577  -0.137 131.703  0.00  0.00    +0.000 N 
ATOM     22  C   UNL     1      -5.185  -1.495 131.325  0.00  0.00    +0.000 C 
ATOM     23  C   UNL     1      -4.329  -1.599 130.076  0.00  0.00    +0.000 C 
ATOM     24  C   UNL     1      -5.261  -0.953 128.615  0.00  0.00    +0.000 C 
ATOM     25  C   UNL     1      -5.122   0.644 129.356  0.00  0.00    +0.000 C 
ATOM     26  C   UNL     1      -5.963   0.757 130.632  0.00  0.00    +0.000 C 
BRANCH  24  27
ATOM     27  N   UNL     1      -6.597  -1.888 127.547  0.00  0.00    +0.000 N 
ATOM     28  C   UNL     1      -5.516  -0.694 126.828  0.00  0.00    +0.000 C 
ATOM     29  O   UNL     1      -4.875   0.087 126.176  0.00  0.00    +0.000 OA
ATOM     30  C   UNL     1      -6.260  -1.195 125.843  0.00  0.00    +0.000 C 
ATOM     31  C   UNL     1      -6.353  -1.005 124.480  0.00  0.00    +0.000 C 
ATOM     32  C   UNL     1      -7.455  -1.989 124.591  0.00  0.00    +0.000 A 
ATOM     33  C   UNL     1      -7.933  -2.035 123.060  0.00  0.00    +0.000 A 
ATOM     34  C   UNL     1      -9.022  -2.670 122.588  0.00  0.00    +0.000 A 
ATOM     35  C   UNL     1      -9.500  -3.385 123.676  0.00  0.00    +0.000 A 
ATOM     36  C   UNL     1      -8.930  -3.343 125.336  0.00  0.00    +0.000 A 
ATOM     37  C   UNL     1      -7.732  -2.513 126.096  0.00  0.00    +0.000 A 
ENDBRANCH  24  27
ENDBRANCH  18  19
ENDBRANCH   4  18
BRANCH   5  38
ATOM     38  O   UNL     1      -5.687   4.045 133.350  0.00  0.00    +0.000 OA
BRANCH  38  39
ATOM     39  C   UNL     1      -4.841   4.940 132.631  0.00  0.00    +0.000 C 
BRANCH  39  40
ATOM     40  C   UNL     1      -4.321   4.279 131.381  0.00  0.00    +0.000 C 
ATOM     41  C   UNL     1      -4.101   4.965 130.253  0.00  0.00    +0.000 C 
ATOM     42  I   UNL     1      -3.380   4.117 128.543  0.00  0.00    +0.000 I 
ENDBRANCH  39  40
ENDBRANCH  38  39
ENDBRANCH   5  38
TORSDOF 9
ENDMDL
MODEL 8
REMARK VINA RESULT:      -8.9      3.178      8.316
REMARK  Name = CHEMBL2017867
REMARK  10 active torsions:
REMARK  status: ('A' for Active; 'I' for Inactive)
REMARK    1  A    between atoms: C_1  and  S_2
REMARK    2  A    between atoms: S_2  and  N_5
REMARK    3  A    between atoms: C_8  and  O_9
REMARK    4  A    between atoms: O_9  and  C_10
REMARK    5  A    between atoms: C_13  and  C_14
REMARK    6  A    between atoms: C_14  and  C_15
REMARK    7  A    between atoms: C_20  and  N_21
REMARK    8  A    between atoms: C_34  and  O_35
REMARK    9  A    between atoms: O_35  and  C_36
REMARK   10  A    between atoms: C_36  and  C_37
REMARK                            x       y       z     vdW  Elec       q    Type
REMARK                         _______ _______ _______ _____ _____    ______ ____
ROOT
ATOM      1  C   UNL     1      -5.384  -0.190 128.962  0.00  0.00    +0.000 A 
ATOM      2  C   UNL     1      -5.454  -0.515 130.305  0.00  0.00    +0.000 A 
ATOM      3  C   UNL     1      -4.931   0.381 131.269  0.00  0.00    +0.000 A 
ATOM      4  C   UNL     1      -4.212   1.550 130.896  0.00  0.00    +0.000 A 
ATOM      5  C   UNL     1      -4.230   1.875 129.541  0.00  0.00    +0.000 A 
ATOM      6  C   UNL     1      -4.814   1.021 128.630  0.00  0.00    +0.000 A 
ENDROOT
BRANCH   1   7
ATOM      7  O   UNL     1      -6.068  -0.913 128.023  0.00  0.00    +0.000 OA
BRANCH   7  11
ATOM      8  N   UNL     1      -8.647  -1.578 125.496  0.00  0.00    +0.000 NA
ATOM      9  C   UNL     1      -7.996  -2.646 126.325  0.00  0.00    +0.000 C 
ATOM     10  C   UNL     1      -8.184  -2.318 127.818  0.00  0.00    +0.000 C 
ATOM     11  C   UNL     1      -7.502  -0.991 128.186  0.00  0.00    +0.000 C 
ATOM     12  C   UNL     1      -8.120   0.083 127.284  0.00  0.00    +0.000 C 
ATOM     13  C   UNL     1      -7.991  -0.273 125.805  0.00  0.00    +0.000 C 
BRANCH   8  15
ATOM     14  C   UNL     1      -7.134  -1.123 123.214  0.00  0.00    +0.000 C 
ATOM     15  S   UNL     1      -8.624  -1.942 123.802  0.00  0.00    +0.000 S 
ATOM     16  O   UNL     1      -9.766  -1.294 123.195  0.00  0.00    +0.000 OA
ATOM     17  O   UNL     1      -8.436  -3.373 123.678  0.00  0.00    +0.000 OA
ENDBRANCH   8  15
ENDBRANCH   7  11
ENDBRANCH   1   7
BRANCH   4  18
ATOM     18  C   UNL     1      -3.463   2.373 131.965  0.00  0.00    +0.000 C 
BRANCH  18  19
ATOM     19  C   UNL     1      -4.044   3.758 132.430  0.00  0.00    +0.000 C 
ATOM     20  O   UNL     1      -3.597   4.488 133.306  0.00  0.00    +0.000 OA
ATOM     21  N   UNL     1      -5.201   4.251 131.852  0.00  0.00    +0.000 N 
ATOM     22  C   UNL     1      -5.262   5.675 131.523  0.00  0.00    +0.000 C 
ATOM     23  C   UNL     1      -6.369   6.454 132.210  0.00  0.00    +0.000 C 
ATOM     24  C   UNL     1      -8.019   5.783 131.709  0.00  0.00    +0.000 C 
ATOM     25  C   UNL     1      -7.596   4.331 132.620  0.00  0.00    +0.000 C 
ATOM     26  C   UNL     1      -6.462   3.546 131.951  0.00  0.00    +0.000 C 
BRANCH  24  27
ATOM     27  N   UNL     1      -9.016   6.172 130.079  0.00  0.00    +0.000 N 
ATOM     28  C   UNL     1      -9.766   6.302 131.670  0.00  0.00    +0.000 C 
ATOM     29  O   UNL     1     -10.437   6.435 132.659  0.00  0.00    +0.000 OA
ATOM     30  C   UNL     1     -10.673   6.688 130.775  0.00  0.00    +0.000 C 
ATOM     31  C   UNL     1     -11.973   7.146 130.819  0.00  0.00    +0.000 C 
ATOM     32  C   UNL     1     -11.843   7.146 129.343  0.00  0.00    +0.000 A 
ATOM     33  C   UNL     1     -13.320   7.628 128.940  0.00  0.00    +0.000 A 
ATOM     34  C   UNL     1     -13.826   7.671 127.693  0.00  0.00    +0.000 A 
ATOM     35  C   UNL     1     -12.747   7.380 126.874  0.00  0.00    +0.000 A 
ATOM     36  C   UNL     1     -11.128   6.891 127.346  0.00  0.00    +0.000 A 
ATOM     37  C   UNL     1     -10.405   6.642 128.801  0.00  0.00    +0.000 A 
ENDBRANCH  24  27
ENDBRANCH  18  19
ENDBRANCH   4  18
BRANCH   5  38
ATOM     38  O   UNL     1      -3.852   3.109 129.125  0.00  0.00    +0.000 OA
BRANCH  38  39
ATOM     39  C   UNL     1      -2.937   3.319 128.051  0.00  0.00    +0.000 C 
BRANCH  39  40
ATOM     40  C   UNL     1      -3.675   3.756 126.812  0.00  0.00    +0.000 C 
ATOM     41  C   UNL     1      -4.957   4.140 126.846  0.00  0.00    +0.000 C 
ATOM     42  I   UNL     1      -5.991   4.757 125.200  0.00  0.00    +0.000 I 
ENDBRANCH  39  40
ENDBRANCH  38  39
ENDBRANCH   5  38
TORSDOF 9
ENDMDL
MODEL 9
REMARK VINA RESULT:      -8.7      3.581      8.559
REMARK  Name = CHEMBL2017867
REMARK  10 active torsions:
REMARK  status: ('A' for Active; 'I' for Inactive)
REMARK    1  A    between atoms: C_1  and  S_2
REMARK    2  A    between atoms: S_2  and  N_5
REMARK    3  A    between atoms: C_8  and  O_9
REMARK    4  A    between atoms: O_9  and  C_10
REMARK    5  A    between atoms: C_13  and  C_14
REMARK    6  A    between atoms: C_14  and  C_15
REMARK    7  A    between atoms: C_20  and  N_21
REMARK    8  A    between atoms: C_34  and  O_35
REMARK    9  A    between atoms: O_35  and  C_36
REMARK   10  A    between atoms: C_36  and  C_37
REMARK                            x       y       z     vdW  Elec       q    Type
REMARK                         _______ _______ _______ _____ _____    ______ ____
ROOT
ATOM      1  C   UNL     1      -6.513   0.114 129.030  0.00  0.00    +0.000 A 
ATOM      2  C   UNL     1      -5.601   1.080 128.642  0.00  0.00    +0.000 A 
ATOM      3  C   UNL     1      -4.672   1.583 129.585  0.00  0.00    +0.000 A 
ATOM      4  C   UNL     1      -4.730   1.225 130.961  0.00  0.00    +0.000 A 
ATOM      5  C   UNL     1      -5.613   0.199 131.291  0.00  0.00    +0.000 A 
ATOM      6  C   UNL     1      -6.454  -0.328 130.335  0.00  0.00    +0.000 A 
ENDROOT
BRANCH   1   7
ATOM      7  O   UNL     1      -7.271  -0.553 128.108  0.00  0.00    +0.000 OA
BRANCH   7  11
ATOM      8  N   UNL     1      -7.828  -2.304 124.929  0.00  0.00    +0.000 NA
ATOM      9  C   UNL     1      -6.660  -1.398 125.189  0.00  0.00    +0.000 C 
ATOM     10  C   UNL     1      -5.898  -1.893 126.432  0.00  0.00    +0.000 C 
ATOM     11  C   UNL     1      -6.785  -1.847 127.685  0.00  0.00    +0.000 C 
ATOM     12  C   UNL     1      -8.011  -2.717 127.385  0.00  0.00    +0.000 C 
ATOM     13  C   UNL     1      -8.732  -2.265 126.117  0.00  0.00    +0.000 C 
BRANCH   8  15
ATOM     14  C   UNL     1      -9.821  -3.276 123.260  0.00  0.00    +0.000 C 
ATOM     15  S   UNL     1      -8.657  -1.919 123.458  0.00  0.00    +0.000 S 
ATOM     16  O   UNL     1      -7.697  -1.987 122.378  0.00  0.00    +0.000 OA
ATOM     17  O   UNL     1      -9.410  -0.706 123.700  0.00  0.00    +0.000 OA
ENDBRANCH   8  15
ENDBRANCH   7  11
ENDBRANCH   1   7
BRANCH   4  18
ATOM     18  C   UNL     1      -3.853   1.967 131.992  0.00  0.00    +0.000 C 
BRANCH  18  19
ATOM     19  C   UNL     1      -4.162   3.469 132.340  0.00  0.00    +0.000 C 
ATOM     20  O   UNL     1      -3.525   4.197 133.091  0.00  0.00    +0.000 OA
ATOM     21  N   UNL     1      -5.276   4.088 131.799  0.00  0.00    +0.000 N 
ATOM     22  C   UNL     1      -5.142   5.463 131.317  0.00  0.00    +0.000 C 
ATOM     23  C   UNL     1      -6.042   6.480 131.993  0.00  0.00    +0.000 C 
ATOM     24  C   UNL     1      -7.817   6.048 131.698  0.00  0.00    +0.000 C 
ATOM     25  C   UNL     1      -7.546   4.643 132.733  0.00  0.00    +0.000 C 
ATOM     26  C   UNL     1      -6.618   3.617 132.073  0.00  0.00    +0.000 C 
BRANCH  24  27
ATOM     27  N   UNL     1      -8.888   6.434 130.116  0.00  0.00    +0.000 N 
ATOM     28  C   UNL     1      -9.609   6.378 131.724  0.00  0.00    +0.000 C 
ATOM     29  O   UNL     1     -10.267   6.373 132.731  0.00  0.00    +0.000 OA
ATOM     30  C   UNL     1     -10.574   6.722 130.872  0.00  0.00    +0.000 C 
ATOM     31  C   UNL     1     -11.914   7.035 130.969  0.00  0.00    +0.000 C 
ATOM     32  C   UNL     1     -11.820   7.146 129.494  0.00  0.00    +0.000 A 
ATOM     33  C   UNL     1     -13.348   7.491 129.150  0.00  0.00    +0.000 A 
ATOM     34  C   UNL     1     -13.886   7.561 127.918  0.00  0.00    +0.000 A 
ATOM     35  C   UNL     1     -12.802   7.442 127.063  0.00  0.00    +0.000 A 
ATOM     36  C   UNL     1     -11.129   7.100 127.473  0.00  0.00    +0.000 A 
ATOM     37  C   UNL     1     -10.349   6.835 128.895  0.00  0.00    +0.000 A 
ENDBRANCH  24  27
ENDBRANCH  18  19
ENDBRANCH   4  18
BRANCH   5  38
ATOM     38  O   UNL     1      -5.523  -0.425 132.493  0.00  0.00    +0.000 OA
BRANCH  38  39
ATOM     39  C   UNL     1      -4.814  -1.647 132.681  0.00  0.00    +0.000 C 
BRANCH  39  40
ATOM     40  C   UNL     1      -5.672  -2.642 133.419  0.00  0.00    +0.000 C 
ATOM     41  C   UNL     1      -5.223  -3.859 133.751  0.00  0.00    +0.000 C 
ATOM     42  I   UNL     1      -6.340  -5.231 134.767  0.00  0.00    +0.000 I 
ENDBRANCH  39  40
ENDBRANCH  38  39
ENDBRANCH   5  38
TORSDOF 9
ENDMDL
