MODEL 1
REMARK VINA RESULT:      -9.7      0.000      0.000
REMARK  Name = CHEMBL2369424
REMARK  24 active torsions:
REMARK  status: ('A' for Active; 'I' for Inactive)
REMARK    1  A    between atoms: CD1_1  and  CG1_2
REMARK    2  A    between atoms: CG1_2  and  CB_3
REMARK    3  A    between atoms: CB_3  and  CG2_4
REMARK    4  A    between atoms: CB_3  and  CA_5
REMARK    5  A    between atoms: CA_9  and  CB_10
REMARK    6  A    between atoms: CB_10  and  CG_11
REMARK    7  A    between atoms: CZ_14  and  OH_15
REMARK    8  A    between atoms: CA_21  and  N_22
REMARK    9  A    between atoms: CA_26  and  C_27
REMARK   10  A    between atoms: CA_33  and  C_34
REMARK   11  A    between atoms: N_36  and  CA_37
REMARK   12  A    between atoms: CA_37  and  CB_38
REMARK   13  A    between atoms: CA_37  and  C_42
REMARK   14  A    between atoms: CB_38  and  CG_39
REMARK   15  A    between atoms: CG_39  and  CD1_40
REMARK   16  A    between atoms: CG_39  and  CD2_41
REMARK   17  A    between atoms: N_44  and  CA_45
REMARK   18  A    between atoms: CA_45  and  C_46
REMARK   19  A    between atoms: C_46  and  OXT_48
REMARK   20  A    between atoms: CA_52  and  CB_53
REMARK   21  A    between atoms: CB_53  and  CG_54
REMARK   22  A    between atoms: CA_60  and  CB_61
REMARK   23  A    between atoms: CB_61  and  CG_62
REMARK   24  A    between atoms: CG_62  and  CD_63
REMARK                            x       y       z     vdW  Elec       q    Type
REMARK                         _______ _______ _______ _____ _____    ______ ____
ROOT
ATOM      1  CA  ILE A   3      -4.784  -0.295 135.637  0.00  0.00    +0.000 C 
ATOM      2  N   ILE A   3      -4.512   1.672 135.531  0.00  0.00    +0.000 N 
ATOM      3  C   TYR A   2      -4.150   3.417 135.093  0.00  0.00    +0.000 C 
ATOM      4  O   TYR A   2      -4.910   4.330 135.561  0.00  0.00    +0.000 OA
ATOM      5  CA  TYR A   2      -2.808   4.522 134.133  0.00  0.00    +0.000 C 
ATOM      6  N   TYR A   2      -2.785   3.538 133.264  0.00  0.00    +0.000 N 
ATOM      7  C   CYS A   1      -4.023   3.514 132.792  0.00  0.00    +0.000 C 
ATOM      8  O   CYS A   1      -3.908   2.343 132.872  0.00  0.00    +0.000 OA
ATOM      9  CA  CYS A   1      -5.384   4.265 132.614  0.00  0.00    +0.000 C 
ATOM     10  CB  CYS A   1      -5.696   4.270 131.107  0.00  0.00    +0.000 C 
ATOM     11  SG  CYS A   6      -7.055   3.257 130.566  0.00  0.00    +0.000 S 
ATOM     12  CB  CYS A   6      -6.691   2.454 128.983  0.00  0.00    +0.000 C 
ATOM     13  CA  CYS A   6      -7.388   1.143 128.614  0.00  0.00    +0.000 C 
ATOM     14  N   CYS A   6      -6.495   0.063 128.814  0.00  0.00    +0.000 N 
ATOM     15  C   ASN A   5      -5.991  -0.177 129.965  0.00  0.00    +0.000 C 
ATOM     16  O   ASN A   5      -5.173  -1.103 129.903  0.00  0.00    +0.000 OA
ATOM     17  CA  ASN A   5      -6.625   0.662 131.282  0.00  0.00    +0.000 C 
ATOM     18  N   ASN A   5      -7.088   0.023 132.534  0.00  0.00    +0.000 N 
ATOM     19  C   GLN A   4      -6.010  -0.262 133.794  0.00  0.00    +0.000 C 
ATOM     20  O   GLN A   4      -6.640  -0.068 134.875  0.00  0.00    +0.000 OA
ATOM     21  CA  GLN A   4      -4.296  -1.472 133.444  0.00  0.00    +0.000 C 
ATOM     22  N   GLN A   4      -3.140  -1.380 134.311  0.00  0.00    +0.000 N 
ATOM     23  C   ILE A   3      -3.536  -1.162 135.591  0.00  0.00    +0.000 C 
ATOM     24  O   ILE A   3      -3.183  -1.876 136.514  0.00  0.00    +0.000 OA
ATOM     25  H   ILE A   3      -4.037   2.080 136.384  0.00  0.00    +0.000 HD
ATOM     26  H   TYR A   2      -2.495   2.638 133.657  0.00  0.00    +0.000 HD
ATOM     27  H   CYS A   6      -6.086  -0.576 128.131  0.00  0.00    +0.000 HD
ATOM     28  H   ASN A   5      -8.105   0.182 132.610  0.00  0.00    +0.000 HD
ATOM     29  H   GLN A   4      -2.877  -0.440 134.032  0.00  0.00    +0.000 HD
ENDROOT
BRANCH  13  30
ATOM     30  C   CYS A   6      -7.782   1.027 127.162  0.00  0.00    +0.000 C 
ATOM     31  O   CYS A   6      -8.906   0.548 126.995  0.00  0.00    +0.000 OA
ATOM     32  N   PRO A   7      -6.958   1.631 126.208  0.00  0.00    +0.000 N 
ATOM     33  CD  PRO A   7      -5.514   1.573 126.138  0.00  0.00    +0.000 C 
ATOM     34  CG  PRO A   7      -5.148   2.924 125.597  0.00  0.00    +0.000 C 
ATOM     35  CB  PRO A   7      -6.154   3.113 124.496  0.00  0.00    +0.000 C 
ATOM     36  CA  PRO A   7      -7.378   2.310 124.937  0.00  0.00    +0.000 C 
BRANCH  36  37
ATOM     37  C   PRO A   7      -7.472   1.378 123.674  0.00  0.00    +0.000 C 
ATOM     38  O   PRO A   7      -6.646   1.502 122.766  0.00  0.00    +0.000 OA
ATOM     39  N   LEU A   8      -8.365   0.287 123.764  0.00  0.00    +0.000 N 
ATOM     40  H   LEU A   8      -9.113   0.264 124.455  0.00  0.00    +0.000 HD
BRANCH  39  41
ATOM     41  CA  LEU A   8      -8.159  -0.988 122.992  0.00  0.00    +0.000 C 
BRANCH  41  42
ATOM     42  C   LEU A   8      -8.834  -2.184 123.752  0.00  0.00    +0.000 C 
ATOM     43  O   LEU A   8      -9.229  -3.175 123.131  0.00  0.00    +0.000 OA
ATOM     44  N   GLY A   9      -8.987  -2.098 125.126  0.00  0.00    +0.000 N 
ATOM     45  H   GLY A   9      -8.680  -1.281 125.653  0.00  0.00    +0.000 HD
BRANCH  44  46
ATOM     46  CA  GLY A   9      -9.595  -3.186 125.922  0.00  0.00    +0.000 C 
BRANCH  46  47
ATOM     47  C   GLY A   9      -8.902  -3.346 127.281  0.00  0.00    +0.000 C 
ATOM     48  O   GLY A   9      -9.155  -4.276 128.039  0.00  0.00    +0.000 OA
BRANCH  47  49
ATOM     49  OXT GLY A   9      -7.987  -2.406 127.617  0.00  0.00    +0.000 OA
ATOM     50  HXT GLY A   9      -8.269  -1.489 127.797  0.00  0.00    +0.000 HD
ENDBRANCH  47  49
ENDBRANCH  46  47
ENDBRANCH  44  46
ENDBRANCH  41  42
BRANCH  41  51
ATOM     51  CB  LEU A   8      -6.668  -1.371 122.720  0.00  0.00    +0.000 C 
BRANCH  51  52
ATOM     52  CG  LEU A   8      -6.060  -2.328 123.739  0.00  0.00    +0.000 C 
ATOM     53  CD1 LEU A   8      -4.886  -3.027 123.162  0.00  0.00    +0.000 C 
ATOM     54  CD2 LEU A   8      -5.358  -1.697 124.893  0.00  0.00    +0.000 C 
ENDBRANCH  51  52
ENDBRANCH  41  51
ENDBRANCH  39  41
ENDBRANCH  36  37
ENDBRANCH  13  30
BRANCH   9  55
ATOM     55  N   CYS A   1      -5.316   5.627 133.110  0.00  0.00    +0.000 NA
ATOM     56  H1  CYS A   1      -5.748   5.655 134.010  0.00  0.00    +0.000 HD
ATOM     57  H2  CYS A   1      -5.957   6.174 132.535  0.00  0.00    +0.000 HD
ENDBRANCH   9  55
BRANCH   1  58
ATOM     58  CB  ILE A   3      -5.775  -2.167 135.149  0.00  0.00    +0.000 C 
ATOM     59  CG2 ILE A   3      -6.513  -3.960 134.973  0.00  0.00    +0.000 C 
BRANCH  58  61
ATOM     60  CD1 ILE A   3      -7.116  -2.171 137.722  0.00  0.00    +0.000 C 
ATOM     61  CG1 ILE A   3      -6.719  -2.993 136.479  0.00  0.00    +0.000 C 
ENDBRANCH  58  61
ENDBRANCH   1  58
BRANCH  17  62
ATOM     62  CB  ASN A   5      -5.462   1.432 131.737  0.00  0.00    +0.000 C 
BRANCH  62  63
ATOM     63  CG  ASN A   5      -4.450   1.112 130.790  0.00  0.00    +0.000 C 
ATOM     64  ND2 ASN A   5      -3.590   0.253 131.554  0.00  0.00    +0.000 N 
ATOM     65  OD1 ASN A   5      -4.126   1.656 129.720  0.00  0.00    +0.000 OA
ATOM     66 HD21 ASN A   5      -3.417   0.120 132.545  0.00  0.00    +0.000 HD
ATOM     67 HD22 ASN A   5      -2.655   0.454 131.795  0.00  0.00    +0.000 HD
ENDBRANCH  62  63
ENDBRANCH  17  62
BRANCH   5  68
ATOM     68  CB  TYR A   2      -2.588   5.549 132.642  0.00  0.00    +0.000 C 
BRANCH  68  69
ATOM     69  CG  TYR A   2      -1.914   6.871 132.809  0.00  0.00    +0.000 A 
ATOM     70  CD1 TYR A   2      -0.541   6.945 133.021  0.00  0.00    +0.000 A 
ATOM     71  CE1 TYR A   2       0.089   8.177 133.190  0.00  0.00    +0.000 A 
ATOM     72  CZ  TYR A   2      -0.670   9.340 133.156  0.00  0.00    +0.000 A 
ATOM     73  CE2 TYR A   2      -2.047   9.278 132.993  0.00  0.00    +0.000 A 
ATOM     74  CD2 TYR A   2      -2.675   8.049 132.821  0.00  0.00    +0.000 A 
BRANCH  72  75
ATOM     75  OH  TYR A   2      -0.130  10.586 133.278  0.00  0.00    +0.000 OA
ATOM     76  HH  TYR A   2      -0.611  11.222 132.727  0.00  0.00    +0.000 HD
ENDBRANCH  72  75
ENDBRANCH  68  69
ENDBRANCH   5  68
BRANCH  21  77
ATOM     77  CB  GLN A   4      -4.343  -2.960 132.392  0.00  0.00    +0.000 C 
BRANCH  77  78
ATOM     78  CG  GLN A   4      -5.660  -3.445 131.878  0.00  0.00    +0.000 C 
BRANCH  78  79
ATOM     79  CD  GLN A   4      -5.877  -4.449 130.844  0.00  0.00    +0.000 C 
ATOM     80  NE2 GLN A   4      -6.510  -3.893 129.810  0.00  0.00    +0.000 N 
ATOM     81  OE1 GLN A   4      -5.437  -5.587 130.900  0.00  0.00    +0.000 OA
ATOM     82 HE21 GLN A   4      -6.799  -2.927 129.851  0.00  0.00    +0.000 HD
ATOM     83 HE22 GLN A   4      -6.648  -4.466 129.009  0.00  0.00    +0.000 HD
ENDBRANCH  78  79
ENDBRANCH  77  78
ENDBRANCH  21  77
TORSDOF 20
ENDMDL
MODEL 2
REMARK VINA RESULT:      -9.0      2.132      7.146
REMARK  Name = CHEMBL2369424
REMARK  24 active torsions:
REMARK  status: ('A' for Active; 'I' for Inactive)
REMARK    1  A    between atoms: CD1_1  and  CG1_2
REMARK    2  A    between atoms: CG1_2  and  CB_3
REMARK    3  A    between atoms: CB_3  and  CG2_4
REMARK    4  A    between atoms: CB_3  and  CA_5
REMARK    5  A    between atoms: CA_9  and  CB_10
REMARK    6  A    between atoms: CB_10  and  CG_11
REMARK    7  A    between atoms: CZ_14  and  OH_15
REMARK    8  A    between atoms: CA_21  and  N_22
REMARK    9  A    between atoms: CA_26  and  C_27
REMARK   10  A    between atoms: CA_33  and  C_34
REMARK   11  A    between atoms: N_36  and  CA_37
REMARK   12  A    between atoms: CA_37  and  CB_38
REMARK   13  A    between atoms: CA_37  and  C_42
REMARK   14  A    between atoms: CB_38  and  CG_39
REMARK   15  A    between atoms: CG_39  and  CD1_40
REMARK   16  A    between atoms: CG_39  and  CD2_41
REMARK   17  A    between atoms: N_44  and  CA_45
REMARK   18  A    between atoms: CA_45  and  C_46
REMARK   19  A    between atoms: C_46  and  OXT_48
REMARK   20  A    between atoms: CA_52  and  CB_53
REMARK   21  A    between atoms: CB_53  and  CG_54
REMARK   22  A    between atoms: CA_60  and  CB_61
REMARK   23  A    between atoms: CB_61  and  CG_62
REMARK   24  A    between atoms: CG_62  and  CD_63
REMARK                            x       y       z     vdW  Elec       q    Type
REMARK                         _______ _______ _______ _____ _____    ______ ____
ROOT
ATOM      1  CA  ILE A   3      -3.767   3.696 135.315  0.00  0.00    +0.000 C 
ATOM      2  N   ILE A   3      -3.659   1.734 135.619  0.00  0.00    +0.000 N 
ATOM      3  C   TYR A   2      -3.879  -0.085 135.724  0.00  0.00    +0.000 C 
ATOM      4  O   TYR A   2      -2.845  -0.828 135.629  0.00  0.00    +0.000 OA
ATOM      5  CA  TYR A   2      -5.276  -1.455 136.063  0.00  0.00    +0.000 C 
ATOM      6  N   TYR A   2      -6.057  -0.672 135.356  0.00  0.00    +0.000 N 
ATOM      7  C   CYS A   1      -5.480  -0.654 134.163  0.00  0.00    +0.000 C 
ATOM      8  O   CYS A   1      -5.733   0.497 134.185  0.00  0.00    +0.000 OA
ATOM      9  CA  CYS A   1      -4.469  -1.325 133.174  0.00  0.00    +0.000 C 
ATOM     10  CB  CYS A   1      -5.243  -1.612 131.876  0.00  0.00    +0.000 C 
ATOM     11  SG  CYS A   6      -4.812  -0.634 130.453  0.00  0.00    +0.000 S 
ATOM     12  CB  CYS A   6      -6.279  -0.196 129.483  0.00  0.00    +0.000 C 
ATOM     13  CA  CYS A   6      -6.270   1.061 128.610  0.00  0.00    +0.000 C 
ATOM     14  N   CYS A   6      -6.989   2.091 129.262  0.00  0.00    +0.000 N 
ATOM     15  C   ASN A   5      -6.636   2.522 130.413  0.00  0.00    +0.000 C 
ATOM     16  O   ASN A   5      -7.444   3.355 130.840  0.00  0.00    +0.000 OA
ATOM     17  CA  ASN A   5      -5.143   2.014 131.009  0.00  0.00    +0.000 C 
ATOM     18  N   ASN A   5      -4.099   2.924 131.529  0.00  0.00    +0.000 N 
ATOM     19  C   GLN A   4      -4.097   3.379 133.150  0.00  0.00    +0.000 C 
ATOM     20  O   GLN A   4      -2.886   3.454 133.515  0.00  0.00    +0.000 OA
ATOM     21  CA  GLN A   4      -5.799   4.368 133.955  0.00  0.00    +0.000 C 
ATOM     22  N   GLN A   4      -6.042   4.370 135.383  0.00  0.00    +0.000 N 
ATOM     23  C   ILE A   3      -4.864   4.443 136.054  0.00  0.00    +0.000 C 
ATOM     24  O   ILE A   3      -4.644   5.302 136.892  0.00  0.00    +0.000 OA
ATOM     25  H   ILE A   3      -3.358   1.473 136.600  0.00  0.00    +0.000 HD
ATOM     26  H   TYR A   2      -6.177   0.267 135.750  0.00  0.00    +0.000 HD
ATOM     27  H   CYS A   6      -7.859   2.548 128.988  0.00  0.00    +0.000 HD
ATOM     28  H   ASN A   5      -3.283   2.857 130.902  0.00  0.00    +0.000 HD
ATOM     29  H   GLN A   4      -6.239   3.376 135.455  0.00  0.00    +0.000 HD
ENDROOT
BRANCH  13  30
ATOM     30  C   CYS A   6      -6.971   0.910 127.283  0.00  0.00    +0.000 C 
ATOM     31  O   CYS A   6      -8.000   0.234 127.345  0.00  0.00    +0.000 OA
ATOM     32  N   PRO A   7      -6.517   1.682 126.209  0.00  0.00    +0.000 N 
ATOM     33  CD  PRO A   7      -5.143   1.896 125.807  0.00  0.00    +0.000 C 
ATOM     34  CG  PRO A   7      -5.160   3.306 125.291  0.00  0.00    +0.000 C 
ATOM     35  CB  PRO A   7      -6.416   3.331 124.465  0.00  0.00    +0.000 C 
ATOM     36  CA  PRO A   7      -7.339   2.303 125.118  0.00  0.00    +0.000 C 
BRANCH  36  37
ATOM     37  C   PRO A   7      -7.566   1.402 123.849  0.00  0.00    +0.000 C 
ATOM     38  O   PRO A   7      -6.880   1.591 122.841  0.00  0.00    +0.000 OA
ATOM     39  N   LEU A   8      -8.388   0.267 124.024  0.00  0.00    +0.000 N 
ATOM     40  H   LEU A   8      -9.031   0.189 124.809  0.00  0.00    +0.000 HD
BRANCH  39  41
ATOM     41  CA  LEU A   8      -8.235  -0.976 123.188  0.00  0.00    +0.000 C 
BRANCH  41  42
ATOM     42  C   LEU A   8      -8.917  -2.190 123.911  0.00  0.00    +0.000 C 
ATOM     43  O   LEU A   8      -9.342  -3.147 123.258  0.00  0.00    +0.000 OA
ATOM     44  N   GLY A   9      -9.041  -2.159 125.291  0.00  0.00    +0.000 N 
ATOM     45  H   GLY A   9      -8.708  -1.370 125.845  0.00  0.00    +0.000 HD
BRANCH  44  46
ATOM     46  CA  GLY A   9      -9.653  -3.269 126.053  0.00  0.00    +0.000 C 
BRANCH  46  47
ATOM     47  C   GLY A   9      -8.931  -3.503 127.386  0.00  0.00    +0.000 C 
ATOM     48  O   GLY A   9      -9.300  -4.353 128.189  0.00  0.00    +0.000 OA
BRANCH  47  49
ATOM     49  OXT GLY A   9      -7.856  -2.723 127.647  0.00  0.00    +0.000 OA
ATOM     50  HXT GLY A   9      -7.806  -1.819 127.282  0.00  0.00    +0.000 HD
ENDBRANCH  47  49
ENDBRANCH  46  47
ENDBRANCH  44  46
ENDBRANCH  41  42
BRANCH  41  51
ATOM     51  CB  LEU A   8      -6.761  -1.379 122.856  0.00  0.00    +0.000 C 
BRANCH  51  52
ATOM     52  CG  LEU A   8      -6.110  -2.306 123.875  0.00  0.00    +0.000 C 
ATOM     53  CD1 LEU A   8      -4.933  -2.989 123.282  0.00  0.00    +0.000 C 
ATOM     54  CD2 LEU A   8      -5.395  -1.642 125.003  0.00  0.00    +0.000 C 
ENDBRANCH  51  52
ENDBRANCH  41  51
ENDBRANCH  39  41
ENDBRANCH  36  37
ENDBRANCH  13  30
BRANCH   9  55
ATOM     55  N   CYS A   1      -3.930  -2.561 133.712  0.00  0.00    +0.000 NA
ATOM     56  H1  CYS A   1      -3.213  -2.330 134.367  0.00  0.00    +0.000 HD
ATOM     57  H2  CYS A   1      -3.409  -3.001 132.953  0.00  0.00    +0.000 HD
ENDBRANCH   9  55
BRANCH   1  58
ATOM     58  CB  ILE A   3      -3.730   5.498 134.100  0.00  0.00    +0.000 C 
ATOM     59  CG2 ILE A   3      -3.739   7.268 133.290  0.00  0.00    +0.000 C 
BRANCH  58  61
ATOM     60  CD1 ILE A   3      -1.603   6.563 135.761  0.00  0.00    +0.000 C 
ATOM     61  CG1 ILE A   3      -2.585   6.831 134.602  0.00  0.00    +0.000 C 
ENDBRANCH  58  61
ENDBRANCH   1  58
BRANCH  17  62
ATOM     62  CB  ASN A   5      -5.535   1.270 132.211  0.00  0.00    +0.000 C 
BRANCH  62  63
ATOM     63  CG  ASN A   5      -6.958   1.299 132.180  0.00  0.00    +0.000 C 
ATOM     64  ND2 ASN A   5      -7.261   2.166 133.282  0.00  0.00    +0.000 N 
ATOM     65  OD1 ASN A   5      -7.781   0.543 131.635  0.00  0.00    +0.000 OA
ATOM     66 HD21 ASN A   5      -6.767   2.446 134.123  0.00  0.00    +0.000 HD
ATOM     67 HD22 ASN A   5      -7.744   1.898 134.100  0.00  0.00    +0.000 HD
ENDBRANCH  62  63
ENDBRANCH  17  62
BRANCH   5  68
ATOM     68  CB  TYR A   2      -6.229  -2.776 135.241  0.00  0.00    +0.000 C 
BRANCH  68  69
ATOM     69  CG  TYR A   2      -7.018  -3.699 136.109  0.00  0.00    +0.000 A 
ATOM     70  CD1 TYR A   2      -6.527  -4.959 136.435  0.00  0.00    +0.000 A 
ATOM     71  CE1 TYR A   2      -7.268  -5.828 137.235  0.00  0.00    +0.000 A 
ATOM     72  CZ  TYR A   2      -8.515  -5.430 137.699  0.00  0.00    +0.000 A 
ATOM     73  CE2 TYR A   2      -9.037  -4.194 137.343  0.00  0.00    +0.000 A 
ATOM     74  CD2 TYR A   2      -8.297  -3.326 136.547  0.00  0.00    +0.000 A 
BRANCH  72  75
ATOM     75  OH  TYR A   2      -9.288  -6.202 138.513  0.00  0.00    +0.000 OA
ATOM     76  HH  TYR A   2      -9.137  -5.977 139.444  0.00  0.00    +0.000 HD
ENDBRANCH  72  75
ENDBRANCH  68  69
ENDBRANCH   5  68
BRANCH  21  77
ATOM     77  CB  GLN A   4      -6.746   5.612 133.019  0.00  0.00    +0.000 C 
BRANCH  77  78
ATOM     78  CG  GLN A   4      -8.218   5.728 133.248  0.00  0.00    +0.000 C 
BRANCH  78  79
ATOM     79  CD  GLN A   4      -9.225   6.135 132.275  0.00  0.00    +0.000 C 
ATOM     80  NE2 GLN A   4      -8.755   5.940 131.042  0.00  0.00    +0.000 N 
ATOM     81  OE1 GLN A   4     -10.355   6.489 132.576  0.00  0.00    +0.000 OA
ATOM     82 HE21 GLN A   4      -7.813   5.605 130.904  0.00  0.00    +0.000 HD
ATOM     83 HE22 GLN A   4      -9.384   6.112 130.291  0.00  0.00    +0.000 HD
ENDBRANCH  78  79
ENDBRANCH  77  78
ENDBRANCH  21  77
TORSDOF 20
ENDMDL
MODEL 3
REMARK VINA RESULT:      -8.9      3.780     11.241
REMARK  Name = CHEMBL2369424
REMARK  24 active torsions:
REMARK  status: ('A' for Active; 'I' for Inactive)
REMARK    1  A    between atoms: CD1_1  and  CG1_2
REMARK    2  A    between atoms: CG1_2  and  CB_3
REMARK    3  A    between atoms: CB_3  and  CG2_4
REMARK    4  A    between atoms: CB_3  and  CA_5
REMARK    5  A    between atoms: CA_9  and  CB_10
REMARK    6  A    between atoms: CB_10  and  CG_11
REMARK    7  A    between atoms: CZ_14  and  OH_15
REMARK    8  A    between atoms: CA_21  and  N_22
REMARK    9  A    between atoms: CA_26  and  C_27
REMARK   10  A    between atoms: CA_33  and  C_34
REMARK   11  A    between atoms: N_36  and  CA_37
REMARK   12  A    between atoms: CA_37  and  CB_38
REMARK   13  A    between atoms: CA_37  and  C_42
REMARK   14  A    between atoms: CB_38  and  CG_39
REMARK   15  A    between atoms: CG_39  and  CD1_40
REMARK   16  A    between atoms: CG_39  and  CD2_41
REMARK   17  A    between atoms: N_44  and  CA_45
REMARK   18  A    between atoms: CA_45  and  C_46
REMARK   19  A    between atoms: C_46  and  OXT_48
REMARK   20  A    between atoms: CA_52  and  CB_53
REMARK   21  A    between atoms: CB_53  and  CG_54
REMARK   22  A    between atoms: CA_60  and  CB_61
REMARK   23  A    between atoms: CB_61  and  CG_62
REMARK   24  A    between atoms: CG_62  and  CD_63
REMARK                            x       y       z     vdW  Elec       q    Type
REMARK                         _______ _______ _______ _____ _____    ______ ____
ROOT
ATOM      1  CA  ILE A   3      -2.922  -4.452 133.576  0.00  0.00    +0.000 C 
ATOM      2  N   ILE A   3      -3.394  -3.974 131.704  0.00  0.00    +0.000 N 
ATOM      3  C   TYR A   2      -4.118  -3.371 130.130  0.00  0.00    +0.000 C 
ATOM      4  O   TYR A   2      -3.326  -2.983 129.207  0.00  0.00    +0.000 OA
ATOM      5  CA  TYR A   2      -5.867  -3.172 129.211  0.00  0.00    +0.000 C 
ATOM      6  N   TYR A   2      -6.323  -2.832 130.394  0.00  0.00    +0.000 N 
ATOM      7  C   CYS A   1      -5.645  -1.732 130.683  0.00  0.00    +0.000 C 
ATOM      8  O   CYS A   1      -5.570  -2.200 131.763  0.00  0.00    +0.000 OA
ATOM      9  CA  CYS A   1      -4.763  -0.548 130.163  0.00  0.00    +0.000 C 
ATOM     10  CB  CYS A   1      -5.449   0.751 130.622  0.00  0.00    +0.000 C 
ATOM     11  SG  CYS A   6      -4.620   1.691 131.885  0.00  0.00    +0.000 S 
ATOM     12  CB  CYS A   6      -5.801   2.398 133.064  0.00  0.00    +0.000 C 
ATOM     13  CA  CYS A   6      -5.354   2.718 134.493  0.00  0.00    +0.000 C 
ATOM     14  N   CYS A   6      -5.823   1.710 135.369  0.00  0.00    +0.000 N 
ATOM     15  C   ASN A   5      -5.484   0.486 135.215  0.00  0.00    +0.000 C 
ATOM     16  O   ASN A   5      -6.070  -0.239 136.028  0.00  0.00    +0.000 OA
ATOM     17  CA  ASN A   5      -4.260   0.152 134.106  0.00  0.00    +0.000 C 
ATOM     18  N   ASN A   5      -3.064  -0.666 134.405  0.00  0.00    +0.000 N 
ATOM     19  C   GLN A   4      -3.103  -2.337 134.201  0.00  0.00    +0.000 C 
ATOM     20  O   GLN A   4      -1.963  -2.687 133.774  0.00  0.00    +0.000 OA
ATOM     21  CA  GLN A   4      -4.538  -3.483 135.273  0.00  0.00    +0.000 C 
ATOM     22  N   GLN A   4      -4.917  -4.804 134.815  0.00  0.00    +0.000 N 
ATOM     23  C   ILE A   3      -3.840  -5.436 134.283  0.00  0.00    +0.000 C 
ATOM     24  O   ILE A   3      -3.478  -6.537 134.661  0.00  0.00    +0.000 OA
ATOM     25  H   ILE A   3      -3.279  -4.774 131.021  0.00  0.00    +0.000 HD
ATOM     26  H   TYR A   2      -6.219  -3.559 131.108  0.00  0.00    +0.000 HD
ATOM     27  H   CYS A   6      -6.500   1.776 136.130  0.00  0.00    +0.000 HD
ATOM     28  H   ASN A   5      -2.239  -0.051 134.339  0.00  0.00    +0.000 HD
ATOM     29  H   GLN A   4      -5.387  -4.489 133.972  0.00  0.00    +0.000 HD
ENDROOT
BRANCH  13  30
ATOM     30  C   CYS A   6      -5.929   3.992 135.061  0.00  0.00    +0.000 C 
ATOM     31  O   CYS A   6      -6.969   4.353 134.504  0.00  0.00    +0.000 OA
ATOM     32  N   PRO A   7      -5.367   4.499 136.236  0.00  0.00    +0.000 N 
ATOM     33  CD  PRO A   7      -3.959   4.636 136.542  0.00  0.00    +0.000 C 
ATOM     34  CG  PRO A   7      -3.910   4.379 138.020  0.00  0.00    +0.000 C 
ATOM     35  CB  PRO A   7      -5.082   5.173 138.525  0.00  0.00    +0.000 C 
ATOM     36  CA  PRO A   7      -6.076   5.193 137.363  0.00  0.00    +0.000 C 
BRANCH  36  37
ATOM     37  C   PRO A   7      -6.193   6.755 137.225  0.00  0.00    +0.000 C 
ATOM     38  O   PRO A   7      -7.123   7.239 136.575  0.00  0.00    +0.000 OA
ATOM     39  N   LEU A   8      -5.350   7.523 138.060  0.00  0.00    +0.000 N 
ATOM     40  H   LEU A   8      -4.520   7.124 138.494  0.00  0.00    +0.000 HD
BRANCH  39  41
ATOM     41  CA  LEU A   8      -5.717   8.909 138.519  0.00  0.00    +0.000 C 
BRANCH  41  42
ATOM     42  C   LEU A   8      -7.211   8.933 138.996  0.00  0.00    +0.000 C 
ATOM     43  O   LEU A   8      -7.551   8.331 140.018  0.00  0.00    +0.000 OA
ATOM     44  N   GLY A   9      -8.140   9.631 138.240  0.00  0.00    +0.000 N 
ATOM     45  H   GLY A   9      -7.880  10.122 137.385  0.00  0.00    +0.000 HD
BRANCH  44  46
ATOM     46  CA  GLY A   9      -9.565   9.721 138.626  0.00  0.00    +0.000 C 
BRANCH  46  47
ATOM     47  C   GLY A   9     -10.468   8.997 137.620  0.00  0.00    +0.000 C 
ATOM     48  O   GLY A   9     -11.647   8.755 137.856  0.00  0.00    +0.000 OA
BRANCH  47  49
ATOM     49  OXT GLY A   9      -9.907   8.630 136.444  0.00  0.00    +0.000 OA
ATOM     50  HXT GLY A   9      -9.261   9.215 136.005  0.00  0.00    +0.000 HD
ENDBRANCH  47  49
ENDBRANCH  46  47
ENDBRANCH  44  46
ENDBRANCH  41  42
BRANCH  41  51
ATOM     51  CB  LEU A   8      -5.534  10.036 137.451  0.00  0.00    +0.000 C 
BRANCH  51  52
ATOM     52  CG  LEU A   8      -4.181  10.737 137.491  0.00  0.00    +0.000 C 
ATOM     53  CD1 LEU A   8      -3.343  10.192 138.587  0.00  0.00    +0.000 C 
ATOM     54  CD2 LEU A   8      -3.249  10.427 136.368  0.00  0.00    +0.000 C 
ENDBRANCH  51  52
ENDBRANCH  41  51
ENDBRANCH  39  41
ENDBRANCH  36  37
ENDBRANCH  13  30
BRANCH   9  55
ATOM     55  N   CYS A   1      -4.646  -0.560 128.716  0.00  0.00    +0.000 NA
ATOM     56  H1  CYS A   1      -3.695  -0.372 128.478  0.00  0.00    +0.000 HD
ATOM     57  H2  CYS A   1      -5.131   0.273 128.382  0.00  0.00    +0.000 HD
ENDBRANCH   9  55
BRANCH   1  58
ATOM     58  CB  ILE A   3      -2.264  -4.026 135.603  0.00  0.00    +0.000 C 
ATOM     59  CG2 ILE A   3      -1.588  -3.955 137.428  0.00  0.00    +0.000 C 
BRANCH  58  61
ATOM     60  CD1 ILE A   3       0.616  -3.899 135.273  0.00  0.00    +0.000 C 
ATOM     61  CG1 ILE A   3      -0.562  -4.513 136.057  0.00  0.00    +0.000 C 
ENDBRANCH  58  61
ENDBRANCH   1  58
BRANCH  17  62
ATOM     62  CB  ASN A   5      -4.964  -0.675 133.119  0.00  0.00    +0.000 C 
BRANCH  62  63
ATOM     63  CG  ASN A   5      -6.312  -0.678 133.578  0.00  0.00    +0.000 C 
ATOM     64  ND2 ASN A   5      -6.471  -2.034 134.021  0.00  0.00    +0.000 N 
ATOM     65  OD1 ASN A   5      -7.253   0.104 133.360  0.00  0.00    +0.000 OA
ATOM     66 HD21 ASN A   5      -6.006  -2.910 133.807  0.00  0.00    +0.000 HD
ATOM     67 HD22 ASN A   5      -7.090  -2.692 133.624  0.00  0.00    +0.000 HD
ENDBRANCH  62  63
ENDBRANCH  17  62
BRANCH   5  68
ATOM     68  CB  TYR A   2      -7.059  -1.916 128.636  0.00  0.00    +0.000 C 
BRANCH  68  69
ATOM     69  CG  TYR A   2      -7.792  -2.193 127.365  0.00  0.00    +0.000 A 
ATOM     70  CD1 TYR A   2      -7.527  -1.452 126.218  0.00  0.00    +0.000 A 
ATOM     71  CE1 TYR A   2      -8.220  -1.700 125.033  0.00  0.00    +0.000 A 
ATOM     72  CZ  TYR A   2      -9.194  -2.690 125.008  0.00  0.00    +0.000 A 
ATOM     73  CE2 TYR A   2      -9.502  -3.404 126.158  0.00  0.00    +0.000 A 
ATOM     74  CD2 TYR A   2      -8.808  -3.159 127.339  0.00  0.00    +0.000 A 
BRANCH  72  75
ATOM     75  OH  TYR A   2      -9.892  -3.019 123.886  0.00  0.00    +0.000 OA
ATOM     76  HH  TYR A   2      -9.539  -3.830 123.488  0.00  0.00    +0.000 HD
ENDBRANCH  72  75
ENDBRANCH  68  69
ENDBRANCH   5  68
BRANCH  21  77
ATOM     77  CB  GLN A   4      -5.003  -3.112 136.996  0.00  0.00    +0.000 C 
BRANCH  77  78
ATOM     78  CG  GLN A   4      -6.364  -3.493 137.480  0.00  0.00    +0.000 C 
BRANCH  78  79
ATOM     79  CD  GLN A   4      -7.589  -2.716 137.346  0.00  0.00    +0.000 C 
ATOM     80  NE2 GLN A   4      -7.635  -1.788 138.304  0.00  0.00    +0.000 N 
ATOM     81  OE1 GLN A   4      -8.377  -2.846 136.422  0.00  0.00    +0.000 OA
ATOM     82 HE21 GLN A   4      -6.907  -1.743 139.002  0.00  0.00    +0.000 HD
ATOM     83 HE22 GLN A   4      -8.393  -1.146 138.269  0.00  0.00    +0.000 HD
ENDBRANCH  78  79
ENDBRANCH  77  78
ENDBRANCH  21  77
TORSDOF 20
ENDMDL
MODEL 4
REMARK VINA RESULT:      -8.8      3.565     12.108
REMARK  Name = CHEMBL2369424
REMARK  24 active torsions:
REMARK  status: ('A' for Active; 'I' for Inactive)
REMARK    1  A    between atoms: CD1_1  and  CG1_2
REMARK    2  A    between atoms: CG1_2  and  CB_3
REMARK    3  A    between atoms: CB_3  and  CG2_4
REMARK    4  A    between atoms: CB_3  and  CA_5
REMARK    5  A    between atoms: CA_9  and  CB_10
REMARK    6  A    between atoms: CB_10  and  CG_11
REMARK    7  A    between atoms: CZ_14  and  OH_15
REMARK    8  A    between atoms: CA_21  and  N_22
REMARK    9  A    between atoms: CA_26  and  C_27
REMARK   10  A    between atoms: CA_33  and  C_34
REMARK   11  A    between atoms: N_36  and  CA_37
REMARK   12  A    between atoms: CA_37  and  CB_38
REMARK   13  A    between atoms: CA_37  and  C_42
REMARK   14  A    between atoms: CB_38  and  CG_39
REMARK   15  A    between atoms: CG_39  and  CD1_40
REMARK   16  A    between atoms: CG_39  and  CD2_41
REMARK   17  A    between atoms: N_44  and  CA_45
REMARK   18  A    between atoms: CA_45  and  C_46
REMARK   19  A    between atoms: C_46  and  OXT_48
REMARK   20  A    between atoms: CA_52  and  CB_53
REMARK   21  A    between atoms: CB_53  and  CG_54
REMARK   22  A    between atoms: CA_60  and  CB_61
REMARK   23  A    between atoms: CB_61  and  CG_62
REMARK   24  A    between atoms: CG_62  and  CD_63
REMARK                            x       y       z     vdW  Elec       q    Type
REMARK                         _______ _______ _______ _____ _____    ______ ____
ROOT
ATOM      1  CA  ILE A   3      -6.506  -0.007 130.980  0.00  0.00    +0.000 C 
ATOM      2  N   ILE A   3      -6.123   0.318 129.056  0.00  0.00    +0.000 N 
ATOM      3  C   TYR A   2      -5.868   0.960 127.356  0.00  0.00    +0.000 C 
ATOM      4  O   TYR A   2      -4.899   0.491 126.669  0.00  0.00    +0.000 OA
ATOM      5  CA  TYR A   2      -6.697   2.178 126.025  0.00  0.00    +0.000 C 
ATOM      6  N   TYR A   2      -6.958   2.947 127.057  0.00  0.00    +0.000 N 
ATOM      7  C   CYS A   1      -5.757   3.259 127.522  0.00  0.00    +0.000 C 
ATOM      8  O   CYS A   1      -6.248   3.082 128.580  0.00  0.00    +0.000 OA
ATOM      9  CA  CYS A   1      -4.217   3.337 127.257  0.00  0.00    +0.000 C 
ATOM     10  CB  CYS A   1      -3.791   4.788 127.542  0.00  0.00    +0.000 C 
ATOM     11  SG  CYS A   6      -2.786   5.059 128.985  0.00  0.00    +0.000 S 
ATOM     12  CB  CYS A   6      -3.249   6.592 129.834  0.00  0.00    +0.000 C 
ATOM     13  CA  CYS A   6      -2.979   6.747 131.332  0.00  0.00    +0.000 C 
ATOM     14  N   CYS A   6      -4.185   6.556 132.049  0.00  0.00    +0.000 N 
ATOM     15  C   ASN A   5      -4.837   5.459 131.972  0.00  0.00    +0.000 C 
ATOM     16  O   ASN A   5      -5.900   5.532 132.601  0.00  0.00    +0.000 OA
ATOM     17  CA  ASN A   5      -4.085   4.159 131.206  0.00  0.00    +0.000 C 
ATOM     18  N   ASN A   5      -3.961   2.805 131.790  0.00  0.00    +0.000 N 
ATOM     19  C   GLN A   4      -5.179   1.666 131.564  0.00  0.00    +0.000 C 
ATOM     20  O   GLN A   4      -4.616   0.538 131.436  0.00  0.00    +0.000 OA
ATOM     21  CA  GLN A   4      -7.153   2.108 132.222  0.00  0.00    +0.000 C 
ATOM     22  N   GLN A   4      -8.289   1.402 131.667  0.00  0.00    +0.000 N 
ATOM     23  C   ILE A   3      -7.956   0.109 131.419  0.00  0.00    +0.000 C 
ATOM     24  O   ILE A   3      -8.599  -0.827 131.864  0.00  0.00    +0.000 OA
ATOM     25  H   ILE A   3      -6.514  -0.428 128.415  0.00  0.00    +0.000 HD
ATOM     26  H   TYR A   2      -7.554   2.508 127.766  0.00  0.00    +0.000 HD
ATOM     27  H   CYS A   6      -4.716   7.221 132.613  0.00  0.00    +0.000 HD
ATOM     28  H   ASN A   5      -2.958   2.620 131.944  0.00  0.00    +0.000 HD
ATOM     29  H   GLN A   4      -8.212   1.799 130.736  0.00  0.00    +0.000 HD
ENDROOT
BRANCH  13  30
ATOM     30  C   CYS A   6      -2.519   8.121 131.751  0.00  0.00    +0.000 C 
ATOM     31  O   CYS A   6      -3.231   9.030 131.318  0.00  0.00    +0.000 OA
ATOM     32  N   PRO A   7      -1.503   8.210 132.707  0.00  0.00    +0.000 N 
ATOM     33  CD  PRO A   7      -0.271   7.451 132.746  0.00  0.00    +0.000 C 
ATOM     34  CG  PRO A   7      -0.032   7.276 134.218  0.00  0.00    +0.000 C 
ATOM     35  CB  PRO A   7      -0.331   8.646 134.758  0.00  0.00    +0.000 C 
ATOM     36  CA  PRO A   7      -1.358   9.237 133.792  0.00  0.00    +0.000 C 
BRANCH  36  37
ATOM     37  C   PRO A   7      -0.545  10.524 133.399  0.00  0.00    +0.000 C 
ATOM     38  O   PRO A   7      -1.029  11.325 132.596  0.00  0.00    +0.000 OA
ATOM     39  N   LEU A   8       0.600  10.805 134.178  0.00  0.00    +0.000 N 
ATOM     40  H   LEU A   8       1.048  10.090 134.746  0.00  0.00    +0.000 HD
BRANCH  39  41
ATOM     41  CA  LEU A   8       1.117  12.205 134.375  0.00  0.00    +0.000 C 
BRANCH  41  42
ATOM     42  C   LEU A   8       2.575  12.157 134.953  0.00  0.00    +0.000 C 
ATOM     43  O   LEU A   8       3.470  12.839 134.445  0.00  0.00    +0.000 OA
ATOM     44  N   GLY A   9       2.836  11.328 136.031  0.00  0.00    +0.000 N 
ATOM     45  H   GLY A   9       2.112  10.748 136.454  0.00  0.00    +0.000 HD
BRANCH  44  46
ATOM     46  CA  GLY A   9       4.176  11.236 136.650  0.00  0.00    +0.000 C 
BRANCH  46  47
ATOM     47  C   GLY A   9       4.154  10.374 137.918  0.00  0.00    +0.000 C 
ATOM     48  O   GLY A   9       4.215  10.862 139.042  0.00  0.00    +0.000 OA
BRANCH  47  49
ATOM     49  OXT GLY A   9       4.065   9.034 137.748  0.00  0.00    +0.000 OA
ATOM     50  HXT GLY A   9       3.762   8.667 136.896  0.00  0.00    +0.000 HD
ENDBRANCH  47  49
ENDBRANCH  46  47
ENDBRANCH  44  46
ENDBRANCH  41  42
BRANCH  41  51
ATOM     51  CB  LEU A   8       0.255  13.108 135.316  0.00  0.00    +0.000 C 
BRANCH  51  52
ATOM     52  CG  LEU A   8      -0.557  12.349 136.358  0.00  0.00    +0.000 C 
ATOM     53  CD1 LEU A   8      -0.409  12.976 137.695  0.00  0.00    +0.000 C 
ATOM     54  CD2 LEU A   8      -2.040  12.476 136.253  0.00  0.00    +0.000 C 
ENDBRANCH  51  52
ENDBRANCH  41  51
ENDBRANCH  39  41
ENDBRANCH  36  37
ENDBRANCH  13  30
BRANCH   9  55
ATOM     55  N   CYS A   1      -3.888   2.985 125.887  0.00  0.00    +0.000 NA
ATOM     56  H1  CYS A   1      -4.169   2.040 125.731  0.00  0.00    +0.000 HD
ATOM     57  H2  CYS A   1      -2.870   2.928 125.842  0.00  0.00    +0.000 HD
ENDBRANCH   9  55
BRANCH   1  58
ATOM     58  CB  ILE A   3      -6.129   0.175 133.113  0.00  0.00    +0.000 C 
ATOM     59  CG2 ILE A   3      -6.006   0.101 135.054  0.00  0.00    +0.000 C 
BRANCH  58  61
ATOM     60  CD1 ILE A   3      -5.809  -2.703 133.294  0.00  0.00    +0.000 C 
ATOM     61  CG1 ILE A   3      -5.711  -1.350 134.029  0.00  0.00    +0.000 C 
ENDBRANCH  58  61
ENDBRANCH   1  58
BRANCH  17  62
ATOM     62  CB  ASN A   5      -4.975   3.926 130.064  0.00  0.00    +0.000 C 
BRANCH  62  63
ATOM     63  CG  ASN A   5      -5.941   4.966 130.166  0.00  0.00    +0.000 C 
ATOM     64  ND2 ASN A   5      -7.130   4.234 130.498  0.00  0.00    +0.000 N 
ATOM     65  OD1 ASN A   5      -5.931   6.137 129.750  0.00  0.00    +0.000 OA
ATOM     66 HD21 ASN A   5      -7.432   3.274 130.373  0.00  0.00    +0.000 HD
ATOM     67 HD22 ASN A   5      -7.935   4.171 129.932  0.00  0.00    +0.000 HD
ENDBRANCH  62  63
ENDBRANCH  17  62
BRANCH   5  68
ATOM     68  CB  TYR A   2      -6.446   3.776 125.180  0.00  0.00    +0.000 C 
BRANCH  68  69
ATOM     69  CG  TYR A   2      -6.512   3.786 123.689  0.00  0.00    +0.000 A 
ATOM     70  CD1 TYR A   2      -5.435   4.241 122.935  0.00  0.00    +0.000 A 
ATOM     71  CE1 TYR A   2      -5.499   4.263 121.542  0.00  0.00    +0.000 A 
ATOM     72  CZ  TYR A   2      -6.658   3.835 120.907  0.00  0.00    +0.000 A 
ATOM     73  CE2 TYR A   2      -7.757   3.423 121.648  0.00  0.00    +0.000 A 
ATOM     74  CD2 TYR A   2      -7.692   3.398 123.038  0.00  0.00    +0.000 A 
BRANCH  72  75
ATOM     75  OH  TYR A   2      -6.792   3.792 119.551  0.00  0.00    +0.000 OA
ATOM     76  HH  TYR A   2      -7.417   4.469 119.247  0.00  0.00    +0.000 HD
ENDBRANCH  72  75
ENDBRANCH  68  69
ENDBRANCH   5  68
BRANCH  21  77
ATOM     77  CB  GLN A   4      -7.493   3.000 133.774  0.00  0.00    +0.000 C 
BRANCH  77  78
ATOM     78  CG  GLN A   4      -8.801   3.705 133.936  0.00  0.00    +0.000 C 
BRANCH  78  79
ATOM     79  CD  GLN A   4      -9.282   4.842 133.161  0.00  0.00    +0.000 C 
ATOM     80  NE2 GLN A   4     -10.136   4.416 132.229  0.00  0.00    +0.000 N 
ATOM     81  OE1 GLN A   4      -9.011   6.004 133.423  0.00  0.00    +0.000 OA
ATOM     82 HE21 GLN A   4     -10.319   3.429 132.121  0.00  0.00    +0.000 HD
ATOM     83 HE22 GLN A   4     -10.589   5.114 131.685  0.00  0.00    +0.000 HD
ENDBRANCH  78  79
ENDBRANCH  77  78
ENDBRANCH  21  77
TORSDOF 20
ENDMDL
MODEL 5
REMARK VINA RESULT:      -8.8      2.735     11.990
REMARK  Name = CHEMBL2369424
REMARK  24 active torsions:
REMARK  status: ('A' for Active; 'I' for Inactive)
REMARK    1  A    between atoms: CD1_1  and  CG1_2
REMARK    2  A    between atoms: CG1_2  and  CB_3
REMARK    3  A    between atoms: CB_3  and  CG2_4
REMARK    4  A    between atoms: CB_3  and  CA_5
REMARK    5  A    between atoms: CA_9  and  CB_10
REMARK    6  A    between atoms: CB_10  and  CG_11
REMARK    7  A    between atoms: CZ_14  and  OH_15
REMARK    8  A    between atoms: CA_21  and  N_22
REMARK    9  A    between atoms: CA_26  and  C_27
REMARK   10  A    between atoms: CA_33  and  C_34
REMARK   11  A    between atoms: N_36  and  CA_37
REMARK   12  A    between atoms: CA_37  and  CB_38
REMARK   13  A    between atoms: CA_37  and  C_42
REMARK   14  A    between atoms: CB_38  and  CG_39
REMARK   15  A    between atoms: CG_39  and  CD1_40
REMARK   16  A    between atoms: CG_39  and  CD2_41
REMARK   17  A    between atoms: N_44  and  CA_45
REMARK   18  A    between atoms: CA_45  and  C_46
REMARK   19  A    between atoms: C_46  and  OXT_48
REMARK   20  A    between atoms: CA_52  and  CB_53
REMARK   21  A    between atoms: CB_53  and  CG_54
REMARK   22  A    between atoms: CA_60  and  CB_61
REMARK   23  A    between atoms: CB_61  and  CG_62
REMARK   24  A    between atoms: CG_62  and  CD_63
REMARK                            x       y       z     vdW  Elec       q    Type
REMARK                         _______ _______ _______ _____ _____    ______ ____
ROOT
ATOM      1  CA  ILE A   3      -8.283  -0.474 125.347  0.00  0.00    +0.000 C 
ATOM      2  N   ILE A   3      -8.039  -1.511 127.026  0.00  0.00    +0.000 N 
ATOM      3  C   TYR A   2      -7.513  -2.266 128.613  0.00  0.00    +0.000 C 
ATOM      4  O   TYR A   2      -8.415  -2.608 129.451  0.00  0.00    +0.000 OA
ATOM      5  CA  TYR A   2      -5.885  -2.898 129.559  0.00  0.00    +0.000 C 
ATOM      6  N   TYR A   2      -5.307  -1.843 129.033  0.00  0.00    +0.000 N 
ATOM      7  C   CYS A   1      -5.976  -0.829 129.558  0.00  0.00    +0.000 C 
ATOM      8  O   CYS A   1      -5.916  -0.376 128.471  0.00  0.00    +0.000 OA
ATOM      9  CA  CYS A   1      -6.941  -0.322 130.682  0.00  0.00    +0.000 C 
ATOM     10  CB  CYS A   1      -6.241   0.866 131.366  0.00  0.00    +0.000 C 
ATOM     11  SG  CYS A   6      -6.946   2.477 131.091  0.00  0.00    +0.000 S 
ATOM     12  CB  CYS A   6      -5.658   3.737 130.901  0.00  0.00    +0.000 C 
ATOM     13  CA  CYS A   6      -5.948   5.012 130.105  0.00  0.00    +0.000 C 
ATOM     14  N   CYS A   6      -5.357   4.908 128.822  0.00  0.00    +0.000 N 
ATOM     15  C   ASN A   5      -5.679   3.970 128.016  0.00  0.00    +0.000 C 
ATOM     16  O   ASN A   5      -4.987   4.010 126.992  0.00  0.00    +0.000 OA
ATOM     17  CA  ASN A   5      -7.013   3.020 128.420  0.00  0.00    +0.000 C 
ATOM     18  N   ASN A   5      -8.146   2.742 127.510  0.00  0.00    +0.000 N 
ATOM     19  C   GLN A   4      -8.087   1.433 126.454  0.00  0.00    +0.000 C 
ATOM     20  O   GLN A   4      -9.259   0.956 126.386  0.00  0.00    +0.000 OA
ATOM     21  CA  GLN A   4      -6.510   1.313 125.032  0.00  0.00    +0.000 C 
ATOM     22  N   GLN A   4      -6.153   0.042 124.435  0.00  0.00    +0.000 N 
ATOM     23  C   ILE A   3      -7.266  -0.710 124.242  0.00  0.00    +0.000 C 
ATOM     24  O   ILE A   3      -7.555  -1.181 123.155  0.00  0.00    +0.000 OA
ATOM     25  H   ILE A   3      -8.210  -2.550 126.910  0.00  0.00    +0.000 HD
ATOM     26  H   TYR A   2      -5.311  -1.831 128.008  0.00  0.00    +0.000 HD
ATOM     27  H   CYS A   6      -4.600   5.456 128.411  0.00  0.00    +0.000 HD
ATOM     28  H   ASN A   5      -8.989   3.175 127.917  0.00  0.00    +0.000 HD
ATOM     29  H   GLN A   4      -5.789  -0.372 125.287  0.00  0.00    +0.000 HD
ENDROOT
BRANCH  13  30
ATOM     30  C   CYS A   6      -5.345   6.267 130.684  0.00  0.00    +0.000 C 
ATOM     31  O   CYS A   6      -6.141   7.206 130.755  0.00  0.00    +0.000 OA
ATOM     32  N   PRO A   7      -4.067   6.183 131.245  0.00  0.00    +0.000 N 
ATOM     33  CD  PRO A   7      -2.909   5.519 130.685  0.00  0.00    +0.000 C 
ATOM     34  CG  PRO A   7      -2.197   5.002 131.901  0.00  0.00    +0.000 C 
ATOM     35  CB  PRO A   7      -2.270   6.173 132.839  0.00  0.00    +0.000 C 
ATOM     36  CA  PRO A   7      -3.547   6.917 132.446  0.00  0.00    +0.000 C 
BRANCH  36  37
ATOM     37  C   PRO A   7      -2.884   8.312 132.150  0.00  0.00    +0.000 C 
ATOM     38  O   PRO A   7      -3.125   8.884 131.085  0.00  0.00    +0.000 OA
ATOM     39  N   LEU A   8      -2.231   8.938 133.235  0.00  0.00    +0.000 N 
ATOM     40  H   LEU A   8      -1.939   8.415 134.059  0.00  0.00    +0.000 HD
BRANCH  39  41
ATOM     41  CA  LEU A   8      -2.096  10.434 133.339  0.00  0.00    +0.000 C 
BRANCH  41  42
ATOM     42  C   LEU A   8      -0.587  10.842 133.202  0.00  0.00    +0.000 C 
ATOM     43  O   LEU A   8       0.306  10.031 133.463  0.00  0.00    +0.000 OA
ATOM     44  N   GLY A   9      -0.281  12.131 132.795  0.00  0.00    +0.000 N 
ATOM     45  H   GLY A   9      -1.006  12.818 132.589  0.00  0.00    +0.000 HD
BRANCH  44  46
ATOM     46  CA  GLY A   9       1.113  12.593 132.621  0.00  0.00    +0.000 C 
BRANCH  46  47
ATOM     47  C   GLY A   9       1.580  13.437 133.814  0.00  0.00    +0.000 C 
ATOM     48  O   GLY A   9       1.020  13.393 134.904  0.00  0.00    +0.000 OA
BRANCH  47  49
ATOM     49  OXT GLY A   9       2.649  14.243 133.615  0.00  0.00    +0.000 OA
ATOM     50  HXT GLY A   9       3.258  14.440 134.352  0.00  0.00    +0.000 HD
ENDBRANCH  47  49
ENDBRANCH  46  47
ENDBRANCH  44  46
ENDBRANCH  41  42
BRANCH  41  51
ATOM     51  CB  LEU A   8      -2.647  11.064 134.660  0.00  0.00    +0.000 C 
BRANCH  51  52
ATOM     52  CG  LEU A   8      -2.693  10.112 135.849  0.00  0.00    +0.000 C 
ATOM     53  CD1 LEU A   8      -1.720  10.527 136.889  0.00  0.00    +0.000 C 
ATOM     54  CD2 LEU A   8      -3.919  10.180 136.696  0.00  0.00    +0.000 C 
ENDBRANCH  51  52
ENDBRANCH  41  51
ENDBRANCH  39  41
ENDBRANCH  36  37
ENDBRANCH  13  30
BRANCH   9  55
ATOM     55  N   CYS A   1      -7.221  -1.359 131.658  0.00  0.00    +0.000 NA
ATOM     56  H1  CYS A   1      -8.202  -1.354 131.847  0.00  0.00    +0.000 HD
ATOM     57  H2  CYS A   1      -6.820  -1.039 132.540  0.00  0.00    +0.000 HD
ENDBRANCH   9  55
BRANCH   1  58
ATOM     58  CB  ILE A   3      -8.718   1.316 124.193  0.00  0.00    +0.000 C 
ATOM     59  CG2 ILE A   3      -9.080   2.728 122.902  0.00  0.00    +0.000 C 
BRANCH  58  61
ATOM     60  CD1 ILE A   3     -10.455  -0.171 122.407  0.00  0.00    +0.000 C 
ATOM     61  CG1 ILE A   3     -10.058   1.215 122.954  0.00  0.00    +0.000 C 
ENDBRANCH  58  61
ENDBRANCH   1  58
BRANCH  17  62
ATOM     62  CB  ASN A   5      -6.403   1.695 128.574  0.00  0.00    +0.000 C 
BRANCH  62  63
ATOM     63  CG  ASN A   5      -5.013   1.936 128.392  0.00  0.00    +0.000 C 
ATOM     64  ND2 ASN A   5      -4.765   1.303 127.128  0.00  0.00    +0.000 N 
ATOM     65  OD1 ASN A   5      -4.125   2.262 129.199  0.00  0.00    +0.000 OA
ATOM     66 HD21 ASN A   5      -5.226   0.571 126.597  0.00  0.00    +0.000 HD
ATOM     67 HD22 ASN A   5      -4.178   0.523 126.989  0.00  0.00    +0.000 HD
ENDBRANCH  62  63
ENDBRANCH  17  62
BRANCH   5  68
ATOM     68  CB  TYR A   2      -4.799  -2.513 130.973  0.00  0.00    +0.000 C 
BRANCH  68  69
ATOM     69  CG  TYR A   2      -4.584  -3.585 131.989  0.00  0.00    +0.000 A 
ATOM     70  CD1 TYR A   2      -5.637  -4.399 132.395  0.00  0.00    +0.000 A 
ATOM     71  CE1 TYR A   2      -5.441  -5.393 133.353  0.00  0.00    +0.000 A 
ATOM     72  CZ  TYR A   2      -4.181  -5.560 133.914  0.00  0.00    +0.000 A 
ATOM     73  CE2 TYR A   2      -3.134  -4.724 133.553  0.00  0.00    +0.000 A 
ATOM     74  CD2 TYR A   2      -3.328  -3.734 132.594  0.00  0.00    +0.000 A 
BRANCH  72  75
ATOM     75  OH  TYR A   2      -3.896  -6.527 134.830  0.00  0.00    +0.000 OA
ATOM     76  HH  TYR A   2      -3.117  -6.284 135.354  0.00  0.00    +0.000 HD
ENDBRANCH  72  75
ENDBRANCH  68  69
ENDBRANCH   5  68
BRANCH  21  77
ATOM     77  CB  GLN A   4      -5.864   2.775 124.157  0.00  0.00    +0.000 C 
BRANCH  77  78
ATOM     78  CG  GLN A   4      -6.089   2.901 122.686  0.00  0.00    +0.000 C 
BRANCH  78  79
ATOM     79  CD  GLN A   4      -5.722   4.029 121.838  0.00  0.00    +0.000 C 
ATOM     80  NE2 GLN A   4      -6.398   3.961 120.690  0.00  0.00    +0.000 N 
ATOM     81  OE1 GLN A   4      -4.990   4.938 122.199  0.00  0.00    +0.000 OA
ATOM     82 HE21 GLN A   4      -7.011   3.181 120.507  0.00  0.00    +0.000 HD
ATOM     83 HE22 GLN A   4      -6.285   4.722 120.059  0.00  0.00    +0.000 HD
ENDBRANCH  78  79
ENDBRANCH  77  78
ENDBRANCH  21  77
TORSDOF 20
ENDMDL
MODEL 6
REMARK VINA RESULT:      -8.7      4.034     11.031
REMARK  Name = CHEMBL2369424
REMARK  24 active torsions:
REMARK  status: ('A' for Active; 'I' for Inactive)
REMARK    1  A    between atoms: CD1_1  and  CG1_2
REMARK    2  A    between atoms: CG1_2  and  CB_3
REMARK    3  A    between atoms: CB_3  and  CG2_4
REMARK    4  A    between atoms: CB_3  and  CA_5
REMARK    5  A    between atoms: CA_9  and  CB_10
REMARK    6  A    between atoms: CB_10  and  CG_11
REMARK    7  A    between atoms: CZ_14  and  OH_15
REMARK    8  A    between atoms: CA_21  and  N_22
REMARK    9  A    between atoms: CA_26  and  C_27
REMARK   10  A    between atoms: CA_33  and  C_34
REMARK   11  A    between atoms: N_36  and  CA_37
REMARK   12  A    between atoms: CA_37  and  CB_38
REMARK   13  A    between atoms: CA_37  and  C_42
REMARK   14  A    between atoms: CB_38  and  CG_39
REMARK   15  A    between atoms: CG_39  and  CD1_40
REMARK   16  A    between atoms: CG_39  and  CD2_41
REMARK   17  A    between atoms: N_44  and  CA_45
REMARK   18  A    between atoms: CA_45  and  C_46
REMARK   19  A    between atoms: C_46  and  OXT_48
REMARK   20  A    between atoms: CA_52  and  CB_53
REMARK   21  A    between atoms: CB_53  and  CG_54
REMARK   22  A    between atoms: CA_60  and  CB_61
REMARK   23  A    between atoms: CB_61  and  CG_62
REMARK   24  A    between atoms: CG_62  and  CD_63
REMARK                            x       y       z     vdW  Elec       q    Type
REMARK                         _______ _______ _______ _____ _____    ______ ____
ROOT
ATOM      1  CA  ILE A   3      -6.856  -0.345 130.448  0.00  0.00    +0.000 C 
ATOM      2  N   ILE A   3      -8.003   1.131 129.769  0.00  0.00    +0.000 N 
ATOM      3  C   TYR A   2      -9.045   2.614 129.485  0.00  0.00    +0.000 C 
ATOM      4  O   TYR A   2      -8.940   3.226 128.370  0.00  0.00    +0.000 OA
ATOM      5  CA  TYR A   2     -10.499   3.665 130.337  0.00  0.00    +0.000 C 
ATOM      6  N   TYR A   2      -9.855   3.438 131.458  0.00  0.00    +0.000 N 
ATOM      7  C   CYS A   1      -8.687   4.032 131.269  0.00  0.00    +0.000 C 
ATOM      8  O   CYS A   1      -8.243   3.070 131.786  0.00  0.00    +0.000 OA
ATOM      9  CA  CYS A   1      -7.848   5.069 130.449  0.00  0.00    +0.000 C 
ATOM     10  CB  CYS A   1      -7.250   6.059 131.464  0.00  0.00    +0.000 C 
ATOM     11  SG  CYS A   6      -5.490   5.980 131.718  0.00  0.00    +0.000 S 
ATOM     12  CB  CYS A   6      -5.063   6.226 133.462  0.00  0.00    +0.000 C 
ATOM     13  CA  CYS A   6      -3.762   5.643 134.019  0.00  0.00    +0.000 C 
ATOM     14  N   CYS A   6      -4.051   4.469 134.756  0.00  0.00    +0.000 N 
ATOM     15  C   ASN A   5      -4.621   3.464 134.209  0.00  0.00    +0.000 C 
ATOM     16  O   ASN A   5      -4.860   2.584 135.044  0.00  0.00    +0.000 OA
ATOM     17  CA  ASN A   5      -4.777   3.478 132.530  0.00  0.00    +0.000 C 
ATOM     18  N   ASN A   5      -4.357   2.369 131.644  0.00  0.00    +0.000 N 
ATOM     19  C   GLN A   4      -5.419   1.111 131.293  0.00  0.00    +0.000 C 
ATOM     20  O   GLN A   4      -5.217   0.778 130.088  0.00  0.00    +0.000 OA
ATOM     21  CA  GLN A   4      -6.219  -0.050 132.885  0.00  0.00    +0.000 C 
ATOM     22  N   GLN A   4      -7.439  -0.808 132.702  0.00  0.00    +0.000 N 
ATOM     23  C   ILE A   3      -7.492  -1.304 131.440  0.00  0.00    +0.000 C 
ATOM     24  O   ILE A   3      -7.658  -2.491 131.212  0.00  0.00    +0.000 OA
ATOM     25  H   ILE A   3      -8.791   0.802 129.144  0.00  0.00    +0.000 HD
ATOM     26  H   TYR A   2      -9.759   2.445 131.692  0.00  0.00    +0.000 HD
ATOM     27  H   CYS A   6      -3.941   4.287 135.754  0.00  0.00    +0.000 HD
ATOM     28  H   ASN A   5      -3.586   2.715 131.052  0.00  0.00    +0.000 HD
ATOM     29  H   GLN A   4      -8.049  -0.001 132.614  0.00  0.00    +0.000 HD
ENDROOT
BRANCH  13  30
ATOM     30  C   CYS A   6      -3.048   6.530 135.008  0.00  0.00    +0.000 C 
ATOM     31  O   CYS A   6      -3.471   6.419 136.161  0.00  0.00    +0.000 OA
ATOM     32  N   PRO A   7      -1.900   7.202 134.578  0.00  0.00    +0.000 N 
ATOM     33  CD  PRO A   7      -1.725   7.927 133.337  0.00  0.00    +0.000 C 
ATOM     34  CG  PRO A   7      -0.282   7.681 133.005  0.00  0.00    +0.000 C 
ATOM     35  CB  PRO A   7       0.392   7.879 134.334  0.00  0.00    +0.000 C 
ATOM     36  CA  PRO A   7      -0.661   7.495 135.373  0.00  0.00    +0.000 C 
BRANCH  36  37
ATOM     37  C   PRO A   7      -0.671   8.856 136.161  0.00  0.00    +0.000 C 
ATOM     38  O   PRO A   7       0.326   9.581 136.131  0.00  0.00    +0.000 OA
ATOM     39  N   LEU A   8      -1.921   9.278 136.668  0.00  0.00    +0.000 N 
ATOM     40  H   LEU A   8      -2.695   8.628 136.789  0.00  0.00    +0.000 HD
BRANCH  39  41
ATOM     41  CA  LEU A   8      -2.256  10.730 136.877  0.00  0.00    +0.000 C 
BRANCH  41  42
ATOM     42  C   LEU A   8      -3.669  10.858 137.549  0.00  0.00    +0.000 C 
ATOM     43  O   LEU A   8      -3.934  11.827 138.265  0.00  0.00    +0.000 OA
ATOM     44  N   GLY A   9      -4.602   9.857 137.331  0.00  0.00    +0.000 N 
ATOM     45  H   GLY A   9      -4.395   9.042 136.754  0.00  0.00    +0.000 HD
BRANCH  44  46
ATOM     46  CA  GLY A   9      -5.962   9.907 137.910  0.00  0.00    +0.000 C 
BRANCH  46  47
ATOM     47  C   GLY A   9      -6.680   8.558 137.779  0.00  0.00    +0.000 C 
ATOM     48  O   GLY A   9      -7.785   8.355 138.271  0.00  0.00    +0.000 OA
BRANCH  47  49
ATOM     49  OXT GLY A   9      -6.037   7.584 137.092  0.00  0.00    +0.000 OA
ATOM     50  HXT GLY A   9      -5.990   6.679 137.453  0.00  0.00    +0.000 HD
ENDBRANCH  47  49
ENDBRANCH  46  47
ENDBRANCH  44  46
ENDBRANCH  41  42
BRANCH  41  51
ATOM     51  CB  LEU A   8      -2.257  11.608 135.584  0.00  0.00    +0.000 C 
BRANCH  51  52
ATOM     52  CG  LEU A   8      -1.402  12.867 135.668  0.00  0.00    +0.000 C 
ATOM     53  CD1 LEU A   8      -0.632  12.891 136.936  0.00  0.00    +0.000 C 
ATOM     54  CD2 LEU A   8      -0.238  12.932 134.738  0.00  0.00    +0.000 C 
ENDBRANCH  51  52
ENDBRANCH  41  51
ENDBRANCH  39  41
ENDBRANCH  36  37
ENDBRANCH  13  30
BRANCH   9  55
ATOM     55  N   CYS A   1      -8.667   5.782 129.487  0.00  0.00    +0.000 NA
ATOM     56  H1  CYS A   1      -8.543   6.761 129.635  0.00  0.00    +0.000 HD
ATOM     57  H2  CYS A   1      -9.637   5.633 129.768  0.00  0.00    +0.000 HD
ENDBRANCH   9  55
BRANCH   1  58
ATOM     58  CB  ILE A   3      -5.011  -1.202 131.215  0.00  0.00    +0.000 C 
ATOM     59  CG2 ILE A   3      -3.497  -2.254 131.838  0.00  0.00    +0.000 C 
BRANCH  58  61
ATOM     60  CD1 ILE A   3      -4.645  -2.646 128.725  0.00  0.00    +0.000 C 
ATOM     61  CG1 ILE A   3      -4.163  -2.443 130.175  0.00  0.00    +0.000 C 
ENDBRANCH  58  61
ENDBRANCH   1  58
BRANCH  17  62
ATOM     62  CB  ASN A   5      -6.234   3.476 132.362  0.00  0.00    +0.000 C 
BRANCH  62  63
ATOM     63  CG  ASN A   5      -6.730   3.551 133.694  0.00  0.00    +0.000 C 
ATOM     64  ND2 ASN A   5      -7.271   2.235 133.883  0.00  0.00    +0.000 N 
ATOM     65  OD1 ASN A   5      -6.991   4.526 134.418  0.00  0.00    +0.000 OA
ATOM     66 HD21 ASN A   5      -7.603   1.506 133.259  0.00  0.00    +0.000 HD
ATOM     67 HD22 ASN A   5      -8.225   2.028 134.030  0.00  0.00    +0.000 HD
ENDBRANCH  62  63
ENDBRANCH  17  62
BRANCH   5  68
ATOM     68  CB  TYR A   2     -10.844   5.276 131.121  0.00  0.00    +0.000 C 
BRANCH  68  69
ATOM     69  CG  TYR A   2     -11.644   6.266 130.341  0.00  0.00    +0.000 A 
ATOM     70  CD1 TYR A   2     -11.925   7.522 130.867  0.00  0.00    +0.000 A 
ATOM     71  CE1 TYR A   2     -12.683   8.445 130.146  0.00  0.00    +0.000 A 
ATOM     72  CZ  TYR A   2     -13.169   8.094 128.893  0.00  0.00    +0.000 A 
ATOM     73  CE2 TYR A   2     -12.936   6.827 128.376  0.00  0.00    +0.000 A 
ATOM     74  CD2 TYR A   2     -12.177   5.909 129.094  0.00  0.00    +0.000 A 
BRANCH  72  75
ATOM     75  OH  TYR A   2     -13.887   8.946 128.108  0.00  0.00    +0.000 OA
ATOM     76  HH  TYR A   2     -13.302   9.436 127.510  0.00  0.00    +0.000 HD
ENDBRANCH  72  75
ENDBRANCH  68  69
ENDBRANCH   5  68
BRANCH  21  77
ATOM     77  CB  GLN A   4      -5.234  -0.530 134.341  0.00  0.00    +0.000 C 
BRANCH  77  78
ATOM     78  CG  GLN A   4      -5.441  -1.881 134.945  0.00  0.00    +0.000 C 
BRANCH  78  79
ATOM     79  CD  GLN A   4      -6.553  -2.300 135.790  0.00  0.00    +0.000 C 
ATOM     80  NE2 GLN A   4      -6.170  -2.288 137.068  0.00  0.00    +0.000 N 
ATOM     81  OE1 GLN A   4      -7.680  -2.514 135.370  0.00  0.00    +0.000 OA
ATOM     82 HE21 GLN A   4      -5.218  -2.058 137.310  0.00  0.00    +0.000 HD
ATOM     83 HE22 GLN A   4      -6.870  -2.485 137.746  0.00  0.00    +0.000 HD
ENDBRANCH  78  79
ENDBRANCH  77  78
ENDBRANCH  21  77
TORSDOF 20
ENDMDL
MODEL 7
REMARK VINA RESULT:      -8.6      3.956     11.481
REMARK  Name = CHEMBL2369424
REMARK  24 active torsions:
REMARK  status: ('A' for Active; 'I' for Inactive)
REMARK    1  A    between atoms: CD1_1  and  CG1_2
REMARK    2  A    between atoms: CG1_2  and  CB_3
REMARK    3  A    between atoms: CB_3  and  CG2_4
REMARK    4  A    between atoms: CB_3  and  CA_5
REMARK    5  A    between atoms: CA_9  and  CB_10
REMARK    6  A    between atoms: CB_10  and  CG_11
REMARK    7  A    between atoms: CZ_14  and  OH_15
REMARK    8  A    between atoms: CA_21  and  N_22
REMARK    9  A    between atoms: CA_26  and  C_27
REMARK   10  A    between atoms: CA_33  and  C_34
REMARK   11  A    between atoms: N_36  and  CA_37
REMARK   12  A    between atoms: CA_37  and  CB_38
REMARK   13  A    between atoms: CA_37  and  C_42
REMARK   14  A    between atoms: CB_38  and  CG_39
REMARK   15  A    between atoms: CG_39  and  CD1_40
REMARK   16  A    between atoms: CG_39  and  CD2_41
REMARK   17  A    between atoms: N_44  and  CA_45
REMARK   18  A    between atoms: CA_45  and  C_46
REMARK   19  A    between atoms: C_46  and  OXT_48
REMARK   20  A    between atoms: CA_52  and  CB_53
REMARK   21  A    between atoms: CB_53  and  CG_54
REMARK   22  A    between atoms: CA_60  and  CB_61
REMARK   23  A    between atoms: CB_61  and  CG_62
REMARK   24  A    between atoms: CG_62  and  CD_63
REMARK                            x       y       z     vdW  Elec       q    Type
REMARK                         _______ _______ _______ _____ _____    ______ ____
ROOT
ATOM      1  CA  ILE A   3      -6.948  -0.428 130.318  0.00  0.00    +0.000 C 
ATOM      2  N   ILE A   3      -8.000   1.098 129.597  0.00  0.00    +0.000 N 
ATOM      3  C   TYR A   2      -8.959   2.629 129.275  0.00  0.00    +0.000 C 
ATOM      4  O   TYR A   2      -8.788   3.230 128.162  0.00  0.00    +0.000 OA
ATOM      5  CA  TYR A   2     -10.388   3.752 130.075  0.00  0.00    +0.000 C 
ATOM      6  N   TYR A   2      -9.792   3.499 131.217  0.00  0.00    +0.000 N 
ATOM      7  C   CYS A   1      -8.591   4.036 131.066  0.00  0.00    +0.000 C 
ATOM      8  O   CYS A   1      -8.212   3.055 131.600  0.00  0.00    +0.000 OA
ATOM      9  CA  CYS A   1      -7.677   5.027 130.270  0.00  0.00    +0.000 C 
ATOM     10  CB  CYS A   1      -7.065   5.991 131.302  0.00  0.00    +0.000 C 
ATOM     11  SG  CYS A   6      -5.321   5.830 131.613  0.00  0.00    +0.000 S 
ATOM     12  CB  CYS A   6      -4.939   6.062 133.369  0.00  0.00    +0.000 C 
ATOM     13  CA  CYS A   6      -3.687   5.420 133.970  0.00  0.00    +0.000 C 
ATOM     14  N   CYS A   6      -4.056   4.265 134.701  0.00  0.00    +0.000 N 
ATOM     15  C   ASN A   5      -4.655   3.286 134.138  0.00  0.00    +0.000 C 
ATOM     16  O   ASN A   5      -4.964   2.422 134.968  0.00  0.00    +0.000 OA
ATOM     17  CA  ASN A   5      -4.756   3.299 132.455  0.00  0.00    +0.000 C 
ATOM     18  N   ASN A   5      -4.361   2.168 131.587  0.00  0.00    +0.000 N 
ATOM     19  C   GLN A   4      -5.471   0.961 131.205  0.00  0.00    +0.000 C 
ATOM     20  O   GLN A   4      -5.246   0.613 130.009  0.00  0.00    +0.000 OA
ATOM     21  CA  GLN A   4      -6.378  -0.153 132.774  0.00  0.00    +0.000 C 
ATOM     22  N   GLN A   4      -7.627  -0.853 132.553  0.00  0.00    +0.000 N 
ATOM     23  C   ILE A   3      -7.662  -1.351 131.291  0.00  0.00    +0.000 C 
ATOM     24  O   ILE A   3      -7.878  -2.530 131.062  0.00  0.00    +0.000 OA
ATOM     25  H   ILE A   3      -8.782   0.804 128.948  0.00  0.00    +0.000 HD
ATOM     26  H   TYR A   2      -9.752   2.504 131.457  0.00  0.00    +0.000 HD
ATOM     27  H   CYS A   6      -3.987   4.082 135.703  0.00  0.00    +0.000 HD
ATOM     28  H   ASN A   5      -3.556   2.473 131.020  0.00  0.00    +0.000 HD
ATOM     29  H   GLN A   4      -8.194  -0.018 132.442  0.00  0.00    +0.000 HD
ENDROOT
BRANCH  13  30
ATOM     30  C   CYS A   6      -2.963   6.276 134.980  0.00  0.00    +0.000 C 
ATOM     31  O   CYS A   6      -3.388   6.143 136.130  0.00  0.00    +0.000 OA
ATOM     32  N   PRO A   7      -1.808   6.945 134.566  0.00  0.00    +0.000 N 
ATOM     33  CD  PRO A   7      -1.624   7.695 133.342  0.00  0.00    +0.000 C 
ATOM     34  CG  PRO A   7      -0.183   7.441 133.005  0.00  0.00    +0.000 C 
ATOM     35  CB  PRO A   7       0.493   7.601 134.337  0.00  0.00    +0.000 C 
ATOM     36  CA  PRO A   7      -0.566   7.205 135.368  0.00  0.00    +0.000 C 
BRANCH  36  37
ATOM     37  C   PRO A   7      -0.561   8.548 136.186  0.00  0.00    +0.000 C 
ATOM     38  O   PRO A   7      -0.601   8.508 137.418  0.00  0.00    +0.000 OA
ATOM     39  N   LEU A   8      -0.271   9.724 135.459  0.00  0.00    +0.000 N 
ATOM     40  H   LEU A   8      -0.357   9.761 134.445  0.00  0.00    +0.000 HD
BRANCH  39  41
ATOM     41  CA  LEU A   8       0.365  10.930 136.098  0.00  0.00    +0.000 C 
BRANCH  41  42
ATOM     42  C   LEU A   8      -0.250  12.240 135.491  0.00  0.00    +0.000 C 
ATOM     43  O   LEU A   8      -0.115  13.321 136.071  0.00  0.00    +0.000 OA
ATOM     44  N   GLY A   9      -0.956  12.154 134.301  0.00  0.00    +0.000 N 
ATOM     45  H   GLY A   9      -1.090  11.267 133.816  0.00  0.00    +0.000 HD
BRANCH  44  46
ATOM     46  CA  GLY A   9      -1.552  13.341 133.650  0.00  0.00    +0.000 C 
BRANCH  46  47
ATOM     47  C   GLY A   9      -1.255  13.366 132.145  0.00  0.00    +0.000 C 
ATOM     48  O   GLY A   9      -0.398  12.652 131.635  0.00  0.00    +0.000 OA
BRANCH  47  49
ATOM     49  OXT GLY A   9      -1.986  14.220 131.390  0.00  0.00    +0.000 OA
ATOM     50  HXT GLY A   9      -2.216  15.104 131.733  0.00  0.00    +0.000 HD
ENDBRANCH  47  49
ENDBRANCH  46  47
ENDBRANCH  44  46
ENDBRANCH  41  42
BRANCH  41  51
ATOM     51  CB  LEU A   8       1.919  11.019 135.958  0.00  0.00    +0.000 C 
BRANCH  51  52
ATOM     52  CG  LEU A   8       2.691  10.727 137.239  0.00  0.00    +0.000 C 
ATOM     53  CD1 LEU A   8       2.905   9.268 137.400  0.00  0.00    +0.000 C 
ATOM     54  CD2 LEU A   8       4.127  11.131 137.245  0.00  0.00    +0.000 C 
ENDBRANCH  51  52
ENDBRANCH  41  51
ENDBRANCH  39  41
ENDBRANCH  36  37
ENDBRANCH  13  30
BRANCH   9  55
ATOM     55  N   CYS A   1      -8.429   5.774 129.279  0.00  0.00    +0.000 NA
ATOM     56  H1  CYS A   1      -8.917   5.124 128.701  0.00  0.00    +0.000 HD
ATOM     57  H2  CYS A   1      -7.742   6.174 128.639  0.00  0.00    +0.000 HD
ENDBRANCH   9  55
BRANCH   1  58
ATOM     58  CB  ILE A   3      -5.173  -1.370 131.147  0.00  0.00    +0.000 C 
ATOM     59  CG2 ILE A   3      -3.733  -2.490 131.824  0.00  0.00    +0.000 C 
BRANCH  58  61
ATOM     60  CD1 ILE A   3      -4.700  -2.753 128.642  0.00  0.00    +0.000 C 
ATOM     61  CG1 ILE A   3      -4.353  -2.655 130.141  0.00  0.00    +0.000 C 
ENDBRANCH  58  61
ENDBRANCH   1  58
BRANCH  17  62
ATOM     62  CB  ASN A   5      -6.205   3.367 132.240  0.00  0.00    +0.000 C 
BRANCH  62  63
ATOM     63  CG  ASN A   5      -6.740   3.470 133.555  0.00  0.00    +0.000 C 
ATOM     64  ND2 ASN A   5      -7.356   2.184 133.725  0.00  0.00    +0.000 N 
ATOM     65  OD1 ASN A   5      -6.974   4.459 134.270  0.00  0.00    +0.000 OA
ATOM     66 HD21 ASN A   5      -7.704   1.473 133.091  0.00  0.00    +0.000 HD
ATOM     67 HD22 ASN A   5      -8.323   2.028 133.841  0.00  0.00    +0.000 HD
ENDBRANCH  62  63
ENDBRANCH  17  62
BRANCH   5  68
ATOM     68  CB  TYR A   2     -10.680   5.381 130.843  0.00  0.00    +0.000 C 
BRANCH  68  69
ATOM     69  CG  TYR A   2     -11.525   6.356 130.092  0.00  0.00    +0.000 A 
ATOM     70  CD1 TYR A   2     -12.671   5.935 129.426  0.00  0.00    +0.000 A 
ATOM     71  CE1 TYR A   2     -13.455   6.841 128.712  0.00  0.00    +0.000 A 
ATOM     72  CZ  TYR A   2     -13.076   8.176 128.661  0.00  0.00    +0.000 A 
ATOM     73  CE2 TYR A   2     -11.910   8.601 129.282  0.00  0.00    +0.000 A 
ATOM     74  CD2 TYR A   2     -11.129   7.698 129.996  0.00  0.00    +0.000 A 
BRANCH  72  75
ATOM     75  OH  TYR A   2     -13.803   9.132 128.017  0.00  0.00    +0.000 OA
ATOM     76  HH  TYR A   2     -13.224   9.703 127.488  0.00  0.00    +0.000 HD
ENDBRANCH  72  75
ENDBRANCH  68  69
ENDBRANCH   5  68
BRANCH  21  77
ATOM     77  CB  GLN A   4      -5.466  -0.674 134.263  0.00  0.00    +0.000 C 
BRANCH  77  78
ATOM     78  CG  GLN A   4      -4.008  -0.361 134.369  0.00  0.00    +0.000 C 
BRANCH  78  79
ATOM     79  CD  GLN A   4      -3.117  -0.715 135.467  0.00  0.00    +0.000 C 
ATOM     80  NE2 GLN A   4      -3.138   0.252 136.386  0.00  0.00    +0.000 N 
ATOM     81  OE1 GLN A   4      -2.540  -1.788 135.554  0.00  0.00    +0.000 OA
ATOM     82 HE21 GLN A   4      -3.681   1.088 136.231  0.00  0.00    +0.000 HD
ATOM     83 HE22 GLN A   4      -2.622   0.087 137.220  0.00  0.00    +0.000 HD
ENDBRANCH  78  79
ENDBRANCH  77  78
ENDBRANCH  21  77
TORSDOF 20
ENDMDL
MODEL 8
REMARK VINA RESULT:      -8.6      3.534     12.033
REMARK  Name = CHEMBL2369424
REMARK  24 active torsions:
REMARK  status: ('A' for Active; 'I' for Inactive)
REMARK    1  A    between atoms: CD1_1  and  CG1_2
REMARK    2  A    between atoms: CG1_2  and  CB_3
REMARK    3  A    between atoms: CB_3  and  CG2_4
REMARK    4  A    between atoms: CB_3  and  CA_5
REMARK    5  A    between atoms: CA_9  and  CB_10
REMARK    6  A    between atoms: CB_10  and  CG_11
REMARK    7  A    between atoms: CZ_14  and  OH_15
REMARK    8  A    between atoms: CA_21  and  N_22
REMARK    9  A    between atoms: CA_26  and  C_27
REMARK   10  A    between atoms: CA_33  and  C_34
REMARK   11  A    between atoms: N_36  and  CA_37
REMARK   12  A    between atoms: CA_37  and  CB_38
REMARK   13  A    between atoms: CA_37  and  C_42
REMARK   14  A    between atoms: CB_38  and  CG_39
REMARK   15  A    between atoms: CG_39  and  CD1_40
REMARK   16  A    between atoms: CG_39  and  CD2_41
REMARK   17  A    between atoms: N_44  and  CA_45
REMARK   18  A    between atoms: CA_45  and  C_46
REMARK   19  A    between atoms: C_46  and  OXT_48
REMARK   20  A    between atoms: CA_52  and  CB_53
REMARK   21  A    between atoms: CB_53  and  CG_54
REMARK   22  A    between atoms: CA_60  and  CB_61
REMARK   23  A    between atoms: CB_61  and  CG_62
REMARK   24  A    between atoms: CG_62  and  CD_63
REMARK                            x       y       z     vdW  Elec       q    Type
REMARK                         _______ _______ _______ _____ _____    ______ ____
ROOT
ATOM      1  CA  ILE A   3      -6.383  -0.417 130.522  0.00  0.00    +0.000 C 
ATOM      2  N   ILE A   3      -6.015   0.025 128.618  0.00  0.00    +0.000 N 
ATOM      3  C   TYR A   2      -5.793   0.764 126.953  0.00  0.00    +0.000 C 
ATOM      4  O   TYR A   2      -4.796   0.388 126.250  0.00  0.00    +0.000 OA
ATOM      5  CA  TYR A   2      -6.689   1.995 125.679  0.00  0.00    +0.000 C 
ATOM      6  N   TYR A   2      -6.998   2.695 126.745  0.00  0.00    +0.000 N 
ATOM      7  C   CYS A   1      -5.820   3.054 127.233  0.00  0.00    +0.000 C 
ATOM      8  O   CYS A   1      -6.302   2.797 128.277  0.00  0.00    +0.000 OA
ATOM      9  CA  CYS A   1      -4.286   3.237 126.981  0.00  0.00    +0.000 C 
ATOM     10  CB  CYS A   1      -3.948   4.695 127.339  0.00  0.00    +0.000 C 
ATOM     11  SG  CYS A   6      -2.966   4.953 128.800  0.00  0.00    +0.000 S 
ATOM     12  CB  CYS A   6      -3.521   6.412 129.721  0.00  0.00    +0.000 C 
ATOM     13  CA  CYS A   6      -3.266   6.508 131.227  0.00  0.00    +0.000 C 
ATOM     14  N   CYS A   6      -4.461   6.211 131.925  0.00  0.00    +0.000 N 
ATOM     15  C   ASN A   5      -5.046   5.082 131.791  0.00  0.00    +0.000 C 
ATOM     16  O   ASN A   5      -6.113   5.061 132.416  0.00  0.00    +0.000 OA
ATOM     17  CA  ASN A   5      -4.215   3.869 130.967  0.00  0.00    +0.000 C 
ATOM     18  N   ASN A   5      -4.013   2.497 131.484  0.00  0.00    +0.000 N 
ATOM     19  C   GLN A   4      -5.160   1.300 131.195  0.00  0.00    +0.000 C 
ATOM     20  O   GLN A   4      -4.530   0.216 131.015  0.00  0.00    +0.000 OA
ATOM     21  CA  GLN A   4      -7.158   1.592 131.862  0.00  0.00    +0.000 C 
ATOM     22  N   GLN A   4      -8.249   0.847 131.266  0.00  0.00    +0.000 N 
ATOM     23  C   ILE A   3      -7.839  -0.409 130.956  0.00  0.00    +0.000 C 
ATOM     24  O   ILE A   3      -8.426  -1.402 131.351  0.00  0.00    +0.000 OA
ATOM     25  H   ILE A   3      -6.359  -0.711 127.938  0.00  0.00    +0.000 HD
ATOM     26  H   TYR A   2      -7.569   2.188 127.428  0.00  0.00    +0.000 HD
ATOM     27  H   CYS A   6      -5.032   6.814 132.519  0.00  0.00    +0.000 HD
ATOM     28  H   ASN A   5      -3.001   2.365 131.634  0.00  0.00    +0.000 HD
ATOM     29  H   GLN A   4      -8.193   1.295 130.356  0.00  0.00    +0.000 HD
ENDROOT
BRANCH  13  30
ATOM     30  C   CYS A   6      -2.890   7.885 131.715  0.00  0.00    +0.000 C 
ATOM     31  O   CYS A   6      -3.403   8.795 131.061  0.00  0.00    +0.000 OA
ATOM     32  N   PRO A   7      -2.196   7.986 132.924  0.00  0.00    +0.000 N 
ATOM     33  CD  PRO A   7      -1.064   7.191 133.351  0.00  0.00    +0.000 C 
ATOM     34  CG  PRO A   7      -1.275   7.075 134.833  0.00  0.00    +0.000 C 
ATOM     35  CB  PRO A   7      -1.659   8.477 135.214  0.00  0.00    +0.000 C 
ATOM     36  CA  PRO A   7      -2.331   9.055 133.969  0.00  0.00    +0.000 C 
BRANCH  36  37
ATOM     37  C   PRO A   7      -1.384  10.297 133.789  0.00  0.00    +0.000 C 
ATOM     38  O   PRO A   7      -1.657  11.150 132.941  0.00  0.00    +0.000 OA
ATOM     39  N   LEU A   8      -0.396  10.481 134.782  0.00  0.00    +0.000 N 
ATOM     40  H   LEU A   8      -0.108   9.723 135.396  0.00  0.00    +0.000 HD
BRANCH  39  41
ATOM     41  CA  LEU A   8       0.154  11.839 135.129  0.00  0.00    +0.000 C 
BRANCH  41  42
ATOM     42  C   LEU A   8      -0.981  12.731 135.743  0.00  0.00    +0.000 C 
ATOM     43  O   LEU A   8      -1.414  13.705 135.122  0.00  0.00    +0.000 OA
ATOM     44  N   GLY A   9      -1.474  12.410 136.998  0.00  0.00    +0.000 N 
ATOM     45  H   GLY A   9      -1.117  11.617 137.531  0.00  0.00    +0.000 HD
BRANCH  44  46
ATOM     46  CA  GLY A   9      -2.556  13.186 137.642  0.00  0.00    +0.000 C 
BRANCH  46  47
ATOM     47  C   GLY A   9      -1.997  14.228 138.620  0.00  0.00    +0.000 C 
ATOM     48  O   GLY A   9      -1.387  15.220 138.238  0.00  0.00    +0.000 OA
BRANCH  47  49
ATOM     49  OXT GLY A   9      -2.205  14.006 139.939  0.00  0.00    +0.000 OA
ATOM     50  HXT GLY A   9      -3.114  13.985 140.295  0.00  0.00    +0.000 HD
ENDBRANCH  47  49
ENDBRANCH  46  47
ENDBRANCH  44  46
ENDBRANCH  41  42
BRANCH  41  51
ATOM     51  CB  LEU A   8       0.793  12.625 133.938  0.00  0.00    +0.000 C 
BRANCH  51  52
ATOM     52  CG  LEU A   8       2.317  12.600 133.903  0.00  0.00    +0.000 C 
ATOM     53  CD1 LEU A   8       2.862  13.980 133.923  0.00  0.00    +0.000 C 
ATOM     54  CD2 LEU A   8       2.993  12.111 135.140  0.00  0.00    +0.000 C 
ENDBRANCH  51  52
ENDBRANCH  41  51
ENDBRANCH  39  41
ENDBRANCH  36  37
ENDBRANCH  13  30
BRANCH   9  55
ATOM     55  N   CYS A   1      -3.933   2.973 125.598  0.00  0.00    +0.000 NA
ATOM     56  H1  CYS A   1      -4.081   2.003 125.417  0.00  0.00    +0.000 HD
ATOM     57  H2  CYS A   1      -2.918   3.061 125.539  0.00  0.00    +0.000 HD
ENDBRANCH   9  55
BRANCH   1  58
ATOM     58  CB  ILE A   3      -6.024  -0.319 132.663  0.00  0.00    +0.000 C 
ATOM     59  CG2 ILE A   3      -5.918  -0.468 134.601  0.00  0.00    +0.000 C 
BRANCH  58  61
ATOM     60  CD1 ILE A   3      -5.437  -3.160 132.682  0.00  0.00    +0.000 C 
ATOM     61  CG1 ILE A   3      -5.620  -1.880 133.523  0.00  0.00    +0.000 C 
ENDBRANCH  58  61
ENDBRANCH   1  58
BRANCH  17  62
ATOM     62  CB  ASN A   5      -5.086   3.640 129.809  0.00  0.00    +0.000 C 
BRANCH  62  63
ATOM     63  CG  ASN A   5      -6.112   4.615 129.957  0.00  0.00    +0.000 C 
ATOM     64  ND2 ASN A   5      -7.249   3.801 130.282  0.00  0.00    +0.000 N 
ATOM     65  OD1 ASN A   5      -6.182   5.796 129.577  0.00  0.00    +0.000 OA
ATOM     66 HD21 ASN A   5      -7.493   2.828 130.131  0.00  0.00    +0.000 HD
ATOM     67 HD22 ASN A   5      -8.058   3.705 129.724  0.00  0.00    +0.000 HD
ENDBRANCH  62  63
ENDBRANCH  17  62
BRANCH   5  68
ATOM     68  CB  TYR A   2      -6.531   3.645 124.915  0.00  0.00    +0.000 C 
BRANCH  68  69
ATOM     69  CG  TYR A   2      -6.689   3.737 123.434  0.00  0.00    +0.000 A 
ATOM     70  CD1 TYR A   2      -7.892   3.393 122.827  0.00  0.00    +0.000 A 
ATOM     71  CE1 TYR A   2      -8.038   3.465 121.441  0.00  0.00    +0.000 A 
ATOM     72  CZ  TYR A   2      -6.963   3.876 120.664  0.00  0.00    +0.000 A 
ATOM     73  CE2 TYR A   2      -5.742   4.178 121.253  0.00  0.00    +0.000 A 
ATOM     74  CD2 TYR A   2      -5.598   4.108 122.635  0.00  0.00    +0.000 A 
BRANCH  72  75
ATOM     75  OH  TYR A   2      -7.030   4.008 119.310  0.00  0.00    +0.000 OA
ATOM     76  HH  TYR A   2      -7.954   4.028 119.013  0.00  0.00    +0.000 HD
ENDBRANCH  72  75
ENDBRANCH  68  69
ENDBRANCH   5  68
BRANCH  21  77
ATOM     77  CB  GLN A   4      -7.556   2.384 133.454  0.00  0.00    +0.000 C 
BRANCH  77  78
ATOM     78  CG  GLN A   4      -8.866   3.086 133.610  0.00  0.00    +0.000 C 
BRANCH  78  79
ATOM     79  CD  GLN A   4      -9.185   4.444 133.187  0.00  0.00    +0.000 C 
ATOM     80  NE2 GLN A   4      -8.770   5.308 134.115  0.00  0.00    +0.000 N 
ATOM     81  OE1 GLN A   4      -9.658   4.721 132.096  0.00  0.00    +0.000 OA
ATOM     82 HE21 GLN A   4      -8.354   4.972 134.971  0.00  0.00    +0.000 HD
ATOM     83 HE22 GLN A   4      -8.867   6.274 133.902  0.00  0.00    +0.000 HD
ENDBRANCH  78  79
ENDBRANCH  77  78
ENDBRANCH  21  77
TORSDOF 20
ENDMDL
MODEL 9
REMARK VINA RESULT:      -8.6      3.390      9.239
REMARK  Name = CHEMBL2369424
REMARK  24 active torsions:
REMARK  status: ('A' for Active; 'I' for Inactive)
REMARK    1  A    between atoms: CD1_1  and  CG1_2
REMARK    2  A    between atoms: CG1_2  and  CB_3
REMARK    3  A    between atoms: CB_3  and  CG2_4
REMARK    4  A    between atoms: CB_3  and  CA_5
REMARK    5  A    between atoms: CA_9  and  CB_10
REMARK    6  A    between atoms: CB_10  and  CG_11
REMARK    7  A    between atoms: CZ_14  and  OH_15
REMARK    8  A    between atoms: CA_21  and  N_22
REMARK    9  A    between atoms: CA_26  and  C_27
REMARK   10  A    between atoms: CA_33  and  C_34
REMARK   11  A    between atoms: N_36  and  CA_37
REMARK   12  A    between atoms: CA_37  and  CB_38
REMARK   13  A    between atoms: CA_37  and  C_42
REMARK   14  A    between atoms: CB_38  and  CG_39
REMARK   15  A    between atoms: CG_39  and  CD1_40
REMARK   16  A    between atoms: CG_39  and  CD2_41
REMARK   17  A    between atoms: N_44  and  CA_45
REMARK   18  A    between atoms: CA_45  and  C_46
REMARK   19  A    between atoms: C_46  and  OXT_48
REMARK   20  A    between atoms: CA_52  and  CB_53
REMARK   21  A    between atoms: CB_53  and  CG_54
REMARK   22  A    between atoms: CA_60  and  CB_61
REMARK   23  A    between atoms: CB_61  and  CG_62
REMARK   24  A    between atoms: CG_62  and  CD_63
REMARK                            x       y       z     vdW  Elec       q    Type
REMARK                         _______ _______ _______ _____ _____    ______ ____
ROOT
ATOM      1  CA  ILE A   3      -6.174   4.127 127.757  0.00  0.00    +0.000 C 
ATOM      2  N   ILE A   3      -4.709   5.289 128.436  0.00  0.00    +0.000 N 
ATOM      3  C   TYR A   2      -3.517   6.308 129.387  0.00  0.00    +0.000 C 
ATOM      4  O   TYR A   2      -2.289   6.292 129.036  0.00  0.00    +0.000 OA
ATOM      5  CA  TYR A   2      -3.453   7.641 130.858  0.00  0.00    +0.000 C 
ATOM      6  N   TYR A   2      -4.379   6.899 131.419  0.00  0.00    +0.000 N 
ATOM      7  C   CYS A   1      -3.772   5.737 131.607  0.00  0.00    +0.000 C 
ATOM      8  O   CYS A   1      -4.794   5.275 131.243  0.00  0.00    +0.000 OA
ATOM      9  CA  CYS A   1      -2.422   4.950 131.698  0.00  0.00    +0.000 C 
ATOM     10  CB  CYS A   1      -2.421   4.227 133.057  0.00  0.00    +0.000 C 
ATOM     11  SG  CYS A   6      -2.573   2.455 133.021  0.00  0.00    +0.000 S 
ATOM     12  CB  CYS A   6      -3.619   1.854 134.373  0.00  0.00    +0.000 C 
ATOM     13  CA  CYS A   6      -4.362   0.524 134.230  0.00  0.00    +0.000 C 
ATOM     14  N   CYS A   6      -5.724   0.776 133.934  0.00  0.00    +0.000 N 
ATOM     15  C   ASN A   5      -6.067   1.426 132.888  0.00  0.00    +0.000 C 
ATOM     16  O   ASN A   5      -7.290   1.610 132.865  0.00  0.00    +0.000 OA
ATOM     17  CA  ASN A   5      -4.872   1.742 131.742  0.00  0.00    +0.000 C 
ATOM     18  N   ASN A   5      -5.000   1.444 130.299  0.00  0.00    +0.000 N 
ATOM     19  C   GLN A   4      -5.684   2.572 129.254  0.00  0.00    +0.000 C 
ATOM     20  O   GLN A   4      -5.052   2.497 128.159  0.00  0.00    +0.000 OA
ATOM     21  CA  GLN A   4      -7.669   3.250 129.608  0.00  0.00    +0.000 C 
ATOM     22  N   GLN A   4      -8.129   4.505 129.049  0.00  0.00    +0.000 N 
ATOM     23  C   ILE A   3      -7.582   4.694 127.821  0.00  0.00    +0.000 C 
ATOM     24  O   ILE A   3      -8.261   4.917 126.833  0.00  0.00    +0.000 OA
ATOM     25  H   ILE A   3      -4.534   6.144 127.836  0.00  0.00    +0.000 HD
ATOM     26  H   TYR A   2      -5.237   6.811 130.867  0.00  0.00    +0.000 HD
ATOM     27  H   CYS A   6      -6.556   0.575 134.490  0.00  0.00    +0.000 HD
ATOM     28  H   ASN A   5      -4.301   0.723 130.064  0.00  0.00    +0.000 HD
ATOM     29  H   GLN A   4      -7.529   5.095 129.616  0.00  0.00    +0.000 HD
ENDROOT
BRANCH  13  30
ATOM     30  C   CYS A   6      -4.410  -0.309 135.487  0.00  0.00    +0.000 C 
ATOM     31  O   CYS A   6      -3.897   0.245 136.463  0.00  0.00    +0.000 OA
ATOM     32  N   PRO A   7      -5.173  -1.480 135.470  0.00  0.00    +0.000 N 
ATOM     33  CD  PRO A   7      -5.201  -2.490 134.434  0.00  0.00    +0.000 C 
ATOM     34  CG  PRO A   7      -6.628  -2.956 134.457  0.00  0.00    +0.000 C 
ATOM     35  CB  PRO A   7      -6.901  -3.086 135.929  0.00  0.00    +0.000 C 
ATOM     36  CA  PRO A   7      -5.984  -2.058 136.593  0.00  0.00    +0.000 C 
BRANCH  36  37
ATOM     37  C   PRO A   7      -5.216  -3.055 137.537  0.00  0.00    +0.000 C 
ATOM     38  O   PRO A   7      -5.855  -3.862 138.215  0.00  0.00    +0.000 OA
ATOM     39  N   LEU A   8      -3.815  -3.122 137.370  0.00  0.00    +0.000 N 
ATOM     40  H   LEU A   8      -3.296  -2.381 136.903  0.00  0.00    +0.000 HD
BRANCH  39  41
ATOM     41  CA  LEU A   8      -3.024  -4.362 137.690  0.00  0.00    +0.000 C 
BRANCH  41  42
ATOM     42  C   LEU A   8      -1.506  -4.120 137.374  0.00  0.00    +0.000 C 
ATOM     43  O   LEU A   8      -0.660  -4.959 137.696  0.00  0.00    +0.000 OA
ATOM     44  N   GLY A   9      -1.137  -2.944 136.741  0.00  0.00    +0.000 N 
ATOM     45  H   GLY A   9      -1.820  -2.234 136.481  0.00  0.00    +0.000 HD
BRANCH  44  46
ATOM     46  CA  GLY A   9       0.269  -2.644 136.390  0.00  0.00    +0.000 C 
BRANCH  46  47
ATOM     47  C   GLY A   9       0.665  -3.287 135.055  0.00  0.00    +0.000 C 
ATOM     48  O   GLY A   9       0.657  -2.661 134.000  0.00  0.00    +0.000 OA
BRANCH  47  49
ATOM     49  OXT GLY A   9       1.030  -4.591 135.085  0.00  0.00    +0.000 OA
ATOM     50  HXT GLY A   9       1.586  -4.927 135.813  0.00  0.00    +0.000 HD
ENDBRANCH  47  49
ENDBRANCH  46  47
ENDBRANCH  44  46
ENDBRANCH  41  42
BRANCH  41  51
ATOM     51  CB  LEU A   8      -3.473  -5.654 136.932  0.00  0.00    +0.000 C 
BRANCH  51  52
ATOM     52  CG  LEU A   8      -3.446  -5.543 135.413  0.00  0.00    +0.000 C 
ATOM     53  CD1 LEU A   8      -2.436  -6.467 134.839  0.00  0.00    +0.000 C 
ATOM     54  CD2 LEU A   8      -4.634  -6.090 134.695  0.00  0.00    +0.000 C 
ENDBRANCH  51  52
ENDBRANCH  41  51
ENDBRANCH  39  41
ENDBRANCH  36  37
ENDBRANCH  13  30
BRANCH   9  55
ATOM     55  N   CYS A   1      -1.276   5.836 131.608  0.00  0.00    +0.000 NA
ATOM     56  H1  CYS A   1      -0.500   5.390 132.051  0.00  0.00    +0.000 HD
ATOM     57  H2  CYS A   1      -1.471   6.621 132.232  0.00  0.00    +0.000 HD
ENDBRANCH   9  55
BRANCH   1  58
ATOM     58  CB  ILE A   3      -7.232   2.244 127.516  0.00  0.00    +0.000 C 
ATOM     59  CG2 ILE A   3      -8.351   0.713 127.076  0.00  0.00    +0.000 C 
BRANCH  58  61
ATOM     60  CD1 ILE A   3      -6.515   2.185 124.706  0.00  0.00    +0.000 C 
ATOM     61  CG1 ILE A   3      -7.382   1.571 125.824  0.00  0.00    +0.000 C 
ENDBRANCH  58  61
ENDBRANCH   1  58
BRANCH  17  62
ATOM     62  CB  ASN A   5      -4.823   3.208 131.754  0.00  0.00    +0.000 C 
BRANCH  62  63
ATOM     63  CG  ASN A   5      -5.746   3.571 132.775  0.00  0.00    +0.000 C 
ATOM     64  ND2 ASN A   5      -6.784   4.215 132.021  0.00  0.00    +0.000 N 
ATOM     65  OD1 ASN A   5      -5.608   3.672 134.006  0.00  0.00    +0.000 OA
ATOM     66 HD21 ASN A   5      -6.826   4.670 131.115  0.00  0.00    +0.000 HD
ATOM     67 HD22 ASN A   5      -7.034   5.166 132.097  0.00  0.00    +0.000 HD
ENDBRANCH  62  63
ENDBRANCH  17  62
BRANCH   5  68
ATOM     68  CB  TYR A   2      -2.897   7.860 132.581  0.00  0.00    +0.000 C 
BRANCH  68  69
ATOM     69  CG  TYR A   2      -1.966   8.992 132.867  0.00  0.00    +0.000 A 
ATOM     70  CD1 TYR A   2      -0.671   8.749 133.314  0.00  0.00    +0.000 A 
ATOM     71  CE1 TYR A   2       0.196   9.804 133.595  0.00  0.00    +0.000 A 
ATOM     72  CZ  TYR A   2      -0.248  11.111 133.434  0.00  0.00    +0.000 A 
ATOM     73  CE2 TYR A   2      -1.552  11.368 133.034  0.00  0.00    +0.000 A 
ATOM     74  CD2 TYR A   2      -2.416  10.314 132.751  0.00  0.00    +0.000 A 
BRANCH  72  75
ATOM     75  OH  TYR A   2       0.544  12.198 133.652  0.00  0.00    +0.000 OA
ATOM     76  HH  TYR A   2       1.462  11.927 133.807  0.00  0.00    +0.000 HD
ENDBRANCH  72  75
ENDBRANCH  68  69
ENDBRANCH   5  68
BRANCH  21  77
ATOM     77  CB  GLN A   4      -8.994   2.144 130.193  0.00  0.00    +0.000 C 
BRANCH  77  78
ATOM     78  CG  GLN A   4     -10.075   2.701 131.062  0.00  0.00    +0.000 C 
BRANCH  78  79
ATOM     79  CD  GLN A   4      -9.929   3.725 132.089  0.00  0.00    +0.000 C 
ATOM     80  NE2 GLN A   4      -9.871   3.145 133.290  0.00  0.00    +0.000 N 
ATOM     81  OE1 GLN A   4      -9.775   4.912 131.847  0.00  0.00    +0.000 OA
ATOM     82 HE21 GLN A   4      -9.973   2.145 133.376  0.00  0.00    +0.000 HD
ATOM     83 HE22 GLN A   4      -9.697   3.741 134.066  0.00  0.00    +0.000 HD
ENDBRANCH  78  79
ENDBRANCH  77  78
ENDBRANCH  21  77
TORSDOF 20
ENDMDL
