MODEL 1
REMARK VINA RESULT:      -9.1      0.000      0.000
REMARK  Name = CHEMBL1779405
REMARK  15 active torsions:
REMARK  status: ('A' for Active; 'I' for Inactive)
REMARK    1  A    between atoms: C_1  and  O_2
REMARK    2  A    between atoms: O_2  and  C_3
REMARK    3  A    between atoms: C_6  and  S_7
REMARK    4  A    between atoms: S_7  and  N_10
REMARK    5  A    between atoms: C_13  and  C_14
REMARK    6  A    between atoms: C_13  and  N_28
REMARK    7  A    between atoms: C_17  and  C_18
REMARK    8  A    between atoms: C_18  and  N_19
REMARK    9  A    between atoms: C_25  and  O_26
REMARK   10  A    between atoms: O_26  and  C_27
REMARK   11  A    between atoms: C_32  and  C_33
REMARK   12  A    between atoms: N_35  and  C_36
REMARK   13  A    between atoms: N_35  and  C_37
REMARK   14  A    between atoms: C_45  and  O_46
REMARK   15  A    between atoms: O_46  and  C_47
REMARK                            x       y       z     vdW  Elec       q    Type
REMARK                         _______ _______ _______ _____ _____    ______ ____
ROOT
ATOM      1  N   UNL     1      -4.836   3.114 131.692  0.00  0.00    +0.000 N 
ATOM      2  C   UNL     1      -5.648   3.646 130.782  0.00  0.00    +0.000 C 
ATOM      3  O   UNL     1      -4.902   3.486 129.862  0.00  0.00    +0.000 OA
ATOM      4  C   UNL     1      -6.233   4.723 131.862  0.00  0.00    +0.000 C 
ATOM      5  C   UNL     1      -5.231   5.825 131.735  0.00  0.00    +0.000 A 
ATOM      6  C   UNL     1      -5.196   7.272 131.095  0.00  0.00    +0.000 A 
ATOM      7  C   UNL     1      -3.984   7.870 130.776  0.00  0.00    +0.000 A 
ATOM      8 CL   UNL     1      -3.595   8.508 129.163  0.00  0.00    +0.000 Cl
ATOM      9  C   UNL     1      -2.965   7.271 131.465  0.00  0.00    +0.000 A 
ATOM     10  C   UNL     1      -3.100   5.840 132.062  0.00  0.00    +0.000 A 
ATOM     11  C   UNL     1      -4.171   4.911 131.724  0.00  0.00    +0.000 A 
ENDROOT
BRANCH   4  12
ATOM     12  C   UNL     1      -7.456   5.208 131.286  0.00  0.00    +0.000 A 
ATOM     13  C   UNL     1      -7.648   6.571 130.995  0.00  0.00    +0.000 A 
ATOM     14  C   UNL     1      -8.877   6.995 130.611  0.00  0.00    +0.000 A 
ATOM     15  C   UNL     1      -9.637   6.034 129.981  0.00  0.00    +0.000 A 
ATOM     16  C   UNL     1      -9.158   4.693 129.929  0.00  0.00    +0.000 A 
ATOM     17  C   UNL     1      -8.338   4.196 130.923  0.00  0.00    +0.000 A 
BRANCH  17  18
ATOM     18  O   UNL     1      -8.459   2.828 131.325  0.00  0.00    +0.000 OA
ATOM     19  C   UNL     1      -9.511   1.797 131.598  0.00  0.00    +0.000 C 
ENDBRANCH  17  18
BRANCH  15  20
ATOM     20  C   UNL     1     -11.036   6.392 129.538  0.00  0.00    +0.000 C 
BRANCH  20  21
ATOM     21  N   UNL     1     -11.134   7.537 128.596  0.00  0.00    +0.000 NA
ATOM     22  C   UNL     1     -12.552   7.980 128.561  0.00  0.00    +0.000 C 
ATOM     23  C   UNL     1     -13.182   7.313 127.366  0.00  0.00    +0.000 C 
ATOM     24  C   UNL     1     -12.040   7.236 126.350  0.00  0.00    +0.000 C 
ATOM     25  C   UNL     1     -10.736   7.354 127.182  0.00  0.00    +0.000 C 
ENDBRANCH  20  21
ENDBRANCH  15  20
ENDBRANCH   4  12
BRANCH   4  26
ATOM     26  N   UNL     1      -6.127   4.227 133.450  0.00  0.00    +0.000 NA
ATOM     27  C   UNL     1      -7.266   3.359 134.075  0.00  0.00    +0.000 C 
ATOM     28  C   UNL     1      -8.255   4.316 134.736  0.00  0.00    +0.000 C 
ATOM     29  C   UNL     1      -7.357   5.372 135.245  0.00  0.00    +0.000 C 
ATOM     30  C   UNL     1      -6.025   5.290 134.468  0.00  0.00    +0.000 C 
BRANCH  30  31
ATOM     31  C   UNL     1      -4.874   4.923 135.468  0.00  0.00    +0.000 C 
ATOM     32  O   UNL     1      -4.721   3.773 135.891  0.00  0.00    +0.000 OA
ATOM     33  N   UNL     1      -4.019   5.947 135.870  0.00  0.00    +0.000 N 
ATOM     34  C   UNL     1      -4.084   7.305 135.411  0.00  0.00    +0.000 C 
ATOM     35  C   UNL     1      -3.007   5.689 136.864  0.00  0.00    +0.000 C 
ENDBRANCH  30  31
ENDBRANCH   4  26
BRANCH   1  36
ATOM     36  S   UNL     1      -5.435   1.298 130.559  0.00  0.00    +0.000 S 
ATOM     37  O   UNL     1      -6.376   0.681 131.561  0.00  0.00    +0.000 OA
ATOM     38  O   UNL     1      -4.326   0.562 130.024  0.00  0.00    +0.000 OA
BRANCH  36  42
ATOM     39  C   UNL     1      -8.745   0.723 126.655  0.00  0.00    +0.000 A 
ATOM     40  C   UNL     1      -8.327   1.958 127.126  0.00  0.00    +0.000 A 
ATOM     41  C   UNL     1      -7.304   2.063 128.179  0.00  0.00    +0.000 A 
ATOM     42  C   UNL     1      -6.670   0.920 128.845  0.00  0.00    +0.000 A 
ATOM     43  C   UNL     1      -7.199  -0.292 128.400  0.00  0.00    +0.000 A 
ATOM     44  C   UNL     1      -8.165  -0.373 127.280  0.00  0.00    +0.000 A 
BRANCH  39  46
ATOM     45  C   UNL     1      -9.512   1.711 124.598  0.00  0.00    +0.000 C 
ATOM     46  O   UNL     1      -9.595   0.658 125.574  0.00  0.00    +0.000 OA
ENDBRANCH  39  46
BRANCH  43  47
ATOM     47  O   UNL     1      -6.803  -1.408 129.057  0.00  0.00    +0.000 OA
ATOM     48  C   UNL     1      -7.849  -2.056 129.760  0.00  0.00    +0.000 C 
ENDBRANCH  43  47
ENDBRANCH  36  42
ENDBRANCH   1  36
TORSDOF 10
ENDMDL
MODEL 2
REMARK VINA RESULT:      -9.1      3.663      6.990
REMARK  Name = CHEMBL1779405
REMARK  15 active torsions:
REMARK  status: ('A' for Active; 'I' for Inactive)
REMARK    1  A    between atoms: C_1  and  O_2
REMARK    2  A    between atoms: O_2  and  C_3
REMARK    3  A    between atoms: C_6  and  S_7
REMARK    4  A    between atoms: S_7  and  N_10
REMARK    5  A    between atoms: C_13  and  C_14
REMARK    6  A    between atoms: C_13  and  N_28
REMARK    7  A    between atoms: C_17  and  C_18
REMARK    8  A    between atoms: C_18  and  N_19
REMARK    9  A    between atoms: C_25  and  O_26
REMARK   10  A    between atoms: O_26  and  C_27
REMARK   11  A    between atoms: C_32  and  C_33
REMARK   12  A    between atoms: N_35  and  C_36
REMARK   13  A    between atoms: N_35  and  C_37
REMARK   14  A    between atoms: C_45  and  O_46
REMARK   15  A    between atoms: O_46  and  C_47
REMARK                            x       y       z     vdW  Elec       q    Type
REMARK                         _______ _______ _______ _____ _____    ______ ____
ROOT
ATOM      1  N   UNL     1      -7.266   4.183 127.560  0.00  0.00    +0.000 N 
ATOM      2  C   UNL     1      -7.317   2.975 128.114  0.00  0.00    +0.000 C 
ATOM      3  O   UNL     1      -8.510   2.907 128.119  0.00  0.00    +0.000 OA
ATOM      4  C   UNL     1      -5.988   3.277 129.015  0.00  0.00    +0.000 C 
ATOM      5  C   UNL     1      -6.599   3.942 130.207  0.00  0.00    +0.000 A 
ATOM      6  C   UNL     1      -6.892   3.550 131.711  0.00  0.00    +0.000 A 
ATOM      7  C   UNL     1      -7.851   4.237 132.442  0.00  0.00    +0.000 A 
ATOM      8 CL   UNL     1      -9.204   3.445 133.281  0.00  0.00    +0.000 Cl
ATOM      9  C   UNL     1      -8.109   5.449 131.863  0.00  0.00    +0.000 A 
ATOM     10  C   UNL     1      -7.779   5.739 130.370  0.00  0.00    +0.000 A 
ATOM     11  C   UNL     1      -7.439   4.711 129.394  0.00  0.00    +0.000 A 
ENDROOT
BRANCH   4  12
ATOM     12  C   UNL     1      -5.527   1.989 129.451  0.00  0.00    +0.000 A 
ATOM     13  C   UNL     1      -5.395   1.673 130.815  0.00  0.00    +0.000 A 
ATOM     14  C   UNL     1      -4.798   0.507 131.166  0.00  0.00    +0.000 A 
ATOM     15  C   UNL     1      -4.916  -0.494 130.227  0.00  0.00    +0.000 A 
ATOM     16  C   UNL     1      -5.487  -0.193 128.957  0.00  0.00    +0.000 A 
ATOM     17  C   UNL     1      -5.377   1.074 128.416  0.00  0.00    +0.000 A 
BRANCH  17  18
ATOM     18  O   UNL     1      -5.224   1.229 127.001  0.00  0.00    +0.000 OA
ATOM     19  C   UNL     1      -4.866   0.427 125.786  0.00  0.00    +0.000 C 
ENDBRANCH  17  18
BRANCH  15  20
ATOM     20  C   UNL     1      -4.262  -1.828 130.504  0.00  0.00    +0.000 C 
BRANCH  20  21
ATOM     21  N   UNL     1      -5.118  -2.826 131.196  0.00  0.00    +0.000 NA
ATOM     22  C   UNL     1      -5.389  -3.933 130.244  0.00  0.00    +0.000 C 
ATOM     23  C   UNL     1      -6.728  -3.645 129.617  0.00  0.00    +0.000 C 
ATOM     24  C   UNL     1      -7.511  -2.955 130.735  0.00  0.00    +0.000 C 
ATOM     25  C   UNL     1      -6.440  -2.415 131.719  0.00  0.00    +0.000 C 
ENDBRANCH  20  21
ENDBRANCH  15  20
ENDBRANCH   4  12
BRANCH   4  26
ATOM     26  N   UNL     1      -4.964   4.420 128.362  0.00  0.00    +0.000 NA
ATOM     27  C   UNL     1      -4.017   4.036 127.181  0.00  0.00    +0.000 C 
ATOM     28  C   UNL     1      -2.685   3.602 127.789  0.00  0.00    +0.000 C 
ATOM     29  C   UNL     1      -2.579   4.503 128.954  0.00  0.00    +0.000 C 
ATOM     30  C   UNL     1      -3.990   5.037 129.283  0.00  0.00    +0.000 C 
BRANCH  30  31
ATOM     31  C   UNL     1      -4.011   6.590 129.073  0.00  0.00    +0.000 C 
ATOM     32  O   UNL     1      -3.879   7.098 127.956  0.00  0.00    +0.000 OA
ATOM     33  N   UNL     1      -4.183   7.390 130.201  0.00  0.00    +0.000 N 
ATOM     34  C   UNL     1      -4.383   6.904 131.536  0.00  0.00    +0.000 C 
ATOM     35  C   UNL     1      -4.109   8.825 130.081  0.00  0.00    +0.000 C 
ENDBRANCH  30  31
ENDBRANCH   4  26
BRANCH   1  36
ATOM     36  S   UNL     1      -7.945   2.963 125.830  0.00  0.00    +0.000 S 
ATOM     37  O   UNL     1      -6.663   2.920 125.040  0.00  0.00    +0.000 OA
ATOM     38  O   UNL     1      -9.169   3.428 125.244  0.00  0.00    +0.000 OA
BRANCH  36  42
ATOM     39  C   UNL     1      -8.718  -2.111 125.400  0.00  0.00    +0.000 A 
ATOM     40  C   UNL     1      -8.461  -1.477 126.605  0.00  0.00    +0.000 A 
ATOM     41  C   UNL     1      -8.347  -0.012 126.685  0.00  0.00    +0.000 A 
ATOM     42  C   UNL     1      -8.447   0.897 125.538  0.00  0.00    +0.000 A 
ATOM     43  C   UNL     1      -8.608   0.199 124.341  0.00  0.00    +0.000 A 
ATOM     44  C   UNL     1      -8.806  -1.269 124.299  0.00  0.00    +0.000 A 
BRANCH  39  46
ATOM     45  C   UNL     1      -8.042  -4.296 124.650  0.00  0.00    +0.000 C 
ATOM     46  O   UNL     1      -8.961  -3.466 125.380  0.00  0.00    +0.000 OA
ENDBRANCH  39  46
BRANCH  43  47
ATOM     47  O   UNL     1      -8.554   0.925 123.199  0.00  0.00    +0.000 OA
ATOM     48  C   UNL     1      -9.827   1.211 122.646  0.00  0.00    +0.000 C 
ENDBRANCH  43  47
ENDBRANCH  36  42
ENDBRANCH   1  36
TORSDOF 10
ENDMDL
MODEL 3
REMARK VINA RESULT:      -9.0      1.400      2.036
REMARK  Name = CHEMBL1779405
REMARK  15 active torsions:
REMARK  status: ('A' for Active; 'I' for Inactive)
REMARK    1  A    between atoms: C_1  and  O_2
REMARK    2  A    between atoms: O_2  and  C_3
REMARK    3  A    between atoms: C_6  and  S_7
REMARK    4  A    between atoms: S_7  and  N_10
REMARK    5  A    between atoms: C_13  and  C_14
REMARK    6  A    between atoms: C_13  and  N_28
REMARK    7  A    between atoms: C_17  and  C_18
REMARK    8  A    between atoms: C_18  and  N_19
REMARK    9  A    between atoms: C_25  and  O_26
REMARK   10  A    between atoms: O_26  and  C_27
REMARK   11  A    between atoms: C_32  and  C_33
REMARK   12  A    between atoms: N_35  and  C_36
REMARK   13  A    between atoms: N_35  and  C_37
REMARK   14  A    between atoms: C_45  and  O_46
REMARK   15  A    between atoms: O_46  and  C_47
REMARK                            x       y       z     vdW  Elec       q    Type
REMARK                         _______ _______ _______ _____ _____    ______ ____
ROOT
ATOM      1  N   UNL     1      -4.991   3.109 130.232  0.00  0.00    +0.000 N 
ATOM      2  C   UNL     1      -5.871   3.888 129.609  0.00  0.00    +0.000 C 
ATOM      3  O   UNL     1      -5.228   4.005 128.609  0.00  0.00    +0.000 OA
ATOM      4  C   UNL     1      -6.308   4.601 131.013  0.00  0.00    +0.000 C 
ATOM      5  C   UNL     1      -5.286   5.688 131.109  0.00  0.00    +0.000 A 
ATOM      6  C   UNL     1      -5.266   7.259 130.921  0.00  0.00    +0.000 A 
ATOM      7  C   UNL     1      -4.073   7.921 130.665  0.00  0.00    +0.000 A 
ATOM      8 CL   UNL     1      -3.826   9.005 129.278  0.00  0.00    +0.000 Cl
ATOM      9  C   UNL     1      -3.011   7.142 131.035  0.00  0.00    +0.000 A 
ATOM     10  C   UNL     1      -3.134   5.599 131.198  0.00  0.00    +0.000 A 
ATOM     11  C   UNL     1      -4.266   4.815 130.718  0.00  0.00    +0.000 A 
ENDROOT
BRANCH   4  12
ATOM     12  C   UNL     1      -7.565   5.238 130.738  0.00  0.00    +0.000 A 
ATOM     13  C   UNL     1      -7.760   6.615 130.950  0.00  0.00    +0.000 A 
ATOM     14  C   UNL     1      -9.010   7.128 130.834  0.00  0.00    +0.000 A 
ATOM     15  C   UNL     1      -9.830   6.433 129.974  0.00  0.00    +0.000 A 
ATOM     16  C   UNL     1      -9.377   5.198 129.425  0.00  0.00    +0.000 A 
ATOM     17  C   UNL     1      -8.488   4.401 130.119  0.00  0.00    +0.000 A 
BRANCH  17  18
ATOM     18  O   UNL     1      -8.597   2.976 130.033  0.00  0.00    +0.000 OA
ATOM     19  C   UNL     1      -9.575   1.877 130.314  0.00  0.00    +0.000 C 
ENDBRANCH  17  18
BRANCH  15  20
ATOM     20  C   UNL     1     -11.255   6.903 129.792  0.00  0.00    +0.000 C 
BRANCH  20  21
ATOM     21  N   UNL     1     -11.443   8.006 128.815  0.00  0.00    +0.000 NA
ATOM     22  C   UNL     1     -12.799   7.867 128.226  0.00  0.00    +0.000 C 
ATOM     23  C   UNL     1     -12.630   7.127 126.924  0.00  0.00    +0.000 C 
ATOM     24  C   UNL     1     -11.266   7.595 126.416  0.00  0.00    +0.000 C 
ATOM     25  C   UNL     1     -10.518   8.128 127.666  0.00  0.00    +0.000 C 
ENDBRANCH  20  21
ENDBRANCH  15  20
ENDBRANCH   4  12
BRANCH   4  26
ATOM     26  N   UNL     1      -6.060   3.658 132.366  0.00  0.00    +0.000 NA
ATOM     27  C   UNL     1      -6.926   2.378 132.595  0.00  0.00    +0.000 C 
ATOM     28  C   UNL     1      -8.124   2.787 133.448  0.00  0.00    +0.000 C 
ATOM     29  C   UNL     1      -7.529   3.810 134.331  0.00  0.00    +0.000 C 
ATOM     30  C   UNL     1      -6.229   4.321 133.673  0.00  0.00    +0.000 C 
BRANCH  30  31
ATOM     31  C   UNL     1      -5.012   3.949 134.588  0.00  0.00    +0.000 C 
ATOM     32  O   UNL     1      -4.378   2.900 134.436  0.00  0.00    +0.000 OA
ATOM     33  N   UNL     1      -4.664   4.848 135.594  0.00  0.00    +0.000 N 
ATOM     34  C   UNL     1      -5.306   6.109 135.833  0.00  0.00    +0.000 C 
ATOM     35  C   UNL     1      -3.619   4.512 136.529  0.00  0.00    +0.000 C 
ENDBRANCH  30  31
ENDBRANCH   4  26
BRANCH   1  36
ATOM     36  S   UNL     1      -5.763   1.710 128.686  0.00  0.00    +0.000 S 
ATOM     37  O   UNL     1      -6.420   0.692 129.582  0.00  0.00    +0.000 OA
ATOM     38  O   UNL     1      -4.779   1.326 127.715  0.00  0.00    +0.000 OA
BRANCH  36  42
ATOM     39  C   UNL     1      -9.424   1.381 125.078  0.00  0.00    +0.000 A 
ATOM     40  C   UNL     1      -9.229   0.420 126.058  0.00  0.00    +0.000 A 
ATOM     41  C   UNL     1      -8.233   0.612 127.124  0.00  0.00    +0.000 A 
ATOM     42  C   UNL     1      -7.346   1.775 127.238  0.00  0.00    +0.000 A 
ATOM     43  C   UNL     1      -7.519   2.660 126.174  0.00  0.00    +0.000 A 
ATOM     44  C   UNL     1      -8.587   2.486 125.161  0.00  0.00    +0.000 A 
BRANCH  39  46
ATOM     45  C   UNL     1     -10.138   0.743 122.870  0.00  0.00    +0.000 C 
ATOM     46  O   UNL     1     -10.458   1.239 124.181  0.00  0.00    +0.000 OA
ENDBRANCH  39  46
BRANCH  43  47
ATOM     47  O   UNL     1      -6.644   3.691 126.089  0.00  0.00    +0.000 OA
ATOM     48  C   UNL     1      -5.691   3.544 125.050  0.00  0.00    +0.000 C 
ENDBRANCH  43  47
ENDBRANCH  36  42
ENDBRANCH   1  36
TORSDOF 10
ENDMDL
MODEL 4
REMARK VINA RESULT:      -8.6      2.485      3.689
REMARK  Name = CHEMBL1779405
REMARK  15 active torsions:
REMARK  status: ('A' for Active; 'I' for Inactive)
REMARK    1  A    between atoms: C_1  and  O_2
REMARK    2  A    between atoms: O_2  and  C_3
REMARK    3  A    between atoms: C_6  and  S_7
REMARK    4  A    between atoms: S_7  and  N_10
REMARK    5  A    between atoms: C_13  and  C_14
REMARK    6  A    between atoms: C_13  and  N_28
REMARK    7  A    between atoms: C_17  and  C_18
REMARK    8  A    between atoms: C_18  and  N_19
REMARK    9  A    between atoms: C_25  and  O_26
REMARK   10  A    between atoms: O_26  and  C_27
REMARK   11  A    between atoms: C_32  and  C_33
REMARK   12  A    between atoms: N_35  and  C_36
REMARK   13  A    between atoms: N_35  and  C_37
REMARK   14  A    between atoms: C_45  and  O_46
REMARK   15  A    between atoms: O_46  and  C_47
REMARK                            x       y       z     vdW  Elec       q    Type
REMARK                         _______ _______ _______ _____ _____    ______ ____
ROOT
ATOM      1  N   UNL     1      -5.838   1.620 129.402  0.00  0.00    +0.000 N 
ATOM      2  C   UNL     1      -6.204   2.786 128.877  0.00  0.00    +0.000 C 
ATOM      3  O   UNL     1      -5.245   2.896 128.173  0.00  0.00    +0.000 OA
ATOM      4  C   UNL     1      -6.897   3.257 130.280  0.00  0.00    +0.000 C 
ATOM      5  C   UNL     1      -5.723   3.849 130.992  0.00  0.00    +0.000 A 
ATOM      6  C   UNL     1      -5.221   5.305 131.356  0.00  0.00    +0.000 A 
ATOM      7  C   UNL     1      -3.884   5.534 131.649  0.00  0.00    +0.000 A 
ATOM      8 CL   UNL     1      -2.889   6.751 130.819  0.00  0.00    +0.000 Cl
ATOM      9  C   UNL     1      -3.267   4.362 131.991  0.00  0.00    +0.000 A 
ATOM     10  C   UNL     1      -3.845   2.975 131.588  0.00  0.00    +0.000 A 
ATOM     11  C   UNL     1      -4.902   2.786 130.602  0.00  0.00    +0.000 A 
ENDROOT
BRANCH   4  12
ATOM     12  C   UNL     1      -7.760   4.348 129.926  0.00  0.00    +0.000 A 
ATOM     13  C   UNL     1      -8.206   4.542 128.606  0.00  0.00    +0.000 A 
ATOM     14  C   UNL     1      -8.878   5.679 128.299  0.00  0.00    +0.000 A 
ATOM     15  C   UNL     1      -9.566   6.234 129.355  0.00  0.00    +0.000 A 
ATOM     16  C   UNL     1      -9.396   5.687 130.660  0.00  0.00    +0.000 A 
ATOM     17  C   UNL     1      -8.210   5.078 131.021  0.00  0.00    +0.000 A 
BRANCH  17  18
ATOM     18  O   UNL     1      -7.723   5.213 132.360  0.00  0.00    +0.000 OA
ATOM     19  C   UNL     1      -8.135   5.782 133.684  0.00  0.00    +0.000 C 
ENDBRANCH  17  18
BRANCH  15  20
ATOM     20  C   UNL     1     -10.326   7.520 129.129  0.00  0.00    +0.000 C 
BRANCH  20  21
ATOM     21  N   UNL     1     -11.728   7.527 129.623  0.00  0.00    +0.000 NA
ATOM     22  C   UNL     1     -12.499   6.542 128.823  0.00  0.00    +0.000 C 
ATOM     23  C   UNL     1     -13.183   7.318 127.727  0.00  0.00    +0.000 C 
ATOM     24  C   UNL     1     -13.487   8.670 128.375  0.00  0.00    +0.000 C 
ATOM     25  C   UNL     1     -12.510   8.783 129.576  0.00  0.00    +0.000 C 
ENDBRANCH  20  21
ENDBRANCH  15  20
ENDBRANCH   4  12
BRANCH   4  26
ATOM     26  N   UNL     1      -7.399   1.998 131.251  0.00  0.00    +0.000 NA
ATOM     27  C   UNL     1      -8.739   1.258 130.942  0.00  0.00    +0.000 C 
ATOM     28  C   UNL     1      -9.835   1.946 131.752  0.00  0.00    +0.000 C 
ATOM     29  C   UNL     1      -9.112   2.311 132.987  0.00  0.00    +0.000 C 
ATOM     30  C   UNL     1      -7.598   2.306 132.680  0.00  0.00    +0.000 C 
BRANCH  30  31
ATOM     31  C   UNL     1      -6.907   1.191 133.539  0.00  0.00    +0.000 C 
ATOM     32  O   UNL     1      -7.152  -0.007 133.370  0.00  0.00    +0.000 OA
ATOM     33  N   UNL     1      -5.998   1.599 134.512  0.00  0.00    +0.000 N 
ATOM     34  C   UNL     1      -5.612   2.958 134.765  0.00  0.00    +0.000 C 
ATOM     35  C   UNL     1      -5.408   0.625 135.398  0.00  0.00    +0.000 C 
ENDBRANCH  30  31
ENDBRANCH   4  26
BRANCH   1  36
ATOM     36  S   UNL     1      -6.363   0.997 127.334  0.00  0.00    +0.000 S 
ATOM     37  O   UNL     1      -7.865   1.076 127.427  0.00  0.00    +0.000 OA
ATOM     38  O   UNL     1      -5.702  -0.204 126.910  0.00  0.00    +0.000 OA
BRANCH  36  42
ATOM     39  C   UNL     1      -6.185   3.621 122.906  0.00  0.00    +0.000 A 
ATOM     40  C   UNL     1      -5.603   4.067 124.081  0.00  0.00    +0.000 A 
ATOM     41  C   UNL     1      -5.598   3.231 125.293  0.00  0.00    +0.000 A 
ATOM     42  C   UNL     1      -6.220   1.907 125.395  0.00  0.00    +0.000 A 
ATOM     43  C   UNL     1      -6.873   1.552 124.215  0.00  0.00    +0.000 A 
ATOM     44  C   UNL     1      -6.790   2.373 122.984  0.00  0.00    +0.000 A 
BRANCH  39  46
ATOM     45  C   UNL     1      -6.752   3.908 120.584  0.00  0.00    +0.000 C 
ATOM     46  O   UNL     1      -6.049   4.362 121.753  0.00  0.00    +0.000 OA
ENDBRANCH  39  46
BRANCH  43  47
ATOM     47  O   UNL     1      -7.616   0.420 124.245  0.00  0.00    +0.000 OA
ATOM     48  C   UNL     1      -6.971  -0.700 123.663  0.00  0.00    +0.000 C 
ENDBRANCH  43  47
ENDBRANCH  36  42
ENDBRANCH   1  36
TORSDOF 10
ENDMDL
MODEL 5
REMARK VINA RESULT:      -8.3      3.502      8.067
REMARK  Name = CHEMBL1779405
REMARK  15 active torsions:
REMARK  status: ('A' for Active; 'I' for Inactive)
REMARK    1  A    between atoms: C_1  and  O_2
REMARK    2  A    between atoms: O_2  and  C_3
REMARK    3  A    between atoms: C_6  and  S_7
REMARK    4  A    between atoms: S_7  and  N_10
REMARK    5  A    between atoms: C_13  and  C_14
REMARK    6  A    between atoms: C_13  and  N_28
REMARK    7  A    between atoms: C_17  and  C_18
REMARK    8  A    between atoms: C_18  and  N_19
REMARK    9  A    between atoms: C_25  and  O_26
REMARK   10  A    between atoms: O_26  and  C_27
REMARK   11  A    between atoms: C_32  and  C_33
REMARK   12  A    between atoms: N_35  and  C_36
REMARK   13  A    between atoms: N_35  and  C_37
REMARK   14  A    between atoms: C_45  and  O_46
REMARK   15  A    between atoms: O_46  and  C_47
REMARK                            x       y       z     vdW  Elec       q    Type
REMARK                         _______ _______ _______ _____ _____    ______ ____
ROOT
ATOM      1  N   UNL     1      -4.874   0.858 127.168  0.00  0.00    +0.000 N 
ATOM      2  C   UNL     1      -5.330   1.420 128.284  0.00  0.00    +0.000 C 
ATOM      3  O   UNL     1      -4.306   1.308 128.890  0.00  0.00    +0.000 OA
ATOM      4  C   UNL     1      -6.822   0.797 128.046  0.00  0.00    +0.000 C 
ATOM      5  C   UNL     1      -6.672  -0.548 128.683  0.00  0.00    +0.000 A 
ATOM      6  C   UNL     1      -7.163  -1.242 130.018  0.00  0.00    +0.000 A 
ATOM      7  C   UNL     1      -6.502  -2.359 130.512  0.00  0.00    +0.000 A 
ATOM      8 CL   UNL     1      -5.859  -2.470 132.166  0.00  0.00    +0.000 Cl
ATOM      9  C   UNL     1      -5.764  -2.948 129.523  0.00  0.00    +0.000 A 
ATOM     10  C   UNL     1      -5.333  -2.178 128.242  0.00  0.00    +0.000 A 
ATOM     11  C   UNL     1      -5.418  -0.730 128.091  0.00  0.00    +0.000 A 
ENDROOT
BRANCH   4  12
ATOM     12  C   UNL     1      -7.690   1.562 128.896  0.00  0.00    +0.000 A 
ATOM     13  C   UNL     1      -8.448   0.960 129.917  0.00  0.00    +0.000 A 
ATOM     14  C   UNL     1      -9.373   1.701 130.574  0.00  0.00    +0.000 A 
ATOM     15  C   UNL     1      -9.092   3.049 130.618  0.00  0.00    +0.000 A 
ATOM     16  C   UNL     1      -7.991   3.555 129.869  0.00  0.00    +0.000 A 
ATOM     17  C   UNL     1      -7.586   2.935 128.702  0.00  0.00    +0.000 A 
BRANCH  17  18
ATOM     18  O   UNL     1      -7.094   3.725 127.614  0.00  0.00    +0.000 OA
ATOM     19  C   UNL     1      -7.530   4.837 126.709  0.00  0.00    +0.000 C 
ENDBRANCH  17  18
BRANCH  15  20
ATOM     20  C   UNL     1     -10.073   3.972 131.303  0.00  0.00    +0.000 C 
BRANCH  20  21
ATOM     21  N   UNL     1      -9.914   5.416 130.992  0.00  0.00    +0.000 NA
ATOM     22  C   UNL     1     -10.449   6.192 132.140  0.00  0.00    +0.000 C 
ATOM     23  C   UNL     1     -11.866   6.565 131.786  0.00  0.00    +0.000 C 
ATOM     24  C   UNL     1     -11.821   6.757 130.269  0.00  0.00    +0.000 C 
ATOM     25  C   UNL     1     -10.567   5.979 129.789  0.00  0.00    +0.000 C 
ENDBRANCH  20  21
ENDBRANCH  15  20
ENDBRANCH   4  12
BRANCH   4  26
ATOM     26  N   UNL     1      -7.184   0.479 126.451  0.00  0.00    +0.000 NA
ATOM     27  C   UNL     1      -7.560   1.649 125.487  0.00  0.00    +0.000 C 
ATOM     28  C   UNL     1      -9.081   1.786 125.510  0.00  0.00    +0.000 C 
ATOM     29  C   UNL     1      -9.507   0.379 125.650  0.00  0.00    +0.000 C 
ATOM     30  C   UNL     1      -8.315  -0.435 126.200  0.00  0.00    +0.000 C 
BRANCH  30  31
ATOM     31  C   UNL     1      -7.881  -1.493 125.128  0.00  0.00    +0.000 C 
ATOM     32  O   UNL     1      -7.404  -1.159 124.039  0.00  0.00    +0.000 OA
ATOM     33  N   UNL     1      -8.055  -2.839 125.444  0.00  0.00    +0.000 N 
ATOM     34  C   UNL     1      -8.562  -3.336 126.690  0.00  0.00    +0.000 C 
ATOM     35  C   UNL     1      -7.767  -3.851 124.457  0.00  0.00    +0.000 C 
ENDBRANCH  30  31
ENDBRANCH   4  26
BRANCH   1  36
ATOM     36  S   UNL     1      -3.779   2.793 127.136  0.00  0.00    +0.000 S 
ATOM     37  O   UNL     1      -4.441   3.431 125.943  0.00  0.00    +0.000 OA
ATOM     38  O   UNL     1      -2.354   2.648 127.212  0.00  0.00    +0.000 OA
BRANCH  36  42
ATOM     39  C   UNL     1      -3.404   7.203 129.771  0.00  0.00    +0.000 A 
ATOM     40  C   UNL     1      -3.481   7.143 128.389  0.00  0.00    +0.000 A 
ATOM     41  C   UNL     1      -3.687   5.863 127.692  0.00  0.00    +0.000 A 
ATOM     42  C   UNL     1      -3.788   4.559 128.356  0.00  0.00    +0.000 A 
ATOM     43  C   UNL     1      -3.606   4.667 129.735  0.00  0.00    +0.000 A 
ATOM     44  C   UNL     1      -3.486   5.977 130.419  0.00  0.00    +0.000 A 
BRANCH  39  46
ATOM     45  C   UNL     1      -2.946   8.450 131.778  0.00  0.00    +0.000 C 
ATOM     46  O   UNL     1      -3.355   8.426 130.400  0.00  0.00    +0.000 OA
ENDBRANCH  39  46
BRANCH  43  47
ATOM     47  O   UNL     1      -3.521   3.509 130.433  0.00  0.00    +0.000 OA
ATOM     48  C   UNL     1      -4.134   3.568 131.709  0.00  0.00    +0.000 C 
ENDBRANCH  43  47
ENDBRANCH  36  42
ENDBRANCH   1  36
TORSDOF 10
ENDMDL
MODEL 6
REMARK VINA RESULT:      -8.1      3.448      8.791
REMARK  Name = CHEMBL1779405
REMARK  15 active torsions:
REMARK  status: ('A' for Active; 'I' for Inactive)
REMARK    1  A    between atoms: C_1  and  O_2
REMARK    2  A    between atoms: O_2  and  C_3
REMARK    3  A    between atoms: C_6  and  S_7
REMARK    4  A    between atoms: S_7  and  N_10
REMARK    5  A    between atoms: C_13  and  C_14
REMARK    6  A    between atoms: C_13  and  N_28
REMARK    7  A    between atoms: C_17  and  C_18
REMARK    8  A    between atoms: C_18  and  N_19
REMARK    9  A    between atoms: C_25  and  O_26
REMARK   10  A    between atoms: O_26  and  C_27
REMARK   11  A    between atoms: C_32  and  C_33
REMARK   12  A    between atoms: N_35  and  C_36
REMARK   13  A    between atoms: N_35  and  C_37
REMARK   14  A    between atoms: C_45  and  O_46
REMARK   15  A    between atoms: O_46  and  C_47
REMARK                            x       y       z     vdW  Elec       q    Type
REMARK                         _______ _______ _______ _____ _____    ______ ____
ROOT
ATOM      1  N   UNL     1      -7.743   4.193 127.651  0.00  0.00    +0.000 N 
ATOM      2  C   UNL     1      -6.971   3.729 128.629  0.00  0.00    +0.000 C 
ATOM      3  O   UNL     1      -6.466   4.783 128.880  0.00  0.00    +0.000 OA
ATOM      4  C   UNL     1      -6.776   2.298 127.864  0.00  0.00    +0.000 C 
ATOM      5  C   UNL     1      -5.613   2.607 126.977  0.00  0.00    +0.000 A 
ATOM      6  C   UNL     1      -4.074   2.243 126.941  0.00  0.00    +0.000 A 
ATOM      7  C   UNL     1      -3.182   3.031 126.226  0.00  0.00    +0.000 A 
ATOM      8 CL   UNL     1      -1.717   3.749 126.932  0.00  0.00    +0.000 Cl
ATOM      9  C   UNL     1      -3.852   3.784 125.301  0.00  0.00    +0.000 A 
ATOM     10  C   UNL     1      -5.374   4.083 125.424  0.00  0.00    +0.000 A 
ATOM     11  C   UNL     1      -6.158   3.848 126.631  0.00  0.00    +0.000 A 
ENDROOT
BRANCH   4  12
ATOM     12  C   UNL     1      -6.299   1.394 128.872  0.00  0.00    +0.000 A 
ATOM     13  C   UNL     1      -5.045   0.765 128.769  0.00  0.00    +0.000 A 
ATOM     14  C   UNL     1      -4.719  -0.204 129.660  0.00  0.00    +0.000 A 
ATOM     15  C   UNL     1      -5.337  -0.078 130.885  0.00  0.00    +0.000 A 
ATOM     16  C   UNL     1      -6.342   0.917 131.058  0.00  0.00    +0.000 A 
ATOM     17  C   UNL     1      -7.120   1.328 129.993  0.00  0.00    +0.000 A 
BRANCH  17  18
ATOM     18  O   UNL     1      -8.493   1.668 130.207  0.00  0.00    +0.000 OA
ATOM     19  C   UNL     1      -9.568   1.521 131.241  0.00  0.00    +0.000 C 
ENDBRANCH  17  18
BRANCH  15  20
ATOM     20  C   UNL     1      -5.066  -1.121 131.944  0.00  0.00    +0.000 C 
BRANCH  20  21
ATOM     21  N   UNL     1      -6.049  -2.234 132.008  0.00  0.00    +0.000 NA
ATOM     22  C   UNL     1      -5.304  -3.510 131.853  0.00  0.00    +0.000 C 
ATOM     23  C   UNL     1      -5.398  -3.891 130.398  0.00  0.00    +0.000 C 
ATOM     24  C   UNL     1      -6.776  -3.378 129.978  0.00  0.00    +0.000 C 
ATOM     25  C   UNL     1      -7.151  -2.292 131.021  0.00  0.00    +0.000 C 
ENDBRANCH  20  21
ENDBRANCH  15  20
ENDBRANCH   4  12
BRANCH   4  26
ATOM     26  N   UNL     1      -8.018   1.904 126.824  0.00  0.00    +0.000 NA
ATOM     27  C   UNL     1      -9.042   0.792 127.216  0.00  0.00    +0.000 C 
ATOM     28  C   UNL     1      -8.523  -0.525 126.643  0.00  0.00    +0.000 C 
ATOM     29  C   UNL     1      -7.908  -0.080 125.377  0.00  0.00    +0.000 C 
ATOM     30  C   UNL     1      -7.629   1.435 125.480  0.00  0.00    +0.000 C 
BRANCH  30  31
ATOM     31  C   UNL     1      -8.497   2.187 124.413  0.00  0.00    +0.000 C 
ATOM     32  O   UNL     1      -9.649   2.560 124.654  0.00  0.00    +0.000 OA
ATOM     33  N   UNL     1      -7.921   2.424 123.166  0.00  0.00    +0.000 N 
ATOM     34  C   UNL     1      -6.581   2.070 122.795  0.00  0.00    +0.000 C 
ATOM     35  C   UNL     1      -8.706   3.022 122.114  0.00  0.00    +0.000 C 
ENDBRANCH  30  31
ENDBRANCH   4  26
BRANCH   1  36
ATOM     36  S   UNL     1      -8.740   5.087 129.425  0.00  0.00    +0.000 S 
ATOM     37  O   UNL     1      -9.876   4.111 129.588  0.00  0.00    +0.000 OA
ATOM     38  O   UNL     1      -8.977   6.497 129.302  0.00  0.00    +0.000 OA
BRANCH  36  42
ATOM     39  C   UNL     1      -7.679   4.897 134.462  0.00  0.00    +0.000 A 
ATOM     40  C   UNL     1      -7.061   4.090 133.521  0.00  0.00    +0.000 A 
ATOM     41  C   UNL     1      -7.330   4.255 132.083  0.00  0.00    +0.000 A 
ATOM     42  C   UNL     1      -8.273   5.224 131.516  0.00  0.00    +0.000 A 
ATOM     43  C   UNL     1      -8.936   5.941 132.513  0.00  0.00    +0.000 A 
ATOM     44  C   UNL     1      -8.585   5.815 133.947  0.00  0.00    +0.000 A 
BRANCH  39  46
ATOM     45  C   UNL     1      -5.897   4.704 136.068  0.00  0.00    +0.000 C 
ATOM     46  O   UNL     1      -7.301   4.816 135.784  0.00  0.00    +0.000 OA
ENDBRANCH  39  46
BRANCH  43  47
ATOM     47  O   UNL     1      -9.945   6.752 132.113  0.00  0.00    +0.000 OA
ATOM     48  C   UNL     1     -11.218   6.131 132.138  0.00  0.00    +0.000 C 
ENDBRANCH  43  47
ENDBRANCH  36  42
ENDBRANCH   1  36
TORSDOF 10
ENDMDL
MODEL 7
REMARK VINA RESULT:      -7.7      2.680      3.780
REMARK  Name = CHEMBL1779405
REMARK  15 active torsions:
REMARK  status: ('A' for Active; 'I' for Inactive)
REMARK    1  A    between atoms: C_1  and  O_2
REMARK    2  A    between atoms: O_2  and  C_3
REMARK    3  A    between atoms: C_6  and  S_7
REMARK    4  A    between atoms: S_7  and  N_10
REMARK    5  A    between atoms: C_13  and  C_14
REMARK    6  A    between atoms: C_13  and  N_28
REMARK    7  A    between atoms: C_17  and  C_18
REMARK    8  A    between atoms: C_18  and  N_19
REMARK    9  A    between atoms: C_25  and  O_26
REMARK   10  A    between atoms: O_26  and  C_27
REMARK   11  A    between atoms: C_32  and  C_33
REMARK   12  A    between atoms: N_35  and  C_36
REMARK   13  A    between atoms: N_35  and  C_37
REMARK   14  A    between atoms: C_45  and  O_46
REMARK   15  A    between atoms: O_46  and  C_47
REMARK                            x       y       z     vdW  Elec       q    Type
REMARK                         _______ _______ _______ _____ _____    ______ ____
ROOT
ATOM      1  N   UNL     1      -4.562   0.783 129.372  0.00  0.00    +0.000 N 
ATOM      2  C   UNL     1      -5.747   1.198 128.934  0.00  0.00    +0.000 C 
ATOM      3  O   UNL     1      -5.555   0.895 127.794  0.00  0.00    +0.000 OA
ATOM      4  C   UNL     1      -5.768   2.429 130.008  0.00  0.00    +0.000 C 
ATOM      5  C   UNL     1      -5.024   3.481 129.249  0.00  0.00    +0.000 A 
ATOM      6  C   UNL     1      -5.390   4.822 128.493  0.00  0.00    +0.000 A 
ATOM      7  C   UNL     1      -4.535   5.343 127.533  0.00  0.00    +0.000 A 
ATOM      8 CL   UNL     1      -5.040   5.740 125.875  0.00  0.00    +0.000 Cl
ATOM      9  C   UNL     1      -3.278   4.825 127.687  0.00  0.00    +0.000 A 
ATOM     10  C   UNL     1      -3.020   3.496 128.454  0.00  0.00    +0.000 A 
ATOM     11  C   UNL     1      -4.067   2.552 128.827  0.00  0.00    +0.000 A 
ENDROOT
BRANCH   4  12
ATOM     12  C   UNL     1      -7.139   2.854 130.067  0.00  0.00    +0.000 A 
ATOM     13  C   UNL     1      -8.186   2.044 129.593  0.00  0.00    +0.000 A 
ATOM     14  C   UNL     1      -9.437   2.562 129.518  0.00  0.00    +0.000 A 
ATOM     15  C   UNL     1      -9.689   3.566 130.427  0.00  0.00    +0.000 A 
ATOM     16  C   UNL     1      -8.620   4.067 131.225  0.00  0.00    +0.000 A 
ATOM     17  C   UNL     1      -7.321   4.048 130.757  0.00  0.00    +0.000 A 
BRANCH  17  18
ATOM     18  O   UNL     1      -6.430   5.116 131.094  0.00  0.00    +0.000 OA
ATOM     19  C   UNL     1      -6.462   6.528 131.597  0.00  0.00    +0.000 C 
ENDBRANCH  17  18
BRANCH  15  20
ATOM     20  C   UNL     1     -11.044   4.234 130.412  0.00  0.00    +0.000 C 
BRANCH  20  21
ATOM     21  N   UNL     1     -11.069   5.615 129.864  0.00  0.00    +0.000 NA
ATOM     22  C   UNL     1     -10.850   6.557 130.991  0.00  0.00    +0.000 C 
ATOM     23  C   UNL     1     -12.213   7.017 131.440  0.00  0.00    +0.000 C 
ATOM     24  C   UNL     1     -13.032   7.038 130.148  0.00  0.00    +0.000 C 
ATOM     25  C   UNL     1     -12.281   6.101 129.166  0.00  0.00    +0.000 C 
ENDBRANCH  20  21
ENDBRANCH  15  20
ENDBRANCH   4  12
BRANCH   4  26
ATOM     26  N   UNL     1      -4.856   2.159 131.376  0.00  0.00    +0.000 NA
ATOM     27  C   UNL     1      -5.300   1.077 132.411  0.00  0.00    +0.000 C 
ATOM     28  C   UNL     1      -6.155   1.779 133.464  0.00  0.00    +0.000 C 
ATOM     29  C   UNL     1      -5.493   3.096 133.558  0.00  0.00    +0.000 C 
ATOM     30  C   UNL     1      -4.659   3.312 132.277  0.00  0.00    +0.000 C 
BRANCH  30  31
ATOM     31  C   UNL     1      -3.142   3.398 132.663  0.00  0.00    +0.000 C 
ATOM     32  O   UNL     1      -2.585   2.510 133.316  0.00  0.00    +0.000 OA
ATOM     33  N   UNL     1      -2.433   4.521 132.244  0.00  0.00    +0.000 N 
ATOM     34  C   UNL     1      -2.972   5.589 131.451  0.00  0.00    +0.000 C 
ATOM     35  C   UNL     1      -1.063   4.701 132.656  0.00  0.00    +0.000 C 
ENDBRANCH  30  31
ENDBRANCH   4  26
BRANCH   1  36
ATOM     36  S   UNL     1      -5.552  -1.162 128.947  0.00  0.00    +0.000 S 
ATOM     37  O   UNL     1      -6.591  -1.154 130.038  0.00  0.00    +0.000 OA
ATOM     38  O   UNL     1      -4.633  -2.254 128.797  0.00  0.00    +0.000 OA
BRANCH  36  42
ATOM     39  C   UNL     1      -8.711  -3.362 125.524  0.00  0.00    +0.000 A 
ATOM     40  C   UNL     1      -8.950  -3.354 126.889  0.00  0.00    +0.000 A 
ATOM     41  C   UNL     1      -8.065  -2.624 127.813  0.00  0.00    +0.000 A 
ATOM     42  C   UNL     1      -6.860  -1.891 127.410  0.00  0.00    +0.000 A 
ATOM     43  C   UNL     1      -6.616  -2.015 126.042  0.00  0.00    +0.000 A 
ATOM     44  C   UNL     1      -7.568  -2.682 125.122  0.00  0.00    +0.000 A 
BRANCH  39  46
ATOM     45  C   UNL     1      -9.720  -3.400 123.340  0.00  0.00    +0.000 C 
ATOM     46  O   UNL     1      -9.632  -3.930 124.673  0.00  0.00    +0.000 OA
ENDBRANCH  39  46
BRANCH  43  47
ATOM     47  O   UNL     1      -5.445  -1.511 125.583  0.00  0.00    +0.000 OA
ATOM     48  C   UNL     1      -5.035  -2.065 124.344  0.00  0.00    +0.000 C 
ENDBRANCH  43  47
ENDBRANCH  36  42
ENDBRANCH   1  36
TORSDOF 10
ENDMDL
MODEL 8
REMARK VINA RESULT:      -7.5      3.828      7.041
REMARK  Name = CHEMBL1779405
REMARK  15 active torsions:
REMARK  status: ('A' for Active; 'I' for Inactive)
REMARK    1  A    between atoms: C_1  and  O_2
REMARK    2  A    between atoms: O_2  and  C_3
REMARK    3  A    between atoms: C_6  and  S_7
REMARK    4  A    between atoms: S_7  and  N_10
REMARK    5  A    between atoms: C_13  and  C_14
REMARK    6  A    between atoms: C_13  and  N_28
REMARK    7  A    between atoms: C_17  and  C_18
REMARK    8  A    between atoms: C_18  and  N_19
REMARK    9  A    between atoms: C_25  and  O_26
REMARK   10  A    between atoms: O_26  and  C_27
REMARK   11  A    between atoms: C_32  and  C_33
REMARK   12  A    between atoms: N_35  and  C_36
REMARK   13  A    between atoms: N_35  and  C_37
REMARK   14  A    between atoms: C_45  and  O_46
REMARK   15  A    between atoms: O_46  and  C_47
REMARK                            x       y       z     vdW  Elec       q    Type
REMARK                         _______ _______ _______ _____ _____    ______ ____
ROOT
ATOM      1  N   UNL     1      -4.794   0.251 131.496  0.00  0.00    +0.000 N 
ATOM      2  C   UNL     1      -4.996  -0.158 130.247  0.00  0.00    +0.000 C 
ATOM      3  O   UNL     1      -3.847  -0.390 130.019  0.00  0.00    +0.000 OA
ATOM      4  C   UNL     1      -6.214   0.912 130.041  0.00  0.00    +0.000 C 
ATOM      5  C   UNL     1      -5.455   2.127 129.611  0.00  0.00    +0.000 A 
ATOM      6  C   UNL     1      -5.229   2.915 128.258  0.00  0.00    +0.000 A 
ATOM      7  C   UNL     1      -4.133   3.753 128.108  0.00  0.00    +0.000 A 
ATOM      8 CL   UNL     1      -2.969   3.622 126.770  0.00  0.00    +0.000 Cl
ATOM      9  C   UNL     1      -3.628   4.096 129.332  0.00  0.00    +0.000 A 
ATOM     10  C   UNL     1      -3.911   3.254 130.609  0.00  0.00    +0.000 A 
ATOM     11  C   UNL     1      -4.481   1.912 130.593  0.00  0.00    +0.000 A 
ENDROOT
BRANCH   4  12
ATOM     12  C   UNL     1      -6.935   0.447 128.890  0.00  0.00    +0.000 A 
ATOM     13  C   UNL     1      -7.150   1.268 127.769  0.00  0.00    +0.000 A 
ATOM     14  C   UNL     1      -7.979   0.836 126.786  0.00  0.00    +0.000 A 
ATOM     15  C   UNL     1      -8.054  -0.534 126.670  0.00  0.00    +0.000 A 
ATOM     16  C   UNL     1      -7.415  -1.351 127.647  0.00  0.00    +0.000 A 
ATOM     17  C   UNL     1      -7.255  -0.905 128.945  0.00  0.00    +0.000 A 
BRANCH  17  18
ATOM     18  O   UNL     1      -7.352  -1.834 130.030  0.00  0.00    +0.000 OA
ATOM     19  C   UNL     1      -7.925  -3.182 130.345  0.00  0.00    +0.000 C 
ENDBRANCH  17  18
BRANCH  15  20
ATOM     20  C   UNL     1      -8.971  -1.124 125.625  0.00  0.00    +0.000 C 
BRANCH  20  21
ATOM     21  N   UNL     1      -8.339  -1.414 124.312  0.00  0.00    +0.000 NA
ATOM     22  C   UNL     1      -8.617  -2.835 123.976  0.00  0.00    +0.000 C 
ATOM     23  C   UNL     1      -7.410  -3.625 124.410  0.00  0.00    +0.000 C 
ATOM     24  C   UNL     1      -6.244  -2.661 124.183  0.00  0.00    +0.000 C 
ATOM     25  C   UNL     1      -6.877  -1.245 124.154  0.00  0.00    +0.000 C 
ENDBRANCH  20  21
ENDBRANCH  15  20
ENDBRANCH   4  12
BRANCH   4  26
ATOM     26  N   UNL     1      -6.977   1.360 131.454  0.00  0.00    +0.000 NA
ATOM     27  C   UNL     1      -7.833   0.319 132.244  0.00  0.00    +0.000 C 
ATOM     28  C   UNL     1      -9.274   0.452 131.757  0.00  0.00    +0.000 C 
ATOM     29  C   UNL     1      -9.374   1.905 131.510  0.00  0.00    +0.000 C 
ATOM     30  C   UNL     1      -7.945   2.470 131.359  0.00  0.00    +0.000 C 
BRANCH  30  31
ATOM     31  C   UNL     1      -7.670   3.481 132.525  0.00  0.00    +0.000 C 
ATOM     32  O   UNL     1      -7.795   3.159 133.710  0.00  0.00    +0.000 OA
ATOM     33  N   UNL     1      -7.277   4.772 132.178  0.00  0.00    +0.000 N 
ATOM     34  C   UNL     1      -7.064   5.239 130.838  0.00  0.00    +0.000 C 
ATOM     35  C   UNL     1      -7.108   5.772 133.204  0.00  0.00    +0.000 C 
ENDBRANCH  30  31
ENDBRANCH   4  26
BRANCH   1  36
ATOM     36  S   UNL     1      -4.423  -1.931 131.708  0.00  0.00    +0.000 S 
ATOM     37  O   UNL     1      -3.145  -1.887 132.505  0.00  0.00    +0.000 OA
ATOM     38  O   UNL     1      -4.508  -2.651 130.470  0.00  0.00    +0.000 OA
BRANCH  36  42
ATOM     39  C   UNL     1      -6.678  -5.388 134.789  0.00  0.00    +0.000 A 
ATOM     40  C   UNL     1      -7.244  -4.164 134.472  0.00  0.00    +0.000 A 
ATOM     41  C   UNL     1      -6.602  -3.255 133.507  0.00  0.00    +0.000 A 
ATOM     42  C   UNL     1      -5.325  -3.519 132.836  0.00  0.00    +0.000 A 
ATOM     43  C   UNL     1      -4.755  -4.717 133.265  0.00  0.00    +0.000 A 
ATOM     44  C   UNL     1      -5.462  -5.653 134.172  0.00  0.00    +0.000 A 
BRANCH  39  46
ATOM     45  C   UNL     1      -7.807  -5.814 136.871  0.00  0.00    +0.000 C 
ATOM     46  O   UNL     1      -7.370  -6.275 135.582  0.00  0.00    +0.000 OA
ENDBRANCH  39  46
BRANCH  43  47
ATOM     47  O   UNL     1      -3.500  -4.986 132.831  0.00  0.00    +0.000 OA
ATOM     48  C   UNL     1      -2.575  -5.222 133.879  0.00  0.00    +0.000 C 
ENDBRANCH  43  47
ENDBRANCH  36  42
ENDBRANCH   1  36
TORSDOF 10
ENDMDL
MODEL 9
REMARK VINA RESULT:      -7.5      2.001      3.081
REMARK  Name = CHEMBL1779405
REMARK  15 active torsions:
REMARK  status: ('A' for Active; 'I' for Inactive)
REMARK    1  A    between atoms: C_1  and  O_2
REMARK    2  A    between atoms: O_2  and  C_3
REMARK    3  A    between atoms: C_6  and  S_7
REMARK    4  A    between atoms: S_7  and  N_10
REMARK    5  A    between atoms: C_13  and  C_14
REMARK    6  A    between atoms: C_13  and  N_28
REMARK    7  A    between atoms: C_17  and  C_18
REMARK    8  A    between atoms: C_18  and  N_19
REMARK    9  A    between atoms: C_25  and  O_26
REMARK   10  A    between atoms: O_26  and  C_27
REMARK   11  A    between atoms: C_32  and  C_33
REMARK   12  A    between atoms: N_35  and  C_36
REMARK   13  A    between atoms: N_35  and  C_37
REMARK   14  A    between atoms: C_45  and  O_46
REMARK   15  A    between atoms: O_46  and  C_47
REMARK                            x       y       z     vdW  Elec       q    Type
REMARK                         _______ _______ _______ _____ _____    ______ ____
ROOT
ATOM      1  N   UNL     1      -4.781   2.438 130.050  0.00  0.00    +0.000 N 
ATOM      2  C   UNL     1      -5.441   3.464 129.521  0.00  0.00    +0.000 C 
ATOM      3  O   UNL     1      -4.550   3.811 128.805  0.00  0.00    +0.000 OA
ATOM      4  C   UNL     1      -6.219   3.754 130.929  0.00  0.00    +0.000 C 
ATOM      5  C   UNL     1      -5.232   4.637 131.622  0.00  0.00    +0.000 A 
ATOM      6  C   UNL     1      -5.120   6.176 131.969  0.00  0.00    +0.000 A 
ATOM      7  C   UNL     1      -3.885   6.747 132.245  0.00  0.00    +0.000 A 
ATOM      8 CL   UNL     1      -3.246   8.172 131.394  0.00  0.00    +0.000 Cl
ATOM      9  C   UNL     1      -2.983   5.778 132.588  0.00  0.00    +0.000 A 
ATOM     10  C   UNL     1      -3.185   4.284 132.202  0.00  0.00    +0.000 A 
ATOM     11  C   UNL     1      -4.167   3.818 131.230  0.00  0.00    +0.000 A 
ENDROOT
BRANCH   4  12
ATOM     12  C   UNL     1      -7.339   4.581 130.577  0.00  0.00    +0.000 A 
ATOM     13  C   UNL     1      -7.847   4.621 129.266  0.00  0.00    +0.000 A 
ATOM     14  C   UNL     1      -8.793   5.542 128.955  0.00  0.00    +0.000 A 
ATOM     15  C   UNL     1      -9.576   5.931 130.019  0.00  0.00    +0.000 A 
ATOM     16  C   UNL     1      -9.245   5.480 131.329  0.00  0.00    +0.000 A 
ATOM     17  C   UNL     1      -7.935   5.201 131.670  0.00  0.00    +0.000 A 
BRANCH  17  18
ATOM     18  O   UNL     1      -7.470   5.490 132.992  0.00  0.00    +0.000 OA
ATOM     19  C   UNL     1      -8.001   5.835 134.350  0.00  0.00    +0.000 C 
ENDBRANCH  17  18
BRANCH  15  20
ATOM     20  C   UNL     1     -10.643   6.976 129.789  0.00  0.00    +0.000 C 
BRANCH  20  21
ATOM     21  N   UNL     1     -11.393   6.852 128.512  0.00  0.00    +0.000 NA
ATOM     22  C   UNL     1     -11.414   8.189 127.864  0.00  0.00    +0.000 C 
ATOM     23  C   UNL     1     -12.724   8.830 128.240  0.00  0.00    +0.000 C 
ATOM     24  C   UNL     1     -13.693   7.650 128.331  0.00  0.00    +0.000 C 
ATOM     25  C   UNL     1     -12.801   6.397 128.536  0.00  0.00    +0.000 C 
ENDBRANCH  20  21
ENDBRANCH  15  20
ENDBRANCH   4  12
BRANCH   4  26
ATOM     26  N   UNL     1      -6.368   2.418 131.915  0.00  0.00    +0.000 NA
ATOM     27  C   UNL     1      -7.407   1.304 131.570  0.00  0.00    +0.000 C 
ATOM     28  C   UNL     1      -8.699   1.643 132.310  0.00  0.00    +0.000 C 
ATOM     29  C   UNL     1      -8.182   2.228 133.564  0.00  0.00    +0.000 C 
ATOM     30  C   UNL     1      -6.723   2.674 133.324  0.00  0.00    +0.000 C 
BRANCH  30  31
ATOM     31  C   UNL     1      -5.774   1.833 134.245  0.00  0.00    +0.000 C 
ATOM     32  O   UNL     1      -5.708   0.603 134.162  0.00  0.00    +0.000 OA
ATOM     33  N   UNL     1      -4.998   2.524 135.173  0.00  0.00    +0.000 N 
ATOM     34  C   UNL     1      -4.969   3.950 135.326  0.00  0.00    +0.000 C 
ATOM     35  C   UNL     1      -4.183   1.795 136.113  0.00  0.00    +0.000 C 
ENDBRANCH  30  31
ENDBRANCH   4  26
BRANCH   1  36
ATOM     36  S   UNL     1      -5.147   1.679 127.993  0.00  0.00    +0.000 S 
ATOM     37  O   UNL     1      -5.672   0.307 128.326  0.00  0.00    +0.000 OA
ATOM     38  O   UNL     1      -4.032   1.859 127.107  0.00  0.00    +0.000 OA
BRANCH  36  42
ATOM     39  C   UNL     1      -8.351   2.334 124.014  0.00  0.00    +0.000 A 
ATOM     40  C   UNL     1      -8.006   1.091 124.520  0.00  0.00    +0.000 A 
ATOM     41  C   UNL     1      -7.164   0.965 125.721  0.00  0.00    +0.000 A 
ATOM     42  C   UNL     1      -6.590   2.095 126.459  0.00  0.00    +0.000 A 
ATOM     43  C   UNL     1      -6.889   3.314 125.851  0.00  0.00    +0.000 A 
ATOM     44  C   UNL     1      -7.808   3.418 124.693  0.00  0.00    +0.000 A 
BRANCH  39  46
ATOM     45  C   UNL     1      -8.828   3.095 121.781  0.00  0.00    +0.000 C 
ATOM     46  O   UNL     1      -9.254   2.423 122.978  0.00  0.00    +0.000 OA
ENDBRANCH  39  46
BRANCH  43  47
ATOM     47  O   UNL     1      -6.280   4.414 126.354  0.00  0.00    +0.000 OA
ATOM     48  C   UNL     1      -5.159   4.839 125.599  0.00  0.00    +0.000 C 
ENDBRANCH  43  47
ENDBRANCH  36  42
ENDBRANCH   1  36
TORSDOF 10
ENDMDL
