MODEL 1
REMARK VINA RESULT:      -7.4      0.000      0.000
REMARK  Name = CHEMBL1093340
REMARK  7 active torsions:
REMARK  status: ('A' for Active; 'I' for Inactive)
REMARK    1  A    between atoms: C_1  and  O_2
REMARK    2  A    between atoms: O_2  and  C_3
REMARK    3  A    between atoms: C_8  and  C_9
REMARK    4  A    between atoms: N_11  and  C_12
REMARK    5  A    between atoms: N_11  and  C_13
REMARK    6  A    between atoms: C_16  and  O_17
REMARK    7  A    between atoms: O_17  and  C_18
REMARK                            x       y       z     vdW  Elec       q    Type
REMARK                         _______ _______ _______ _____ _____    ______ ____
ROOT
ATOM      1  C   UNL     1      -7.313   0.322 123.814  0.00  0.00    +0.000 C 
ATOM      2  O   UNL     1      -6.765  -0.185 122.826  0.00  0.00    +0.000 OA
ATOM      3  N   UNL     1      -7.673   1.696 123.801  0.00  0.00    +0.000 N 
ATOM      4  C   UNL     1      -8.313   2.420 124.903  0.00  0.00    +0.000 C 
ENDROOT
BRANCH   1  10
ATOM      5  C   UNL     1      -8.092  -2.980 128.854  0.00  0.00    +0.000 A 
ATOM      6  C   UNL     1      -8.898  -3.702 127.969  0.00  0.00    +0.000 A 
ATOM      7  C   UNL     1      -9.012  -3.326 126.624  0.00  0.00    +0.000 A 
ATOM      8  C   UNL     1      -8.306  -2.191 126.232  0.00  0.00    +0.000 A 
ATOM      9  O   UNL     1      -8.301  -1.653 124.986  0.00  0.00    +0.000 OA
ATOM     10  C   UNL     1      -7.515  -0.534 124.992  0.00  0.00    +0.000 A 
ATOM     11  C   UNL     1      -7.004  -0.379 126.275  0.00  0.00    +0.000 A 
ATOM     12  C   UNL     1      -7.513  -1.435 127.079  0.00  0.00    +0.000 A 
ATOM     13  C   UNL     1      -7.404  -1.832 128.424  0.00  0.00    +0.000 A 
BRANCH   5  15
ATOM     14  C   UNL     1      -6.751  -2.879 130.792  0.00  0.00    +0.000 C 
ATOM     15  O   UNL     1      -7.983  -3.271 130.190  0.00  0.00    +0.000 OA
ENDBRANCH   5  15
ENDBRANCH   1  10
BRANCH   3  16
ATOM     16  C   UNL     1      -7.426   2.493 122.618  0.00  0.00    +0.000 A 
ATOM     17  C   UNL     1      -6.138   2.747 122.146  0.00  0.00    +0.000 A 
ATOM     18  C   UNL     1      -5.940   3.514 120.991  0.00  0.00    +0.000 A 
ATOM     19  C   UNL     1      -7.036   4.031 120.317  0.00  0.00    +0.000 A 
ATOM     20  N   UNL     1      -8.297   3.802 120.738  0.00  0.00    +0.000 NA
ATOM     21  C   UNL     1      -8.459   3.045 121.859  0.00  0.00    +0.000 A 
BRANCH  19  22
ATOM     22  O   UNL     1      -6.967   4.801 119.187  0.00  0.00    +0.000 OA
ATOM     23  C   UNL     1      -5.810   5.619 119.047  0.00  0.00    +0.000 C 
ENDBRANCH  19  22
ENDBRANCH   3  16
TORSDOF 4
ENDMDL
MODEL 2
REMARK VINA RESULT:      -7.3      6.986      8.465
REMARK  Name = CHEMBL1093340
REMARK  7 active torsions:
REMARK  status: ('A' for Active; 'I' for Inactive)
REMARK    1  A    between atoms: C_1  and  O_2
REMARK    2  A    between atoms: O_2  and  C_3
REMARK    3  A    between atoms: C_8  and  C_9
REMARK    4  A    between atoms: N_11  and  C_12
REMARK    5  A    between atoms: N_11  and  C_13
REMARK    6  A    between atoms: C_16  and  O_17
REMARK    7  A    between atoms: O_17  and  C_18
REMARK                            x       y       z     vdW  Elec       q    Type
REMARK                         _______ _______ _______ _____ _____    ______ ____
ROOT
ATOM      1  C   UNL     1     -10.672   4.044 130.453  0.00  0.00    +0.000 C 
ATOM      2  O   UNL     1     -11.795   3.897 129.951  0.00  0.00    +0.000 OA
ATOM      3  N   UNL     1     -10.175   5.348 130.716  0.00  0.00    +0.000 N 
ATOM      4  C   UNL     1      -8.865   5.661 131.294  0.00  0.00    +0.000 C 
ENDROOT
BRANCH   1  10
ATOM      5  C   UNL     1      -7.612  -1.065 131.656  0.00  0.00    +0.000 A 
ATOM      6  C   UNL     1      -7.028  -0.719 130.435  0.00  0.00    +0.000 A 
ATOM      7  C   UNL     1      -7.401   0.451 129.759  0.00  0.00    +0.000 A 
ATOM      8  C   UNL     1      -8.395   1.224 130.356  0.00  0.00    +0.000 A 
ATOM      9  O   UNL     1      -8.909   2.376 129.854  0.00  0.00    +0.000 OA
ATOM     10  C   UNL     1      -9.878   2.833 130.705  0.00  0.00    +0.000 A 
ATOM     11  C   UNL     1      -9.959   1.948 131.774  0.00  0.00    +0.000 A 
ATOM     12  C   UNL     1      -9.015   0.909 131.554  0.00  0.00    +0.000 A 
ATOM     13  C   UNL     1      -8.620  -0.265 132.220  0.00  0.00    +0.000 A 
BRANCH   5  15
ATOM     14  C   UNL     1      -6.780  -3.269 131.535  0.00  0.00    +0.000 C 
ATOM     15  O   UNL     1      -7.323  -2.221 132.335  0.00  0.00    +0.000 OA
ENDBRANCH   5  15
ENDBRANCH   1  10
BRANCH   3  16
ATOM     16  C   UNL     1     -10.997   6.504 130.423  0.00  0.00    +0.000 A 
ATOM     17  C   UNL     1     -12.061   6.887 131.240  0.00  0.00    +0.000 A 
ATOM     18  C   UNL     1     -12.827   8.018 130.929  0.00  0.00    +0.000 A 
ATOM     19  C   UNL     1     -12.527   8.757 129.794  0.00  0.00    +0.000 A 
ATOM     20  N   UNL     1     -11.503   8.422 128.983  0.00  0.00    +0.000 NA
ATOM     21  C   UNL     1     -10.770   7.322 129.316  0.00  0.00    +0.000 A 
BRANCH  19  22
ATOM     22  O   UNL     1     -13.210   9.871 129.385  0.00  0.00    +0.000 OA
ATOM     23  C   UNL     1     -13.402  10.890 130.359  0.00  0.00    +0.000 C 
ENDBRANCH  19  22
ENDBRANCH   3  16
TORSDOF 4
ENDMDL
MODEL 3
REMARK VINA RESULT:      -6.9      3.708      6.108
REMARK  Name = CHEMBL1093340
REMARK  7 active torsions:
REMARK  status: ('A' for Active; 'I' for Inactive)
REMARK    1  A    between atoms: C_1  and  O_2
REMARK    2  A    between atoms: O_2  and  C_3
REMARK    3  A    between atoms: C_8  and  C_9
REMARK    4  A    between atoms: N_11  and  C_12
REMARK    5  A    between atoms: N_11  and  C_13
REMARK    6  A    between atoms: C_16  and  O_17
REMARK    7  A    between atoms: O_17  and  C_18
REMARK                            x       y       z     vdW  Elec       q    Type
REMARK                         _______ _______ _______ _____ _____    ______ ____
ROOT
ATOM      1  C   UNL     1      -7.251  -2.557 128.173  0.00  0.00    +0.000 C 
ATOM      2  O   UNL     1      -6.542  -1.669 127.682  0.00  0.00    +0.000 OA
ATOM      3  N   UNL     1      -8.347  -3.081 127.435  0.00  0.00    +0.000 N 
ATOM      4  C   UNL     1      -9.268  -4.122 127.901  0.00  0.00    +0.000 C 
ENDROOT
BRANCH   1  10
ATOM      5  C   UNL     1      -6.257  -4.251 133.922  0.00  0.00    +0.000 A 
ATOM      6  C   UNL     1      -5.419  -5.152 133.259  0.00  0.00    +0.000 A 
ATOM      7  C   UNL     1      -5.282  -5.122 131.865  0.00  0.00    +0.000 A 
ATOM      8  C   UNL     1      -6.042  -4.173 131.185  0.00  0.00    +0.000 A 
ATOM      9  O   UNL     1      -6.068  -3.997 129.839  0.00  0.00    +0.000 OA
ATOM     10  C   UNL     1      -6.946  -2.991 129.544  0.00  0.00    +0.000 A 
ATOM     11  C   UNL     1      -7.470  -2.516 130.741  0.00  0.00    +0.000 A 
ATOM     12  C   UNL     1      -6.900  -3.275 131.798  0.00  0.00    +0.000 A 
ATOM     13  C   UNL     1      -7.016  -3.315 133.199  0.00  0.00    +0.000 A 
BRANCH   5  15
ATOM     14  C   UNL     1      -7.278  -3.203 135.772  0.00  0.00    +0.000 C 
ATOM     15  O   UNL     1      -6.467  -4.266 135.277  0.00  0.00    +0.000 OA
ENDBRANCH   5  15
ENDBRANCH   1  10
BRANCH   3  16
ATOM     16  C   UNL     1      -8.611  -2.596 126.097  0.00  0.00    +0.000 A 
ATOM     17  C   UNL     1      -8.419  -3.388 124.965  0.00  0.00    +0.000 A 
ATOM     18  C   UNL     1      -8.696  -2.885 123.687  0.00  0.00    +0.000 A 
ATOM     19  C   UNL     1      -9.158  -1.585 123.549  0.00  0.00    +0.000 A 
ATOM     20  N   UNL     1      -9.362  -0.790 124.619  0.00  0.00    +0.000 NA
ATOM     21  C   UNL     1      -9.093  -1.309 125.850  0.00  0.00    +0.000 A 
BRANCH  19  22
ATOM     22  O   UNL     1      -9.451  -0.984 122.355  0.00  0.00    +0.000 OA
ATOM     23  C   UNL     1     -10.114   0.274 122.424  0.00  0.00    +0.000 C 
ENDBRANCH  19  22
ENDBRANCH   3  16
TORSDOF 4
ENDMDL
MODEL 4
REMARK VINA RESULT:      -6.9      3.736      6.271
REMARK  Name = CHEMBL1093340
REMARK  7 active torsions:
REMARK  status: ('A' for Active; 'I' for Inactive)
REMARK    1  A    between atoms: C_1  and  O_2
REMARK    2  A    between atoms: O_2  and  C_3
REMARK    3  A    between atoms: C_8  and  C_9
REMARK    4  A    between atoms: N_11  and  C_12
REMARK    5  A    between atoms: N_11  and  C_13
REMARK    6  A    between atoms: C_16  and  O_17
REMARK    7  A    between atoms: O_17  and  C_18
REMARK                            x       y       z     vdW  Elec       q    Type
REMARK                         _______ _______ _______ _____ _____    ______ ____
ROOT
ATOM      1  C   UNL     1      -7.137  -2.774 128.259  0.00  0.00    +0.000 C 
ATOM      2  O   UNL     1      -6.345  -1.963 127.759  0.00  0.00    +0.000 OA
ATOM      3  N   UNL     1      -8.286  -3.186 127.533  0.00  0.00    +0.000 N 
ATOM      4  C   UNL     1      -9.304  -4.126 128.009  0.00  0.00    +0.000 C 
ENDROOT
BRANCH   1  10
ATOM      5  C   UNL     1      -5.738  -4.754 133.829  0.00  0.00    +0.000 A 
ATOM      6  C   UNL     1      -6.704  -3.796 134.152  0.00  0.00    +0.000 A 
ATOM      7  C   UNL     1      -7.365  -3.070 133.153  0.00  0.00    +0.000 A 
ATOM      8  C   UNL     1      -6.989  -3.336 131.838  0.00  0.00    +0.000 A 
ATOM      9  O   UNL     1      -7.492  -2.728 130.733  0.00  0.00    +0.000 OA
ATOM     10  C   UNL     1      -6.864  -3.234 129.628  0.00  0.00    +0.000 A 
ATOM     11  C   UNL     1      -5.955  -4.194 130.056  0.00  0.00    +0.000 A 
ATOM     12  C   UNL     1      -6.024  -4.260 131.474  0.00  0.00    +0.000 A 
ATOM     13  C   UNL     1      -5.378  -4.985 132.491  0.00  0.00    +0.000 A 
BRANCH   5  15
ATOM     14  C   UNL     1      -3.813  -6.038 134.287  0.00  0.00    +0.000 C 
ATOM     15  O   UNL     1      -5.024  -5.457 134.766  0.00  0.00    +0.000 OA
ENDBRANCH   5  15
ENDBRANCH   1  10
BRANCH   3  16
ATOM     16  C   UNL     1      -8.512  -2.678 126.195  0.00  0.00    +0.000 A 
ATOM     17  C   UNL     1      -8.221  -3.427 125.055  0.00  0.00    +0.000 A 
ATOM     18  C   UNL     1      -8.464  -2.904 123.778  0.00  0.00    +0.000 A 
ATOM     19  C   UNL     1      -8.992  -1.628 123.649  0.00  0.00    +0.000 A 
ATOM     20  N   UNL     1      -9.293  -0.876 124.728  0.00  0.00    +0.000 NA
ATOM     21  C   UNL     1      -9.054  -1.414 125.957  0.00  0.00    +0.000 A 
BRANCH  19  22
ATOM     22  O   UNL     1      -9.260  -1.011 122.458  0.00  0.00    +0.000 OA
ATOM     23  C   UNL     1     -10.104   0.134 122.513  0.00  0.00    +0.000 C 
ENDBRANCH  19  22
ENDBRANCH   3  16
TORSDOF 4
ENDMDL
MODEL 5
REMARK VINA RESULT:      -6.7      7.207      8.050
REMARK  Name = CHEMBL1093340
REMARK  7 active torsions:
REMARK  status: ('A' for Active; 'I' for Inactive)
REMARK    1  A    between atoms: C_1  and  O_2
REMARK    2  A    between atoms: O_2  and  C_3
REMARK    3  A    between atoms: C_8  and  C_9
REMARK    4  A    between atoms: N_11  and  C_12
REMARK    5  A    between atoms: N_11  and  C_13
REMARK    6  A    between atoms: C_16  and  O_17
REMARK    7  A    between atoms: O_17  and  C_18
REMARK                            x       y       z     vdW  Elec       q    Type
REMARK                         _______ _______ _______ _____ _____    ______ ____
ROOT
ATOM      1  C   UNL     1      -4.580   4.628 127.619  0.00  0.00    +0.000 C 
ATOM      2  O   UNL     1      -5.764   4.988 127.672  0.00  0.00    +0.000 OA
ATOM      3  N   UNL     1      -4.099   3.931 126.478  0.00  0.00    +0.000 N 
ATOM      4  C   UNL     1      -2.730   3.441 126.293  0.00  0.00    +0.000 C 
ENDROOT
BRANCH   1  10
ATOM      5  C   UNL     1      -1.086   6.044 132.382  0.00  0.00    +0.000 A 
ATOM      6  C   UNL     1      -1.695   4.884 132.869  0.00  0.00    +0.000 A 
ATOM      7  C   UNL     1      -2.594   4.153 132.082  0.00  0.00    +0.000 A 
ATOM      8  C   UNL     1      -2.862   4.659 130.811  0.00  0.00    +0.000 A 
ATOM      9  O   UNL     1      -3.715   4.114 129.907  0.00  0.00    +0.000 OA
ATOM     10  C   UNL     1      -3.734   4.901 128.789  0.00  0.00    +0.000 A 
ATOM     11  C   UNL     1      -2.856   5.959 128.997  0.00  0.00    +0.000 A 
ATOM     12  C   UNL     1      -2.298   5.814 130.296  0.00  0.00    +0.000 A 
ATOM     13  C   UNL     1      -1.391   6.529 131.099  0.00  0.00    +0.000 A 
BRANCH   5  15
ATOM     14  C   UNL     1      -0.662   7.067 134.465  0.00  0.00    +0.000 C 
ATOM     15  O   UNL     1      -0.238   6.826 133.125  0.00  0.00    +0.000 OA
ENDBRANCH   5  15
ENDBRANCH   1  10
BRANCH   3  16
ATOM     16  C   UNL     1      -4.989   3.671 125.366  0.00  0.00    +0.000 A 
ATOM     17  C   UNL     1      -5.836   2.563 125.333  0.00  0.00    +0.000 A 
ATOM     18  C   UNL     1      -6.691   2.351 124.243  0.00  0.00    +0.000 A 
ATOM     19  C   UNL     1      -6.688   3.249 123.186  0.00  0.00    +0.000 A 
ATOM     20  N   UNL     1      -5.888   4.336 123.184  0.00  0.00    +0.000 NA
ATOM     21  C   UNL     1      -5.074   4.520 124.261  0.00  0.00    +0.000 A 
BRANCH  19  22
ATOM     22  O   UNL     1      -7.469   3.141 122.067  0.00  0.00    +0.000 OA
ATOM     23  C   UNL     1      -6.985   3.782 120.892  0.00  0.00    +0.000 C 
ENDBRANCH  19  22
ENDBRANCH   3  16
TORSDOF 4
ENDMDL
MODEL 6
REMARK VINA RESULT:      -6.6      7.802     11.470
REMARK  Name = CHEMBL1093340
REMARK  7 active torsions:
REMARK  status: ('A' for Active; 'I' for Inactive)
REMARK    1  A    between atoms: C_1  and  O_2
REMARK    2  A    between atoms: O_2  and  C_3
REMARK    3  A    between atoms: C_8  and  C_9
REMARK    4  A    between atoms: N_11  and  C_12
REMARK    5  A    between atoms: N_11  and  C_13
REMARK    6  A    between atoms: C_16  and  O_17
REMARK    7  A    between atoms: O_17  and  C_18
REMARK                            x       y       z     vdW  Elec       q    Type
REMARK                         _______ _______ _______ _____ _____    ______ ____
ROOT
ATOM      1  C   UNL     1      -8.536   4.991 131.439  0.00  0.00    +0.000 C 
ATOM      2  O   UNL     1      -7.737   5.498 132.238  0.00  0.00    +0.000 OA
ATOM      3  N   UNL     1      -8.484   3.598 131.167  0.00  0.00    +0.000 N 
ATOM      4  C   UNL     1      -9.359   2.877 130.239  0.00  0.00    +0.000 C 
ENDROOT
BRANCH   1  10
ATOM      5  C   UNL     1     -12.523   8.810 128.904  0.00  0.00    +0.000 A 
ATOM      6  C   UNL     1     -11.608   8.689 127.854  0.00  0.00    +0.000 A 
ATOM      7  C   UNL     1     -10.489   7.852 127.962  0.00  0.00    +0.000 A 
ATOM      8  C   UNL     1     -10.331   7.178 129.171  0.00  0.00    +0.000 A 
ATOM      9  O   UNL     1      -9.308   6.342 129.481  0.00  0.00    +0.000 OA
ATOM     10  C   UNL     1      -9.481   5.891 130.761  0.00  0.00    +0.000 A 
ATOM     11  C   UNL     1     -10.652   6.451 131.256  0.00  0.00    +0.000 A 
ATOM     12  C   UNL     1     -11.200   7.284 130.244  0.00  0.00    +0.000 A 
ATOM     13  C   UNL     1     -12.322   8.123 130.113  0.00  0.00    +0.000 A 
BRANCH   5  15
ATOM     14  C   UNL     1     -13.471  10.835 129.657  0.00  0.00    +0.000 C 
ATOM     15  O   UNL     1     -13.606   9.651 128.873  0.00  0.00    +0.000 OA
ENDBRANCH   5  15
ENDBRANCH   1  10
BRANCH   3  16
ATOM     16  C   UNL     1      -7.513   2.768 131.849  0.00  0.00    +0.000 A 
ATOM     17  C   UNL     1      -6.201   2.628 131.396  0.00  0.00    +0.000 A 
ATOM     18  C   UNL     1      -5.289   1.823 132.091  0.00  0.00    +0.000 A 
ATOM     19  C   UNL     1      -5.698   1.156 133.235  0.00  0.00    +0.000 A 
ATOM     20  N   UNL     1      -6.956   1.271 133.709  0.00  0.00    +0.000 NA
ATOM     21  C   UNL     1      -7.819   2.067 133.018  0.00  0.00    +0.000 A 
BRANCH  19  22
ATOM     22  O   UNL     1      -4.901   0.337 133.988  0.00  0.00    +0.000 OA
ATOM     23  C   UNL     1      -3.537   0.723 134.119  0.00  0.00    +0.000 C 
ENDBRANCH  19  22
ENDBRANCH   3  16
TORSDOF 4
ENDMDL
MODEL 7
REMARK VINA RESULT:      -6.6      2.025      3.117
REMARK  Name = CHEMBL1093340
REMARK  7 active torsions:
REMARK  status: ('A' for Active; 'I' for Inactive)
REMARK    1  A    between atoms: C_1  and  O_2
REMARK    2  A    between atoms: O_2  and  C_3
REMARK    3  A    between atoms: C_8  and  C_9
REMARK    4  A    between atoms: N_11  and  C_12
REMARK    5  A    between atoms: N_11  and  C_13
REMARK    6  A    between atoms: C_16  and  O_17
REMARK    7  A    between atoms: O_17  and  C_18
REMARK                            x       y       z     vdW  Elec       q    Type
REMARK                         _______ _______ _______ _____ _____    ______ ____
ROOT
ATOM      1  C   UNL     1      -6.996  -0.676 125.651  0.00  0.00    +0.000 C 
ATOM      2  O   UNL     1      -6.950  -1.228 124.542  0.00  0.00    +0.000 OA
ATOM      3  N   UNL     1      -7.386   0.686 125.752  0.00  0.00    +0.000 N 
ATOM      4  C   UNL     1      -7.472   1.458 126.994  0.00  0.00    +0.000 C 
ENDROOT
BRANCH   1  10
ATOM      5  C   UNL     1      -5.543  -4.094 130.458  0.00  0.00    +0.000 A 
ATOM      6  C   UNL     1      -4.263  -3.735 130.025  0.00  0.00    +0.000 A 
ATOM      7  C   UNL     1      -4.083  -2.889 128.922  0.00  0.00    +0.000 A 
ATOM      8  C   UNL     1      -5.238  -2.456 128.275  0.00  0.00    +0.000 A 
ATOM      9  O   UNL     1      -5.278  -1.653 127.181  0.00  0.00    +0.000 OA
ATOM     10  C   UNL     1      -6.584  -1.466 126.820  0.00  0.00    +0.000 A 
ATOM     11  C   UNL     1      -7.380  -2.159 127.723  0.00  0.00    +0.000 A 
ATOM     12  C   UNL     1      -6.524  -2.803 128.657  0.00  0.00    +0.000 A 
ATOM     13  C   UNL     1      -6.684  -3.646 129.771  0.00  0.00    +0.000 A 
BRANCH   5  15
ATOM     14  C   UNL     1      -5.425  -4.457 132.786  0.00  0.00    +0.000 C 
ATOM     15  O   UNL     1      -5.777  -4.957 131.498  0.00  0.00    +0.000 OA
ENDBRANCH   5  15
ENDBRANCH   1  10
BRANCH   3  16
ATOM     16  C   UNL     1      -7.759   1.418 124.559  0.00  0.00    +0.000 A 
ATOM     17  C   UNL     1      -9.038   1.342 124.007  0.00  0.00    +0.000 A 
ATOM     18  C   UNL     1      -9.363   2.074 122.857  0.00  0.00    +0.000 A 
ATOM     19  C   UNL     1      -8.400   2.875 122.261  0.00  0.00    +0.000 A 
ATOM     20  N   UNL     1      -7.155   2.980 122.769  0.00  0.00    +0.000 NA
ATOM     21  C   UNL     1      -6.870   2.263 123.892  0.00  0.00    +0.000 A 
BRANCH  19  22
ATOM     22  O   UNL     1      -8.598   3.625 121.133  0.00  0.00    +0.000 OA
ATOM     23  C   UNL     1      -7.434   3.976 120.393  0.00  0.00    +0.000 C 
ENDBRANCH  19  22
ENDBRANCH   3  16
TORSDOF 4
ENDMDL
MODEL 8
REMARK VINA RESULT:      -6.5      7.056      8.190
REMARK  Name = CHEMBL1093340
REMARK  7 active torsions:
REMARK  status: ('A' for Active; 'I' for Inactive)
REMARK    1  A    between atoms: C_1  and  O_2
REMARK    2  A    between atoms: O_2  and  C_3
REMARK    3  A    between atoms: C_8  and  C_9
REMARK    4  A    between atoms: N_11  and  C_12
REMARK    5  A    between atoms: N_11  and  C_13
REMARK    6  A    between atoms: C_16  and  O_17
REMARK    7  A    between atoms: O_17  and  C_18
REMARK                            x       y       z     vdW  Elec       q    Type
REMARK                         _______ _______ _______ _____ _____    ______ ____
ROOT
ATOM      1  C   UNL     1      -9.255   1.434 131.672  0.00  0.00    +0.000 C 
ATOM      2  O   UNL     1     -10.379   1.347 132.187  0.00  0.00    +0.000 OA
ATOM      3  N   UNL     1      -8.789   2.687 131.190  0.00  0.00    +0.000 N 
ATOM      4  C   UNL     1      -7.491   2.925 130.553  0.00  0.00    +0.000 C 
ENDROOT
BRANCH   1  10
ATOM      5  C   UNL     1      -6.017  -3.699 131.406  0.00  0.00    +0.000 A 
ATOM      6  C   UNL     1      -6.661  -3.759 130.167  0.00  0.00    +0.000 A 
ATOM      7  C   UNL     1      -7.522  -2.735 129.748  0.00  0.00    +0.000 A 
ATOM      8  C   UNL     1      -7.716  -1.681 130.640  0.00  0.00    +0.000 A 
ATOM      9  O   UNL     1      -8.522  -0.609 130.433  0.00  0.00    +0.000 OA
ATOM     10  C   UNL     1      -8.473   0.198 131.536  0.00  0.00    +0.000 A 
ATOM     11  C   UNL     1      -7.600  -0.381 132.450  0.00  0.00    +0.000 A 
ATOM     12  C   UNL     1      -7.115  -1.591 131.884  0.00  0.00    +0.000 A 
ATOM     13  C   UNL     1      -6.248  -2.625 132.283  0.00  0.00    +0.000 A 
BRANCH   5  15
ATOM     14  C   UNL     1      -5.563  -5.189 133.177  0.00  0.00    +0.000 C 
ATOM     15  O   UNL     1      -5.206  -4.694 131.888  0.00  0.00    +0.000 OA
ENDBRANCH   5  15
ENDBRANCH   1  10
BRANCH   3  16
ATOM     16  C   UNL     1      -9.618   3.866 131.332  0.00  0.00    +0.000 A 
ATOM     17  C   UNL     1      -9.435   4.786 132.364  0.00  0.00    +0.000 A 
ATOM     18  C   UNL     1     -10.251   5.920 132.462  0.00  0.00    +0.000 A 
ATOM     19  C   UNL     1     -11.254   6.124 131.525  0.00  0.00    +0.000 A 
ATOM     20  N   UNL     1     -11.457   5.261 130.509  0.00  0.00    +0.000 NA
ATOM     21  C   UNL     1     -10.643   4.172 130.435  0.00  0.00    +0.000 A 
BRANCH  19  22
ATOM     22  O   UNL     1     -12.117   7.187 131.524  0.00  0.00    +0.000 OA
ATOM     23  C   UNL     1     -12.400   7.772 130.258  0.00  0.00    +0.000 C 
ENDBRANCH  19  22
ENDBRANCH   3  16
TORSDOF 4
ENDMDL
MODEL 9
REMARK VINA RESULT:      -6.4      4.706      5.220
REMARK  Name = CHEMBL1093340
REMARK  7 active torsions:
REMARK  status: ('A' for Active; 'I' for Inactive)
REMARK    1  A    between atoms: C_1  and  O_2
REMARK    2  A    between atoms: O_2  and  C_3
REMARK    3  A    between atoms: C_8  and  C_9
REMARK    4  A    between atoms: N_11  and  C_12
REMARK    5  A    between atoms: N_11  and  C_13
REMARK    6  A    between atoms: C_16  and  O_17
REMARK    7  A    between atoms: O_17  and  C_18
REMARK                            x       y       z     vdW  Elec       q    Type
REMARK                         _______ _______ _______ _____ _____    ______ ____
ROOT
ATOM      1  C   UNL     1      -7.709   3.872 126.897  0.00  0.00    +0.000 C 
ATOM      2  O   UNL     1      -7.983   4.994 126.450  0.00  0.00    +0.000 OA
ATOM      3  N   UNL     1      -7.294   2.838 126.016  0.00  0.00    +0.000 N 
ATOM      4  C   UNL     1      -6.952   1.468 126.410  0.00  0.00    +0.000 C 
ENDROOT
BRANCH   1  10
ATOM      5  C   UNL     1      -8.268   3.206 132.909  0.00  0.00    +0.000 A 
ATOM      6  C   UNL     1      -9.459   2.607 132.491  0.00  0.00    +0.000 A 
ATOM      7  C   UNL     1      -9.771   2.488 131.130  0.00  0.00    +0.000 A 
ATOM      8  C   UNL     1      -8.849   3.020 130.232  0.00  0.00    +0.000 A 
ATOM      9  O   UNL     1      -8.974   3.026 128.880  0.00  0.00    +0.000 OA
ATOM     10  C   UNL     1      -7.886   3.653 128.339  0.00  0.00    +0.000 A 
ATOM     11  C   UNL     1      -7.052   4.037 129.383  0.00  0.00    +0.000 A 
ATOM     12  C   UNL     1      -7.667   3.640 130.602  0.00  0.00    +0.000 A 
ATOM     13  C   UNL     1      -7.367   3.741 131.972  0.00  0.00    +0.000 A 
BRANCH   5  15
ATOM     14  C   UNL     1      -7.998   4.745 134.676  0.00  0.00    +0.000 C 
ATOM     15  O   UNL     1      -7.934   3.393 134.226  0.00  0.00    +0.000 OA
ENDBRANCH   5  15
ENDBRANCH   1  10
BRANCH   3  16
ATOM     16  C   UNL     1      -7.161   3.109 124.599  0.00  0.00    +0.000 A 
ATOM     17  C   UNL     1      -5.977   3.588 124.040  0.00  0.00    +0.000 A 
ATOM     18  C   UNL     1      -5.885   3.828 122.663  0.00  0.00    +0.000 A 
ATOM     19  C   UNL     1      -6.986   3.594 121.852  0.00  0.00    +0.000 A 
ATOM     20  N   UNL     1      -8.147   3.125 122.355  0.00  0.00    +0.000 NA
ATOM     21  C   UNL     1      -8.204   2.893 123.696  0.00  0.00    +0.000 A 
BRANCH  19  22
ATOM     22  O   UNL     1      -7.018   3.802 120.499  0.00  0.00    +0.000 OA
ATOM     23  C   UNL     1      -5.971   4.596 119.954  0.00  0.00    +0.000 C 
ENDBRANCH  19  22
ENDBRANCH   3  16
TORSDOF 4
ENDMDL
