MODEL 1
REMARK VINA RESULT:      -9.1      0.000      0.000
REMARK  Name = CHEMBL2369836
REMARK  22 active torsions:
REMARK  status: ('A' for Active; 'I' for Inactive)
REMARK    1  A    between atoms: C_2  and  C_4
REMARK    2  A    between atoms: C_4  and  N_5
REMARK    3  A    between atoms: C_6  and  C_8
REMARK    4  A    between atoms: C_8  and  C_9
REMARK    5  A    between atoms: C_8  and  N_16
REMARK    6  A    between atoms: C_9  and  C_10
REMARK    7  A    between atoms: C_10  and  C_11
REMARK    8  A    between atoms: C_11  and  N_12
REMARK    9  A    between atoms: C_17  and  C_19
REMARK   10  A    between atoms: C_24  and  C_26
REMARK   11  A    between atoms: C_35  and  C_36
REMARK   12  A    between atoms: C_36  and  C_37
REMARK   13  A    between atoms: C_40  and  O_41
REMARK   14  A    between atoms: C_47  and  C_48
REMARK   15  A    between atoms: C_48  and  C_49
REMARK   16  A    between atoms: C_58  and  C_59
REMARK   17  A    between atoms: C_59  and  C_60
REMARK   18  A    between atoms: C_60  and  C_61
REMARK   19  A    between atoms: C_61  and  C_62
REMARK   20  A    between atoms: C_62  and  N_63
REMARK   21  A    between atoms: C_70  and  C_71
REMARK   22  A    between atoms: C_71  and  C_72
REMARK                            x       y       z     vdW  Elec       q    Type
REMARK                         _______ _______ _______ _____ _____    ______ ____
ROOT
ATOM      1  C   UNL     1      -3.753   1.641 131.843  0.00  0.00    +0.000 C 
ATOM      2  C   UNL     1      -4.102  -0.966 131.965  0.00  0.00    +0.000 C 
ATOM      3  S   UNL     1      -4.789  -3.528 132.665  0.00  0.00    +0.000 S 
ATOM      4  S   UNL     1      -5.152  -6.045 133.990  0.00  0.00    +0.000 S 
ATOM      5  C   UNL     1      -5.910  -5.977 135.824  0.00  0.00    +0.000 C 
ATOM      6  C   UNL     1      -5.762  -6.554 137.212  0.00  0.00    +0.000 C 
ATOM      7  C   UNL     1      -6.136  -5.635 138.398  0.00  0.00    +0.000 C 
ATOM      8  O   UNL     1      -6.197  -6.099 139.541  0.00  0.00    +0.000 OA
ATOM      9  N   UNL     1      -6.357  -4.295 138.164  0.00  0.00    +0.000 N 
ATOM     10  C   UNL     1      -6.324  -3.651 136.862  0.00  0.00    +0.000 C 
ATOM     11  C   UNL     1      -4.735  -3.727 136.351  0.00  0.00    +0.000 C 
ATOM     12  O   UNL     1      -3.982  -4.753 136.308  0.00  0.00    +0.000 OA
ATOM     13  N   UNL     1      -4.239  -2.669 135.770  0.00  0.00    +0.000 N 
ATOM     14  C   UNL     1      -4.724  -1.364 135.927  0.00  0.00    +0.000 C 
ATOM     15  C   UNL     1      -5.985  -1.390 134.953  0.00  0.00    +0.000 C 
ATOM     16  O   UNL     1      -7.052  -2.054 134.856  0.00  0.00    +0.000 OA
ATOM     17  N   UNL     1      -5.855  -0.763 133.918  0.00  0.00    +0.000 N 
ATOM     18  C   UNL     1      -5.011   0.364 133.825  0.00  0.00    +0.000 C 
ATOM     19  C   UNL     1      -5.121   1.415 135.577  0.00  0.00    +0.000 C 
ATOM     20  O   UNL     1      -4.634   1.150 136.647  0.00  0.00    +0.000 OA
ATOM     21  N   UNL     1      -5.424   2.854 135.478  0.00  0.00    +0.000 N 
ATOM     22  C   UNL     1      -5.401   4.044 133.687  0.00  0.00    +0.000 C 
ATOM     23  C   UNL     1      -3.479   3.110 133.685  0.00  0.00    +0.000 C 
ATOM     24  O   UNL     1      -3.218   1.786 133.688  0.00  0.00    +0.000 OA
ATOM     25  N   UNL     1      -3.303   3.716 131.968  0.00  0.00    +0.000 N 
ATOM     26  H   UNL     1      -6.661  -3.673 138.925  0.00  0.00    +0.000 HD
ATOM     27  H   UNL     1      -3.291  -2.816 135.437  0.00  0.00    +0.000 HD
ATOM     28  H   UNL     1      -6.892  -0.682 133.631  0.00  0.00    +0.000 HD
ATOM     29  H   UNL     1      -4.597   3.391 135.967  0.00  0.00    +0.000 HD
ATOM     30  H   UNL     1      -2.612   4.326 131.333  0.00  0.00    +0.000 HD
ENDROOT
BRANCH   1  36
ATOM     31  C   UNL     1      -4.601   6.960 130.611  0.00  0.00    +0.000 C 
ATOM     32  C   UNL     1      -3.808   7.637 129.372  0.00  0.00    +0.000 C 
ATOM     33  C   UNL     1      -3.570   9.003 129.807  0.00  0.00    +0.000 C 
ATOM     34  C   UNL     1      -3.440   8.303 131.631  0.00  0.00    +0.000 C 
ATOM     35  N   UNL     1      -4.012   6.277 132.164  0.00  0.00    +0.000 N 
ATOM     36  C   UNL     1      -3.752   4.104 132.409  0.00  0.00    +0.000 C 
ATOM     37  O   UNL     1      -3.304   5.369 133.302  0.00  0.00    +0.000 OA
BRANCH  31  39
ATOM     38  N   UNL     1      -5.977   5.329 130.283  0.00  0.00    +0.000 N 
ATOM     39  C   UNL     1      -4.709   5.669 130.305  0.00  0.00    +0.000 C 
ATOM     40  O   UNL     1      -3.871   4.970 129.796  0.00  0.00    +0.000 OA
ATOM     41  H   UNL     1      -7.031   5.745 130.487  0.00  0.00    +0.000 HD
BRANCH  38  42
ATOM     42  C   UNL     1      -7.046   3.930 129.116  0.00  0.00    +0.000 C 
BRANCH  42  44
ATOM     43  N   UNL     1      -4.484   3.261 127.555  0.00  0.00    +0.000 N 
ATOM     44  C   UNL     1      -6.482   4.140 127.355  0.00  0.00    +0.000 C 
ATOM     45  O   UNL     1      -6.823   4.649 126.259  0.00  0.00    +0.000 OA
ATOM     46  H   UNL     1      -4.125   3.152 128.557  0.00  0.00    +0.000 HD
BRANCH  43  47
ATOM     47  C   UNL     1      -3.728   3.218 126.336  0.00  0.00    +0.000 C 
BRANCH  47  49
ATOM     48  N   UNL     1      -2.250   4.566 127.479  0.00  0.00    +0.000 N 
ATOM     49  C   UNL     1      -2.386   3.414 126.755  0.00  0.00    +0.000 C 
ATOM     50  O   UNL     1      -1.477   2.651 126.460  0.00  0.00    +0.000 OA
ATOM     51  H   UNL     1      -1.327   4.837 127.792  0.00  0.00    +0.000 HD
ATOM     52  H   UNL     1      -3.011   5.189 127.731  0.00  0.00    +0.000 HD
ENDBRANCH  47  49
ENDBRANCH  43  47
ENDBRANCH  42  44
BRANCH  42  53
ATOM     53  C   UNL     1      -8.681   4.068 129.042  0.00  0.00    +0.000 C 
BRANCH  53  54
ATOM     54  C   UNL     1      -9.220   3.336 130.071  0.00  0.00    +0.000 C 
BRANCH  54  55
ATOM     55  C   UNL     1     -10.042   3.864 131.014  0.00  0.00    +0.000 C 
BRANCH  55  56
ATOM     56  N   UNL     1     -10.727   5.016 130.456  0.00  0.00    +0.000 NA
ATOM     57  C   UNL     1     -11.018   5.904 131.347  0.00  0.00    +0.000 C 
ATOM     58  N   UNL     1     -10.648   5.713 132.665  0.00  0.00    +0.000 N 
ATOM     59  N   UNL     1     -11.681   7.066 130.994  0.00  0.00    +0.000 N 
ATOM     60  H   UNL     1     -10.152   4.868 132.974  0.00  0.00    +0.000 HD
ATOM     61  H   UNL     1     -10.837   6.365 133.407  0.00  0.00    +0.000 HD
ATOM     62  H   UNL     1     -11.987   7.252 130.023  0.00  0.00    +0.000 HD
ATOM     63  H   UNL     1     -11.937   7.799 131.644  0.00  0.00    +0.000 HD
ENDBRANCH  55  56
ENDBRANCH  54  55
ENDBRANCH  53  54
ENDBRANCH  42  53
ENDBRANCH  38  42
ENDBRANCH  31  39
ENDBRANCH   1  36
BRANCH  10  64
ATOM     64  C   UNL     1      -6.795  -2.305 137.115  0.00  0.00    +0.000 C 
BRANCH  64  65
ATOM     65  C   UNL     1      -7.954  -2.055 137.908  0.00  0.00    +0.000 A 
ATOM     66  C   UNL     1      -9.067  -2.730 137.506  0.00  0.00    +0.000 A 
ATOM     67  C   UNL     1     -10.198  -2.744 138.262  0.00  0.00    +0.000 A 
ATOM     68  C   UNL     1     -10.211  -2.037 139.439  0.00  0.00    +0.000 A 
ATOM     69  C   UNL     1      -9.105  -1.301 139.822  0.00  0.00    +0.000 A 
ATOM     70  C   UNL     1      -7.966  -1.304 139.056  0.00  0.00    +0.000 A 
BRANCH  68  71
ATOM     71  O   UNL     1     -11.275  -1.993 140.280  0.00  0.00    +0.000 OA
ATOM     72  H   UNL     1     -11.211  -2.569 141.058  0.00  0.00    +0.000 HD
ENDBRANCH  68  71
ENDBRANCH  64  65
ENDBRANCH  10  64
BRANCH  22  73
ATOM     73  C   UNL     1      -5.637   5.401 133.800  0.00  0.00    +0.000 C 
BRANCH  73  74
ATOM     74  C   UNL     1      -7.023   5.648 133.792  0.00  0.00    +0.000 C 
ATOM     75  N   UNL     1      -7.669   5.733 135.030  0.00  0.00    +0.000 N 
ATOM     76  O   UNL     1      -7.535   5.951 132.753  0.00  0.00    +0.000 OA
ATOM     77  H   UNL     1      -7.302   5.771 135.979  0.00  0.00    +0.000 HD
ATOM     78  H   UNL     1      -8.659   5.827 135.080  0.00  0.00    +0.000 HD
ENDBRANCH  73  74
ENDBRANCH  22  73
BRANCH  18  79
ATOM     79  C   UNL     1      -5.649   1.266 132.167  0.00  0.00    +0.000 C 
BRANCH  79  80
ATOM     80  C   UNL     1      -6.937   1.546 132.012  0.00  0.00    +0.000 C 
BRANCH  80  81
ATOM     81  C   UNL     1      -7.436   0.403 131.327  0.00  0.00    +0.000 C 
BRANCH  81  82
ATOM     82  C   UNL     1      -6.806   0.540 130.065  0.00  0.00    +0.000 C 
BRANCH  82  83
ATOM     83  N   UNL     1      -6.815  -0.754 129.427  0.00  0.00    +0.000 NA
ATOM     84  C   UNL     1      -5.810  -1.047 128.668  0.00  0.00    +0.000 C 
ATOM     85  N   UNL     1      -4.763  -0.166 128.454  0.00  0.00    +0.000 N 
ATOM     86  N   UNL     1      -5.770  -2.288 128.040  0.00  0.00    +0.000 N 
ATOM     87  H   UNL     1      -4.744   0.763 128.897  0.00  0.00    +0.000 HD
ATOM     88  H   UNL     1      -3.961  -0.355 127.873  0.00  0.00    +0.000 HD
ATOM     89  H   UNL     1      -6.523  -2.985 128.163  0.00  0.00    +0.000 HD
ATOM     90  H   UNL     1      -5.024  -2.602 127.431  0.00  0.00    +0.000 HD
ENDBRANCH  82  83
ENDBRANCH  81  82
ENDBRANCH  80  81
ENDBRANCH  79  80
ENDBRANCH  18  79
BRANCH  14  91
ATOM     91  C   UNL     1      -3.593  -0.537 135.521  0.00  0.00    +0.000 C 
BRANCH  91  92
ATOM     92  C   UNL     1      -2.268  -1.046 135.545  0.00  0.00    +0.000 A 
ATOM     93  C   UNL     1      -1.485  -1.391 134.487  0.00  0.00    +0.000 A 
ATOM     94  C   UNL     1      -0.421  -2.212 134.767  0.00  0.00    +0.000 A 
ATOM     95  C   UNL     1       0.026  -2.412 136.043  0.00  0.00    +0.000 A 
ATOM     96  C   UNL     1      -0.752  -1.991 137.062  0.00  0.00    +0.000 A 
ATOM     97  C   UNL     1      -1.855  -1.288 136.799  0.00  0.00    +0.000 A 
ENDBRANCH  91  92
ENDBRANCH  14  91
TORSDOF 22
ENDMDL
MODEL 2
REMARK VINA RESULT:      -9.0      1.179      2.020
REMARK  Name = CHEMBL2369836
REMARK  22 active torsions:
REMARK  status: ('A' for Active; 'I' for Inactive)
REMARK    1  A    between atoms: C_2  and  C_4
REMARK    2  A    between atoms: C_4  and  N_5
REMARK    3  A    between atoms: C_6  and  C_8
REMARK    4  A    between atoms: C_8  and  C_9
REMARK    5  A    between atoms: C_8  and  N_16
REMARK    6  A    between atoms: C_9  and  C_10
REMARK    7  A    between atoms: C_10  and  C_11
REMARK    8  A    between atoms: C_11  and  N_12
REMARK    9  A    between atoms: C_17  and  C_19
REMARK   10  A    between atoms: C_24  and  C_26
REMARK   11  A    between atoms: C_35  and  C_36
REMARK   12  A    between atoms: C_36  and  C_37
REMARK   13  A    between atoms: C_40  and  O_41
REMARK   14  A    between atoms: C_47  and  C_48
REMARK   15  A    between atoms: C_48  and  C_49
REMARK   16  A    between atoms: C_58  and  C_59
REMARK   17  A    between atoms: C_59  and  C_60
REMARK   18  A    between atoms: C_60  and  C_61
REMARK   19  A    between atoms: C_61  and  C_62
REMARK   20  A    between atoms: C_62  and  N_63
REMARK   21  A    between atoms: C_70  and  C_71
REMARK   22  A    between atoms: C_71  and  C_72
REMARK                            x       y       z     vdW  Elec       q    Type
REMARK                         _______ _______ _______ _____ _____    ______ ____
ROOT
ATOM      1  C   UNL     1      -3.767   1.619 131.783  0.00  0.00    +0.000 C 
ATOM      2  C   UNL     1      -4.242  -0.971 131.834  0.00  0.00    +0.000 C 
ATOM      3  S   UNL     1      -5.030  -3.518 132.476  0.00  0.00    +0.000 S 
ATOM      4  S   UNL     1      -5.469  -6.059 133.731  0.00  0.00    +0.000 S 
ATOM      5  C   UNL     1      -6.150  -6.018 135.596  0.00  0.00    +0.000 C 
ATOM      6  C   UNL     1      -5.978  -6.650 136.957  0.00  0.00    +0.000 C 
ATOM      7  C   UNL     1      -6.258  -5.755 138.188  0.00  0.00    +0.000 C 
ATOM      8  O   UNL     1      -6.298  -6.255 139.316  0.00  0.00    +0.000 OA
ATOM      9  N   UNL     1      -6.420  -4.399 138.006  0.00  0.00    +0.000 N 
ATOM     10  C   UNL     1      -6.405  -3.712 136.726  0.00  0.00    +0.000 C 
ATOM     11  C   UNL     1      -4.843  -3.848 136.148  0.00  0.00    +0.000 C 
ATOM     12  O   UNL     1      -4.145  -4.908 136.041  0.00  0.00    +0.000 OA
ATOM     13  N   UNL     1      -4.317  -2.797 135.583  0.00  0.00    +0.000 N 
ATOM     14  C   UNL     1      -4.728  -1.475 135.803  0.00  0.00    +0.000 C 
ATOM     15  C   UNL     1      -6.026  -1.405 134.881  0.00  0.00    +0.000 C 
ATOM     16  O   UNL     1      -7.129  -2.012 134.805  0.00  0.00    +0.000 OA
ATOM     17  N   UNL     1      -5.905  -0.749 133.862  0.00  0.00    +0.000 N 
ATOM     18  C   UNL     1      -5.009   0.337 133.773  0.00  0.00    +0.000 C 
ATOM     19  C   UNL     1      -4.997   1.331 135.561  0.00  0.00    +0.000 C 
ATOM     20  O   UNL     1      -4.483   1.004 136.601  0.00  0.00    +0.000 OA
ATOM     21  N   UNL     1      -5.231   2.785 135.522  0.00  0.00    +0.000 N 
ATOM     22  C   UNL     1      -5.217   4.034 133.771  0.00  0.00    +0.000 C 
ATOM     23  C   UNL     1      -3.346   3.007 133.661  0.00  0.00    +0.000 C 
ATOM     24  O   UNL     1      -3.153   1.672 133.609  0.00  0.00    +0.000 OA
ATOM     25  N   UNL     1      -3.207   3.664 131.959  0.00  0.00    +0.000 N 
ATOM     26  H   UNL     1      -6.662  -3.789 138.799  0.00  0.00    +0.000 HD
ATOM     27  H   UNL     1      -3.392  -2.979 135.207  0.00  0.00    +0.000 HD
ATOM     28  H   UNL     1      -6.947  -0.607 133.620  0.00  0.00    +0.000 HD
ATOM     29  H   UNL     1      -4.358   3.263 135.994  0.00  0.00    +0.000 HD
ATOM     30  H   UNL     1      -2.511   4.260 131.317  0.00  0.00    +0.000 HD
ENDROOT
BRANCH   1  36
ATOM     31  C   UNL     1      -4.527   7.006 130.821  0.00  0.00    +0.000 C 
ATOM     32  C   UNL     1      -3.831   7.701 129.534  0.00  0.00    +0.000 C 
ATOM     33  C   UNL     1      -3.502   9.041 129.990  0.00  0.00    +0.000 C 
ATOM     34  C   UNL     1      -3.223   8.269 131.768  0.00  0.00    +0.000 C 
ATOM     35  N   UNL     1      -3.818   6.246 132.285  0.00  0.00    +0.000 N 
ATOM     36  C   UNL     1      -3.618   4.057 132.430  0.00  0.00    +0.000 C 
ATOM     37  O   UNL     1      -3.039   5.272 133.318  0.00  0.00    +0.000 OA
BRANCH  31  39
ATOM     38  N   UNL     1      -5.987   5.434 130.582  0.00  0.00    +0.000 N 
ATOM     39  C   UNL     1      -4.713   5.732 130.483  0.00  0.00    +0.000 C 
ATOM     40  O   UNL     1      -3.957   5.026 129.865  0.00  0.00    +0.000 OA
ATOM     41  H   UNL     1      -6.999   5.876 130.910  0.00  0.00    +0.000 HD
BRANCH  38  42
ATOM     42  C   UNL     1      -7.221   4.116 129.485  0.00  0.00    +0.000 C 
BRANCH  42  44
ATOM     43  N   UNL     1      -4.949   2.685 127.989  0.00  0.00    +0.000 N 
ATOM     44  C   UNL     1      -6.596   4.110 127.733  0.00  0.00    +0.000 C 
ATOM     45  O   UNL     1      -6.756   4.671 126.620  0.00  0.00    +0.000 OA
ATOM     46  H   UNL     1      -4.652   2.498 128.999  0.00  0.00    +0.000 HD
BRANCH  43  47
ATOM     47  C   UNL     1      -4.222   2.393 126.786  0.00  0.00    +0.000 C 
BRANCH  47  49
ATOM     48  N   UNL     1      -1.941   2.612 127.027  0.00  0.00    +0.000 N 
ATOM     49  C   UNL     1      -3.117   3.282 126.827  0.00  0.00    +0.000 C 
ATOM     50  O   UNL     1      -3.232   4.496 126.731  0.00  0.00    +0.000 OA
ATOM     51  H   UNL     1      -1.088   3.146 127.122  0.00  0.00    +0.000 HD
ATOM     52  H   UNL     1      -1.851   1.603 127.093  0.00  0.00    +0.000 HD
ENDBRANCH  47  49
ENDBRANCH  43  47
ENDBRANCH  42  44
BRANCH  42  53
ATOM     53  C   UNL     1      -8.817   4.477 129.349  0.00  0.00    +0.000 C 
BRANCH  53  54
ATOM     54  C   UNL     1      -9.049   5.653 130.021  0.00  0.00    +0.000 C 
BRANCH  54  55
ATOM     55  C   UNL     1     -10.280   6.209 130.153  0.00  0.00    +0.000 C 
BRANCH  55  56
ATOM     56  N   UNL     1     -11.017   6.034 128.914  0.00  0.00    +0.000 NA
ATOM     57  C   UNL     1     -11.608   7.114 128.527  0.00  0.00    +0.000 C 
ATOM     58  N   UNL     1     -11.473   8.279 129.257  0.00  0.00    +0.000 N 
ATOM     59  N   UNL     1     -12.363   7.128 127.368  0.00  0.00    +0.000 N 
ATOM     60  H   UNL     1     -10.920   8.318 130.123  0.00  0.00    +0.000 HD
ATOM     61  H   UNL     1     -11.900   9.156 129.011  0.00  0.00    +0.000 HD
ATOM     62  H   UNL     1     -12.502   6.280 126.790  0.00  0.00    +0.000 HD
ATOM     63  H   UNL     1     -12.850   7.941 127.012  0.00  0.00    +0.000 HD
ENDBRANCH  55  56
ENDBRANCH  54  55
ENDBRANCH  53  54
ENDBRANCH  42  53
ENDBRANCH  38  42
ENDBRANCH  31  39
ENDBRANCH   1  36
BRANCH  10  64
ATOM     64  C   UNL     1      -6.797  -2.353 137.042  0.00  0.00    +0.000 C 
BRANCH  64  65
ATOM     65  C   UNL     1      -7.909  -2.075 137.890  0.00  0.00    +0.000 A 
ATOM     66  C   UNL     1      -9.064  -2.697 137.525  0.00  0.00    +0.000 A 
ATOM     67  C   UNL     1     -10.161  -2.682 138.330  0.00  0.00    +0.000 A 
ATOM     68  C   UNL     1     -10.095  -1.999 139.520  0.00  0.00    +0.000 A 
ATOM     69  C   UNL     1      -8.945  -1.315 139.867  0.00  0.00    +0.000 A 
ATOM     70  C   UNL     1      -7.841  -1.347 139.051  0.00  0.00    +0.000 A 
BRANCH  68  71
ATOM     71  O   UNL     1     -11.118  -1.931 140.408  0.00  0.00    +0.000 OA
ATOM     72  H   UNL     1     -11.679  -2.721 140.454  0.00  0.00    +0.000 HD
ENDBRANCH  68  71
ENDBRANCH  64  65
ENDBRANCH  10  64
BRANCH  22  73
ATOM     73  C   UNL     1      -5.379   5.396 133.938  0.00  0.00    +0.000 C 
BRANCH  73  74
ATOM     74  C   UNL     1      -6.740   5.695 134.140  0.00  0.00    +0.000 C 
ATOM     75  N   UNL     1      -7.144   6.015 135.440  0.00  0.00    +0.000 N 
ATOM     76  O   UNL     1      -7.434   5.839 133.175  0.00  0.00    +0.000 OA
ATOM     77  H   UNL     1      -6.606   6.198 136.285  0.00  0.00    +0.000 HD
ATOM     78  H   UNL     1      -8.106   6.157 135.652  0.00  0.00    +0.000 HD
ENDBRANCH  73  74
ENDBRANCH  22  73
BRANCH  18  79
ATOM     79  C   UNL     1      -5.664   1.327 132.172  0.00  0.00    +0.000 C 
BRANCH  79  80
ATOM     80  C   UNL     1      -6.916   1.766 132.125  0.00  0.00    +0.000 C 
BRANCH  80  81
ATOM     81  C   UNL     1      -7.567   0.803 131.305  0.00  0.00    +0.000 C 
BRANCH  81  82
ATOM     82  C   UNL     1      -8.861   0.776 131.883  0.00  0.00    +0.000 C 
BRANCH  82  83
ATOM     83  N   UNL     1      -8.911   1.801 132.897  0.00  0.00    +0.000 NA
ATOM     84  C   UNL     1      -9.764   2.758 132.728  0.00  0.00    +0.000 C 
ATOM     85  N   UNL     1     -10.598   2.820 131.625  0.00  0.00    +0.000 N 
ATOM     86  N   UNL     1      -9.855   3.765 133.684  0.00  0.00    +0.000 N 
ATOM     87  H   UNL     1     -10.571   2.100 130.890  0.00  0.00    +0.000 HD
ATOM     88  H   UNL     1     -11.277   3.546 131.457  0.00  0.00    +0.000 HD
ATOM     89  H   UNL     1      -9.258   3.771 134.528  0.00  0.00    +0.000 HD
ATOM     90  H   UNL     1     -10.493   4.549 133.636  0.00  0.00    +0.000 HD
ENDBRANCH  82  83
ENDBRANCH  81  82
ENDBRANCH  80  81
ENDBRANCH  79  80
ENDBRANCH  18  79
BRANCH  14  91
ATOM     91  C   UNL     1      -3.574  -0.692 135.378  0.00  0.00    +0.000 C 
BRANCH  91  92
ATOM     92  C   UNL     1      -2.262  -1.230 135.438  0.00  0.00    +0.000 A 
ATOM     93  C   UNL     1      -1.573  -1.637 136.540  0.00  0.00    +0.000 A 
ATOM     94  C   UNL     1      -0.213  -1.742 136.396  0.00  0.00    +0.000 A 
ATOM     95  C   UNL     1       0.389  -1.759 135.169  0.00  0.00    +0.000 A 
ATOM     96  C   UNL     1      -0.350  -1.415 134.094  0.00  0.00    +0.000 A 
ATOM     97  C   UNL     1      -1.659  -1.196 134.239  0.00  0.00    +0.000 A 
ENDBRANCH  91  92
ENDBRANCH  14  91
TORSDOF 22
ENDMDL
MODEL 3
REMARK VINA RESULT:      -9.0      4.700      9.693
REMARK  Name = CHEMBL2369836
REMARK  22 active torsions:
REMARK  status: ('A' for Active; 'I' for Inactive)
REMARK    1  A    between atoms: C_2  and  C_4
REMARK    2  A    between atoms: C_4  and  N_5
REMARK    3  A    between atoms: C_6  and  C_8
REMARK    4  A    between atoms: C_8  and  C_9
REMARK    5  A    between atoms: C_8  and  N_16
REMARK    6  A    between atoms: C_9  and  C_10
REMARK    7  A    between atoms: C_10  and  C_11
REMARK    8  A    between atoms: C_11  and  N_12
REMARK    9  A    between atoms: C_17  and  C_19
REMARK   10  A    between atoms: C_24  and  C_26
REMARK   11  A    between atoms: C_35  and  C_36
REMARK   12  A    between atoms: C_36  and  C_37
REMARK   13  A    between atoms: C_40  and  O_41
REMARK   14  A    between atoms: C_47  and  C_48
REMARK   15  A    between atoms: C_48  and  C_49
REMARK   16  A    between atoms: C_58  and  C_59
REMARK   17  A    between atoms: C_59  and  C_60
REMARK   18  A    between atoms: C_60  and  C_61
REMARK   19  A    between atoms: C_61  and  C_62
REMARK   20  A    between atoms: C_62  and  N_63
REMARK   21  A    between atoms: C_70  and  C_71
REMARK   22  A    between atoms: C_71  and  C_72
REMARK                            x       y       z     vdW  Elec       q    Type
REMARK                         _______ _______ _______ _____ _____    ______ ____
ROOT
ATOM      1  C   UNL     1      -3.030   4.323 134.539  0.00  0.00    +0.000 C 
ATOM      2  C   UNL     1      -2.671   4.282 131.931  0.00  0.00    +0.000 C 
ATOM      3  S   UNL     1      -2.964   4.339 129.204  0.00  0.00    +0.000 S 
ATOM      4  S   UNL     1      -3.726   3.869 126.480  0.00  0.00    +0.000 S 
ATOM      5  C   UNL     1      -5.674   3.883 126.092  0.00  0.00    +0.000 C 
ATOM      6  C   UNL     1      -6.758   3.155 125.332  0.00  0.00    +0.000 C 
ATOM      7  C   UNL     1      -8.176   3.164 125.949  0.00  0.00    +0.000 C 
ATOM      8  O   UNL     1      -9.133   2.734 125.299  0.00  0.00    +0.000 OA
ATOM      9  N   UNL     1      -8.341   3.617 127.241  0.00  0.00    +0.000 N 
ATOM     10  C   UNL     1      -7.289   4.155 128.087  0.00  0.00    +0.000 C 
ATOM     11  C   UNL     1      -6.260   2.878 128.409  0.00  0.00    +0.000 C 
ATOM     12  O   UNL     1      -5.730   2.078 127.571  0.00  0.00    +0.000 OA
ATOM     13  N   UNL     1      -5.801   2.769 129.625  0.00  0.00    +0.000 N 
ATOM     14  C   UNL     1      -6.406   3.313 130.766  0.00  0.00    +0.000 C 
ATOM     15  C   UNL     1      -5.946   4.835 130.655  0.00  0.00    +0.000 C 
ATOM     16  O   UNL     1      -6.073   5.772 129.821  0.00  0.00    +0.000 OA
ATOM     17  N   UNL     1      -5.099   5.182 131.459  0.00  0.00    +0.000 N 
ATOM     18  C   UNL     1      -4.980   4.577 132.729  0.00  0.00    +0.000 C 
ATOM     19  C   UNL     1      -6.853   4.146 133.432  0.00  0.00    +0.000 C 
ATOM     20  O   UNL     1      -7.601   3.264 133.093  0.00  0.00    +0.000 OA
ATOM     21  N   UNL     1      -7.193   4.636 134.780  0.00  0.00    +0.000 N 
ATOM     22  C   UNL     1      -5.822   5.433 136.232  0.00  0.00    +0.000 C 
ATOM     23  C   UNL     1      -4.948   3.555 135.706  0.00  0.00    +0.000 C 
ATOM     24  O   UNL     1      -4.561   3.154 134.477  0.00  0.00    +0.000 OA
ATOM     25  N   UNL     1      -3.461   4.113 136.612  0.00  0.00    +0.000 N 
ATOM     26  H   UNL     1      -9.280   3.685 127.656  0.00  0.00    +0.000 HD
ATOM     27  H   UNL     1      -5.138   2.006 129.724  0.00  0.00    +0.000 HD
ATOM     28  H   UNL     1      -5.212   6.252 131.383  0.00  0.00    +0.000 HD
ATOM     29  H   UNL     1      -7.475   3.757 135.379  0.00  0.00    +0.000 HD
ATOM     30  H   UNL     1      -2.782   3.791 137.442  0.00  0.00    +0.000 HD
ENDROOT
BRANCH   1  36
ATOM     31  C   UNL     1      -3.450   6.263 139.696  0.00  0.00    +0.000 C 
ATOM     32  C   UNL     1      -2.196   6.128 140.712  0.00  0.00    +0.000 C 
ATOM     33  C   UNL     1      -2.813   5.911 142.009  0.00  0.00    +0.000 C 
ATOM     34  C   UNL     1      -4.249   4.970 141.068  0.00  0.00    +0.000 C 
ATOM     35  N   UNL     1      -4.476   5.017 138.909  0.00  0.00    +0.000 N 
ATOM     36  C   UNL     1      -4.104   4.407 136.825  0.00  0.00    +0.000 C 
ATOM     37  O   UNL     1      -5.034   3.802 137.995  0.00  0.00    +0.000 OA
BRANCH  31  39
ATOM     38  N   UNL     1      -3.346   7.398 137.862  0.00  0.00    +0.000 N 
ATOM     39  C   UNL     1      -2.919   6.320 138.477  0.00  0.00    +0.000 C 
ATOM     40  O   UNL     1      -1.955   5.718 138.074  0.00  0.00    +0.000 OA
ATOM     41  H   UNL     1      -4.064   8.290 137.990  0.00  0.00    +0.000 HD
BRANCH  38  42
ATOM     42  C   UNL     1      -2.434   8.678 136.451  0.00  0.00    +0.000 C 
BRANCH  42  44
ATOM     43  N   UNL     1       0.091   6.926 136.398  0.00  0.00    +0.000 N 
ATOM     44  C   UNL     1      -0.663   8.902 136.977  0.00  0.00    +0.000 C 
ATOM     45  O   UNL     1       0.102   9.703 137.569  0.00  0.00    +0.000 OA
ATOM     46  H   UNL     1      -0.655   6.182 136.214  0.00  0.00    +0.000 HD
BRANCH  43  47
ATOM     47  C   UNL     1       1.494   6.732 136.635  0.00  0.00    +0.000 C 
BRANCH  47  49
ATOM     48  N   UNL     1       1.008   5.089 138.176  0.00  0.00    +0.000 N 
ATOM     49  C   UNL     1       1.561   6.326 137.993  0.00  0.00    +0.000 C 
ATOM     50  O   UNL     1       2.028   7.032 138.877  0.00  0.00    +0.000 OA
ATOM     51  H   UNL     1       0.955   4.714 139.113  0.00  0.00    +0.000 HD
ATOM     52  H   UNL     1       0.634   4.504 137.435  0.00  0.00    +0.000 HD
ENDBRANCH  47  49
ENDBRANCH  43  47
ENDBRANCH  42  44
BRANCH  42  53
ATOM     53  C   UNL     1      -3.013  10.207 136.301  0.00  0.00    +0.000 C 
BRANCH  53  54
ATOM     54  C   UNL     1      -2.846  10.602 134.996  0.00  0.00    +0.000 C 
BRANCH  54  55
ATOM     55  C   UNL     1      -1.939  11.534 134.606  0.00  0.00    +0.000 C 
BRANCH  55  56
ATOM     56  N   UNL     1      -2.356  12.100 133.335  0.00  0.00    +0.000 NA
ATOM     57  C   UNL     1      -1.405  12.119 132.462  0.00  0.00    +0.000 C 
ATOM     58  N   UNL     1      -0.163  11.603 132.775  0.00  0.00    +0.000 N 
ATOM     59  N   UNL     1      -1.622  12.633 131.196  0.00  0.00    +0.000 N 
ATOM     60  H   UNL     1       0.045  11.208 133.701  0.00  0.00    +0.000 HD
ATOM     61  H   UNL     1       0.619  11.581 132.143  0.00  0.00    +0.000 HD
ATOM     62  H   UNL     1      -2.532  13.039 130.914  0.00  0.00    +0.000 HD
ATOM     63  H   UNL     1      -0.921  12.676 130.467  0.00  0.00    +0.000 HD
ENDBRANCH  55  56
ENDBRANCH  54  55
ENDBRANCH  53  54
ENDBRANCH  42  53
ENDBRANCH  38  42
ENDBRANCH  31  39
ENDBRANCH   1  36
BRANCH  10  64
ATOM     64  C   UNL     1      -7.987   4.655 129.253  0.00  0.00    +0.000 C 
BRANCH  64  65
ATOM     65  C   UNL     1      -9.281   5.245 129.154  0.00  0.00    +0.000 A 
ATOM     66  C   UNL     1     -10.204   4.724 130.011  0.00  0.00    +0.000 A 
ATOM     67  C   UNL     1     -11.427   5.300 130.169  0.00  0.00    +0.000 A 
ATOM     68  C   UNL     1     -11.731   6.412 129.424  0.00  0.00    +0.000 A 
ATOM     69  C   UNL     1     -10.822   6.909 128.509  0.00  0.00    +0.000 A 
ATOM     70  C   UNL     1      -9.587   6.326 128.366  0.00  0.00    +0.000 A 
BRANCH  68  71
ATOM     71  O   UNL     1     -12.911   7.078 129.511  0.00  0.00    +0.000 OA
ATOM     72  H   UNL     1     -12.867   8.025 129.307  0.00  0.00    +0.000 HD
ENDBRANCH  68  71
ENDBRANCH  64  65
ENDBRANCH  10  64
BRANCH  22  73
ATOM     73  C   UNL     1      -6.313   5.771 137.479  0.00  0.00    +0.000 C 
BRANCH  73  74
ATOM     74  C   UNL     1      -7.019   6.987 137.401  0.00  0.00    +0.000 C 
ATOM     75  N   UNL     1      -8.406   6.918 137.240  0.00  0.00    +0.000 N 
ATOM     76  O   UNL     1      -6.429   7.998 137.657  0.00  0.00    +0.000 OA
ATOM     77  H   UNL     1      -9.050   6.131 137.289  0.00  0.00    +0.000 HD
ATOM     78  H   UNL     1      -8.943   7.745 137.100  0.00  0.00    +0.000 HD
ENDBRANCH  73  74
ENDBRANCH  22  73
BRANCH  18  79
ATOM     79  C   UNL     1      -3.892   5.896 133.752  0.00  0.00    +0.000 C 
BRANCH  79  80
ATOM     80  C   UNL     1      -3.994   7.194 133.489  0.00  0.00    +0.000 C 
BRANCH  80  81
ATOM     81  C   UNL     1      -2.703   7.525 132.991  0.00  0.00    +0.000 C 
BRANCH  81  82
ATOM     82  C   UNL     1      -3.029   8.452 131.970  0.00  0.00    +0.000 C 
BRANCH  82  83
ATOM     83  N   UNL     1      -3.284   7.704 130.763  0.00  0.00    +0.000 NA
ATOM     84  C   UNL     1      -3.735   8.361 129.745  0.00  0.00    +0.000 C 
ATOM     85  N   UNL     1      -3.979   9.722 129.791  0.00  0.00    +0.000 N 
ATOM     86  N   UNL     1      -3.987   7.683 128.555  0.00  0.00    +0.000 N 
ATOM     87  H   UNL     1      -3.808  10.270 130.646  0.00  0.00    +0.000 HD
ATOM     88  H   UNL     1      -4.328  10.271 129.021  0.00  0.00    +0.000 HD
ATOM     89  H   UNL     1      -3.824   6.667 128.463  0.00  0.00    +0.000 HD
ATOM     90  H   UNL     1      -4.338   8.114 127.710  0.00  0.00    +0.000 HD
ENDBRANCH  82  83
ENDBRANCH  81  82
ENDBRANCH  80  81
ENDBRANCH  79  80
ENDBRANCH  18  79
BRANCH  14  91
ATOM     91  C   UNL     1      -5.834   2.528 131.853  0.00  0.00    +0.000 C 
BRANCH  91  92
ATOM     92  C   UNL     1      -5.579   1.140 131.699  0.00  0.00    +0.000 A 
ATOM     93  C   UNL     1      -6.484   0.136 131.534  0.00  0.00    +0.000 A 
ATOM     94  C   UNL     1      -6.032  -1.132 131.802  0.00  0.00    +0.000 A 
ATOM     95  C   UNL     1      -4.700  -1.421 131.909  0.00  0.00    +0.000 A 
ATOM     96  C   UNL     1      -3.832  -0.393 131.999  0.00  0.00    +0.000 A 
ATOM     97  C   UNL     1      -4.277   0.857 131.855  0.00  0.00    +0.000 A 
ENDBRANCH  91  92
ENDBRANCH  14  91
TORSDOF 22
ENDMDL
MODEL 4
REMARK VINA RESULT:      -9.0      4.324      8.092
REMARK  Name = CHEMBL2369836
REMARK  22 active torsions:
REMARK  status: ('A' for Active; 'I' for Inactive)
REMARK    1  A    between atoms: C_2  and  C_4
REMARK    2  A    between atoms: C_4  and  N_5
REMARK    3  A    between atoms: C_6  and  C_8
REMARK    4  A    between atoms: C_8  and  C_9
REMARK    5  A    between atoms: C_8  and  N_16
REMARK    6  A    between atoms: C_9  and  C_10
REMARK    7  A    between atoms: C_10  and  C_11
REMARK    8  A    between atoms: C_11  and  N_12
REMARK    9  A    between atoms: C_17  and  C_19
REMARK   10  A    between atoms: C_24  and  C_26
REMARK   11  A    between atoms: C_35  and  C_36
REMARK   12  A    between atoms: C_36  and  C_37
REMARK   13  A    between atoms: C_40  and  O_41
REMARK   14  A    between atoms: C_47  and  C_48
REMARK   15  A    between atoms: C_48  and  C_49
REMARK   16  A    between atoms: C_58  and  C_59
REMARK   17  A    between atoms: C_59  and  C_60
REMARK   18  A    between atoms: C_60  and  C_61
REMARK   19  A    between atoms: C_61  and  C_62
REMARK   20  A    between atoms: C_62  and  N_63
REMARK   21  A    between atoms: C_70  and  C_71
REMARK   22  A    between atoms: C_71  and  C_72
REMARK                            x       y       z     vdW  Elec       q    Type
REMARK                         _______ _______ _______ _____ _____    ______ ____
ROOT
ATOM      1  C   UNL     1      -4.570   1.869 131.604  0.00  0.00    +0.000 C 
ATOM      2  C   UNL     1      -3.881   1.583 134.130  0.00  0.00    +0.000 C 
ATOM      3  S   UNL     1      -3.516   1.855 136.835  0.00  0.00    +0.000 S 
ATOM      4  S   UNL     1      -2.864   2.768 139.474  0.00  0.00    +0.000 S 
ATOM      5  C   UNL     1      -3.571   4.550 139.992  0.00  0.00    +0.000 C 
ATOM      6  C   UNL     1      -3.198   5.842 140.680  0.00  0.00    +0.000 C 
ATOM      7  C   UNL     1      -3.888   7.131 140.175  0.00  0.00    +0.000 C 
ATOM      8  O   UNL     1      -3.753   8.186 140.801  0.00  0.00    +0.000 OA
ATOM      9  N   UNL     1      -4.612   7.088 139.003  0.00  0.00    +0.000 N 
ATOM     10  C   UNL     1      -4.843   5.900 138.198  0.00  0.00    +0.000 C 
ATOM     11  C   UNL     1      -3.354   5.467 137.578  0.00  0.00    +0.000 C 
ATOM     12  O   UNL     1      -2.263   5.311 138.216  0.00  0.00    +0.000 OA
ATOM     13  N   UNL     1      -3.312   5.078 136.333  0.00  0.00    +0.000 N 
ATOM     14  C   UNL     1      -4.262   5.403 135.356  0.00  0.00    +0.000 C 
ATOM     15  C   UNL     1      -5.424   4.371 135.710  0.00  0.00    +0.000 C 
ATOM     16  O   UNL     1      -6.152   4.120 136.708  0.00  0.00    +0.000 OA
ATOM     17  N   UNL     1      -5.558   3.449 134.926  0.00  0.00    +0.000 N 
ATOM     18  C   UNL     1      -5.216   3.571 133.562  0.00  0.00    +0.000 C 
ATOM     19  C   UNL     1      -5.707   5.452 132.924  0.00  0.00    +0.000 C 
ATOM     20  O   UNL     1      -5.145   6.494 133.148  0.00  0.00    +0.000 OA
ATOM     21  N   UNL     1      -6.545   5.553 131.716  0.00  0.00    +0.000 N 
ATOM     22  C   UNL     1      -7.001   3.963 130.342  0.00  0.00    +0.000 C 
ATOM     23  C   UNL     1      -4.867   3.923 130.454  0.00  0.00    +0.000 C 
ATOM     24  O   UNL     1      -4.114   3.741 131.559  0.00  0.00    +0.000 OA
ATOM     25  N   UNL     1      -4.957   2.327 129.564  0.00  0.00    +0.000 N 
ATOM     26  H   UNL     1      -5.126   7.916 138.674  0.00  0.00    +0.000 HD
ATOM     27  H   UNL     1      -2.384   4.777 136.051  0.00  0.00    +0.000 HD
ATOM     28  H   UNL     1      -6.547   3.124 135.205  0.00  0.00    +0.000 HD
ATOM     29  H   UNL     1      -5.985   6.159 130.987  0.00  0.00    +0.000 HD
ATOM     30  H   UNL     1      -4.561   1.827 128.643  0.00  0.00    +0.000 HD
ENDROOT
BRANCH   1  36
ATOM     31  C   UNL     1      -7.022   1.321 126.684  0.00  0.00    +0.000 C 
ATOM     32  C   UNL     1      -6.335   0.405 125.539  0.00  0.00    +0.000 C 
ATOM     33  C   UNL     1      -6.659   1.088 124.297  0.00  0.00    +0.000 C 
ATOM     34  C   UNL     1      -6.575   2.766 125.304  0.00  0.00    +0.000 C 
ATOM     35  N   UNL     1      -6.478   2.840 127.471  0.00  0.00    +0.000 N 
ATOM     36  C   UNL     1      -5.516   2.797 129.453  0.00  0.00    +0.000 C 
ATOM     37  O   UNL     1      -5.682   3.951 128.340  0.00  0.00    +0.000 OA
BRANCH  31  39
ATOM     38  N   UNL     1      -7.654   0.276 128.464  0.00  0.00    +0.000 N 
ATOM     39  C   UNL     1      -6.624   0.803 127.844  0.00  0.00    +0.000 C 
ATOM     40  O   UNL     1      -5.497   0.527 128.168  0.00  0.00    +0.000 OA
ATOM     41  H   UNL     1      -8.795   0.149 128.381  0.00  0.00    +0.000 HD
BRANCH  38  42
ATOM     42  C   UNL     1      -7.831  -1.397 129.742  0.00  0.00    +0.000 C 
BRANCH  42  44
ATOM     43  N   UNL     1      -4.815  -1.869 129.386  0.00  0.00    +0.000 N 
ATOM     44  C   UNL     1      -6.352  -1.383 130.871  0.00  0.00    +0.000 C 
ATOM     45  O   UNL     1      -6.028  -1.284 132.081  0.00  0.00    +0.000 OA
ATOM     46  H   UNL     1      -5.175  -2.265 128.460  0.00  0.00    +0.000 HD
BRANCH  43  47
ATOM     47  C   UNL     1      -3.477  -1.917 129.907  0.00  0.00    +0.000 C 
BRANCH  47  49
ATOM     48  N   UNL     1      -3.365  -3.797 131.234  0.00  0.00    +0.000 N 
ATOM     49  C   UNL     1      -3.183  -3.304 129.972  0.00  0.00    +0.000 C 
ATOM     50  O   UNL     1      -2.780  -3.947 129.011  0.00  0.00    +0.000 OA
ATOM     51  H   UNL     1      -3.139  -4.766 131.415  0.00  0.00    +0.000 HD
ATOM     52  H   UNL     1      -3.711  -3.261 132.024  0.00  0.00    +0.000 HD
ENDBRANCH  47  49
ENDBRANCH  43  47
ENDBRANCH  42  44
BRANCH  42  53
ATOM     53  C   UNL     1      -7.819  -2.894 129.069  0.00  0.00    +0.000 C 
BRANCH  53  54
ATOM     54  C   UNL     1      -8.617  -2.868 127.952  0.00  0.00    +0.000 C 
BRANCH  54  55
ATOM     55  C   UNL     1      -8.131  -2.842 126.685  0.00  0.00    +0.000 C 
BRANCH  55  56
ATOM     56  N   UNL     1      -9.240  -2.882 125.749  0.00  0.00    +0.000 NA
ATOM     57  C   UNL     1      -8.904  -3.356 124.596  0.00  0.00    +0.000 C 
ATOM     58  N   UNL     1      -7.611  -3.789 124.373  0.00  0.00    +0.000 N 
ATOM     59  N   UNL     1      -9.835  -3.459 123.578  0.00  0.00    +0.000 N 
ATOM     60  H   UNL     1      -6.886  -3.735 125.100  0.00  0.00    +0.000 HD
ATOM     61  H   UNL     1      -7.284  -4.173 123.503  0.00  0.00    +0.000 HD
ATOM     62  H   UNL     1     -10.814  -3.141 123.692  0.00  0.00    +0.000 HD
ATOM     63  H   UNL     1      -9.635  -3.821 122.654  0.00  0.00    +0.000 HD
ENDBRANCH  55  56
ENDBRANCH  54  55
ENDBRANCH  53  54
ENDBRANCH  42  53
ENDBRANCH  38  42
ENDBRANCH  31  39
ENDBRANCH   1  36
BRANCH  10  64
ATOM     64  C   UNL     1      -5.796   6.327 137.194  0.00  0.00    +0.000 C 
BRANCH  64  65
ATOM     65  C   UNL     1      -6.893   7.179 137.519  0.00  0.00    +0.000 A 
ATOM     66  C   UNL     1      -6.643   8.507 137.345  0.00  0.00    +0.000 A 
ATOM     67  C   UNL     1      -7.638   9.432 137.433  0.00  0.00    +0.000 A 
ATOM     68  C   UNL     1      -8.908   9.004 137.728  0.00  0.00    +0.000 A 
ATOM     69  C   UNL     1      -9.156   7.665 137.964  0.00  0.00    +0.000 A 
ATOM     70  C   UNL     1      -8.146   6.741 137.862  0.00  0.00    +0.000 A 
BRANCH  68  71
ATOM     71  O   UNL     1      -9.979   9.833 137.823  0.00  0.00    +0.000 OA
ATOM     72  H   UNL     1      -9.817  10.666 138.291  0.00  0.00    +0.000 HD
ENDBRANCH  68  71
ENDBRANCH  64  65
ENDBRANCH  10  64
BRANCH  22  73
ATOM     73  C   UNL     1      -7.742   4.265 129.215  0.00  0.00    +0.000 C 
BRANCH  73  74
ATOM     74  C   UNL     1      -9.050   4.630 129.587  0.00  0.00    +0.000 C 
ATOM     75  N   UNL     1      -9.380   5.989 129.534  0.00  0.00    +0.000 N 
ATOM     76  O   UNL     1      -9.854   3.757 129.749  0.00  0.00    +0.000 OA
ATOM     77  H   UNL     1      -8.879   6.787 129.150  0.00  0.00    +0.000 HD
ATOM     78  H   UNL     1     -10.264   6.309 129.861  0.00  0.00    +0.000 HD
ENDBRANCH  73  74
ENDBRANCH  22  73
BRANCH  18  79
ATOM     79  C   UNL     1      -6.169   2.034 132.724  0.00  0.00    +0.000 C 
BRANCH  79  80
ATOM     80  C   UNL     1      -7.278   1.555 133.275  0.00  0.00    +0.000 C 
BRANCH  80  81
ATOM     81  C   UNL     1      -8.213   1.592 132.204  0.00  0.00    +0.000 C 
BRANCH  81  82
ATOM     82  C   UNL     1      -9.282   2.312 132.794  0.00  0.00    +0.000 C 
BRANCH  82  83
ATOM     83  N   UNL     1      -8.723   3.181 133.800  0.00  0.00    +0.000 NA
ATOM     84  C   UNL     1      -9.144   4.404 133.826  0.00  0.00    +0.000 C 
ATOM     85  N   UNL     1     -10.083   4.882 132.929  0.00  0.00    +0.000 N 
ATOM     86  N   UNL     1      -8.640   5.277 134.785  0.00  0.00    +0.000 N 
ATOM     87  H   UNL     1     -10.488   4.277 132.201  0.00  0.00    +0.000 HD
ATOM     88  H   UNL     1     -10.439   5.825 132.915  0.00  0.00    +0.000 HD
ATOM     89  H   UNL     1      -7.937   4.976 135.480  0.00  0.00    +0.000 HD
ATOM     90  H   UNL     1      -8.912   6.247 134.880  0.00  0.00    +0.000 HD
ENDBRANCH  82  83
ENDBRANCH  81  82
ENDBRANCH  80  81
ENDBRANCH  79  80
ENDBRANCH  18  79
BRANCH  14  91
ATOM     91  C   UNL     1      -3.543   5.184 134.106  0.00  0.00    +0.000 C 
BRANCH  91  92
ATOM     92  C   UNL     1      -2.359   5.907 133.806  0.00  0.00    +0.000 A 
ATOM     93  C   UNL     1      -1.947   7.094 134.331  0.00  0.00    +0.000 A 
ATOM     94  C   UNL     1      -0.995   7.771 133.612  0.00  0.00    +0.000 A 
ATOM     95  C   UNL     1      -0.268   7.172 132.622  0.00  0.00    +0.000 A 
ATOM     96  C   UNL     1      -0.673   5.964 132.180  0.00  0.00    +0.000 A 
ATOM     97  C   UNL     1      -1.677   5.340 132.799  0.00  0.00    +0.000 A 
ENDBRANCH  91  92
ENDBRANCH  14  91
TORSDOF 22
ENDMDL
MODEL 5
REMARK VINA RESULT:      -9.0      1.320      1.908
REMARK  Name = CHEMBL2369836
REMARK  22 active torsions:
REMARK  status: ('A' for Active; 'I' for Inactive)
REMARK    1  A    between atoms: C_2  and  C_4
REMARK    2  A    between atoms: C_4  and  N_5
REMARK    3  A    between atoms: C_6  and  C_8
REMARK    4  A    between atoms: C_8  and  C_9
REMARK    5  A    between atoms: C_8  and  N_16
REMARK    6  A    between atoms: C_9  and  C_10
REMARK    7  A    between atoms: C_10  and  C_11
REMARK    8  A    between atoms: C_11  and  N_12
REMARK    9  A    between atoms: C_17  and  C_19
REMARK   10  A    between atoms: C_24  and  C_26
REMARK   11  A    between atoms: C_35  and  C_36
REMARK   12  A    between atoms: C_36  and  C_37
REMARK   13  A    between atoms: C_40  and  O_41
REMARK   14  A    between atoms: C_47  and  C_48
REMARK   15  A    between atoms: C_48  and  C_49
REMARK   16  A    between atoms: C_58  and  C_59
REMARK   17  A    between atoms: C_59  and  C_60
REMARK   18  A    between atoms: C_60  and  C_61
REMARK   19  A    between atoms: C_61  and  C_62
REMARK   20  A    between atoms: C_62  and  N_63
REMARK   21  A    between atoms: C_70  and  C_71
REMARK   22  A    between atoms: C_71  and  C_72
REMARK                            x       y       z     vdW  Elec       q    Type
REMARK                         _______ _______ _______ _____ _____    ______ ____
ROOT
ATOM      1  C   UNL     1      -3.784   1.547 131.683  0.00  0.00    +0.000 C 
ATOM      2  C   UNL     1      -4.178  -1.054 131.808  0.00  0.00    +0.000 C 
ATOM      3  S   UNL     1      -4.912  -3.602 132.508  0.00  0.00    +0.000 S 
ATOM      4  S   UNL     1      -5.325  -6.110 133.835  0.00  0.00    +0.000 S 
ATOM      5  C   UNL     1      -6.091  -6.026 135.665  0.00  0.00    +0.000 C 
ATOM      6  C   UNL     1      -5.961  -6.603 137.055  0.00  0.00    +0.000 C 
ATOM      7  C   UNL     1      -6.325  -5.676 138.238  0.00  0.00    +0.000 C 
ATOM      8  O   UNL     1      -6.400  -6.136 139.381  0.00  0.00    +0.000 OA
ATOM      9  N   UNL     1      -6.522  -4.332 138.000  0.00  0.00    +0.000 N 
ATOM     10  C   UNL     1      -6.471  -3.691 136.697  0.00  0.00    +0.000 C 
ATOM     11  C   UNL     1      -4.881  -3.795 136.195  0.00  0.00    +0.000 C 
ATOM     12  O   UNL     1      -4.145  -4.834 136.157  0.00  0.00    +0.000 OA
ATOM     13  N   UNL     1      -4.364  -2.747 135.615  0.00  0.00    +0.000 N 
ATOM     14  C   UNL     1      -4.827  -1.433 135.767  0.00  0.00    +0.000 C 
ATOM     15  C   UNL     1      -6.083  -1.440 134.787  0.00  0.00    +0.000 C 
ATOM     16  O   UNL     1      -7.161  -2.085 134.685  0.00  0.00    +0.000 OA
ATOM     17  N   UNL     1      -5.937  -0.817 133.751  0.00  0.00    +0.000 N 
ATOM     18  C   UNL     1      -5.073   0.295 133.661  0.00  0.00    +0.000 C 
ATOM     19  C   UNL     1      -5.175   1.352 135.410  0.00  0.00    +0.000 C 
ATOM     20  O   UNL     1      -4.698   1.080 136.484  0.00  0.00    +0.000 OA
ATOM     21  N   UNL     1      -5.453   2.795 135.307  0.00  0.00    +0.000 N 
ATOM     22  C   UNL     1      -5.400   3.981 133.514  0.00  0.00    +0.000 C 
ATOM     23  C   UNL     1      -3.494   3.014 133.524  0.00  0.00    +0.000 C 
ATOM     24  O   UNL     1      -3.255   1.686 133.531  0.00  0.00    +0.000 OA
ATOM     25  N   UNL     1      -3.299   3.614 131.807  0.00  0.00    +0.000 N 
ATOM     26  H   UNL     1      -6.819  -3.703 138.758  0.00  0.00    +0.000 HD
ATOM     27  H   UNL     1      -3.417  -2.911 135.287  0.00  0.00    +0.000 HD
ATOM     28  H   UNL     1      -6.971  -0.719 133.458  0.00  0.00    +0.000 HD
ATOM     29  H   UNL     1      -4.619   3.319 135.799  0.00  0.00    +0.000 HD
ATOM     30  H   UNL     1      -2.594   4.211 131.175  0.00  0.00    +0.000 HD
ENDROOT
BRANCH   1  36
ATOM     31  C   UNL     1      -4.595   6.874 130.459  0.00  0.00    +0.000 C 
ATOM     32  C   UNL     1      -3.819   7.539 129.204  0.00  0.00    +0.000 C 
ATOM     33  C   UNL     1      -3.557   8.903 129.631  0.00  0.00    +0.000 C 
ATOM     34  C   UNL     1      -3.398   8.205 131.454  0.00  0.00    +0.000 C 
ATOM     35  N   UNL     1      -3.983   6.187 132.001  0.00  0.00    +0.000 N 
ATOM     36  C   UNL     1      -3.743   4.011 132.245  0.00  0.00    +0.000 C 
ATOM     37  O   UNL     1      -3.263   5.272 133.127  0.00  0.00    +0.000 OA
BRANCH  31  39
ATOM     38  N   UNL     1      -5.991   5.246 130.211  0.00  0.00    +0.000 N 
ATOM     39  C   UNL     1      -4.724   5.584 130.158  0.00  0.00    +0.000 C 
ATOM     40  O   UNL     1      -3.919   4.884 129.598  0.00  0.00    +0.000 OA
ATOM     41  H   UNL     1      -7.030   5.663 130.479  0.00  0.00    +0.000 HD
BRANCH  38  42
ATOM     42  C   UNL     1      -7.132   3.852 129.107  0.00  0.00    +0.000 C 
BRANCH  42  44
ATOM     43  N   UNL     1      -7.371   2.128 126.573  0.00  0.00    +0.000 N 
ATOM     44  C   UNL     1      -6.683   4.073 127.315  0.00  0.00    +0.000 C 
ATOM     45  O   UNL     1      -6.100   4.860 126.528  0.00  0.00    +0.000 OA
ATOM     46  H   UNL     1      -7.546   1.384 127.321  0.00  0.00    +0.000 HD
BRANCH  43  47
ATOM     47  C   UNL     1      -7.209   1.940 125.159  0.00  0.00    +0.000 C 
BRANCH  47  49
ATOM     48  N   UNL     1      -7.759   3.779 123.884  0.00  0.00    +0.000 N 
ATOM     49  C   UNL     1      -8.251   2.714 124.586  0.00  0.00    +0.000 C 
ATOM     50  O   UNL     1      -9.438   2.459 124.748  0.00  0.00    +0.000 OA
ATOM     51  H   UNL     1      -8.410   4.431 123.470  0.00  0.00    +0.000 HD
ATOM     52  H   UNL     1      -6.773   3.976 123.744  0.00  0.00    +0.000 HD
ENDBRANCH  47  49
ENDBRANCH  43  47
ENDBRANCH  42  44
BRANCH  42  53
ATOM     53  C   UNL     1      -8.767   3.986 129.140  0.00  0.00    +0.000 C 
BRANCH  53  54
ATOM     54  C   UNL     1      -9.197   3.683 130.409  0.00  0.00    +0.000 C 
BRANCH  54  55
ATOM     55  C   UNL     1     -10.277   4.264 130.991  0.00  0.00    +0.000 C 
BRANCH  55  56
ATOM     56  N   UNL     1     -11.054   4.951 129.975  0.00  0.00    +0.000 NA
ATOM     57  C   UNL     1     -11.790   5.894 130.462  0.00  0.00    +0.000 C 
ATOM     58  N   UNL     1     -11.755   6.175 131.814  0.00  0.00    +0.000 N 
ATOM     59  N   UNL     1     -12.604   6.649 129.637  0.00  0.00    +0.000 N 
ATOM     60  H   UNL     1     -11.164   5.643 132.466  0.00  0.00    +0.000 HD
ATOM     61  H   UNL     1     -12.296   6.897 132.258  0.00  0.00    +0.000 HD
ATOM     62  H   UNL     1     -12.672   6.473 128.619  0.00  0.00    +0.000 HD
ATOM     63  H   UNL     1     -13.203   7.400 129.956  0.00  0.00    +0.000 HD
ENDBRANCH  55  56
ENDBRANCH  54  55
ENDBRANCH  53  54
ENDBRANCH  42  53
ENDBRANCH  38  42
ENDBRANCH  31  39
ENDBRANCH   1  36
BRANCH  10  64
ATOM     64  C   UNL     1      -6.920  -2.336 136.946  0.00  0.00    +0.000 C 
BRANCH  64  65
ATOM     65  C   UNL     1      -7.687  -2.003 138.101  0.00  0.00    +0.000 A 
ATOM     66  C   UNL     1      -7.023  -1.246 139.018  0.00  0.00    +0.000 A 
ATOM     67  C   UNL     1      -7.668  -0.694 140.081  0.00  0.00    +0.000 A 
ATOM     68  C   UNL     1      -9.012  -0.934 140.232  0.00  0.00    +0.000 A 
ATOM     69  C   UNL     1      -9.678  -1.751 139.338  0.00  0.00    +0.000 A 
ATOM     70  C   UNL     1      -9.018  -2.294 138.264  0.00  0.00    +0.000 A 
BRANCH  68  71
ATOM     71  O   UNL     1      -9.760  -0.422 141.241  0.00  0.00    +0.000 OA
ATOM     72  H   UNL     1      -9.612   0.518 141.430  0.00  0.00    +0.000 HD
ENDBRANCH  68  71
ENDBRANCH  64  65
ENDBRANCH  10  64
BRANCH  22  73
ATOM     73  C   UNL     1      -5.613   5.342 133.624  0.00  0.00    +0.000 C 
BRANCH  73  74
ATOM     74  C   UNL     1      -6.995   5.610 133.636  0.00  0.00    +0.000 C 
ATOM     75  N   UNL     1      -7.647   5.576 134.874  0.00  0.00    +0.000 N 
ATOM     76  O   UNL     1      -7.497   6.028 132.633  0.00  0.00    +0.000 OA
ATOM     77  H   UNL     1      -7.284   5.510 135.822  0.00  0.00    +0.000 HD
ATOM     78  H   UNL     1      -8.635   5.680 134.929  0.00  0.00    +0.000 HD
ENDBRANCH  73  74
ENDBRANCH  22  73
BRANCH  18  79
ATOM     79  C   UNL     1      -5.687   1.205 131.997  0.00  0.00    +0.000 C 
BRANCH  79  80
ATOM     80  C   UNL     1      -6.979   1.248 131.698  0.00  0.00    +0.000 C 
BRANCH  80  81
ATOM     81  C   UNL     1      -7.045   0.569 130.450  0.00  0.00    +0.000 C 
BRANCH  81  82
ATOM     82  C   UNL     1      -8.137  -0.309 130.668  0.00  0.00    +0.000 C 
BRANCH  82  83
ATOM     83  N   UNL     1      -7.605  -1.641 130.819  0.00  0.00    +0.000 NA
ATOM     84  C   UNL     1      -7.609  -2.401 129.773  0.00  0.00    +0.000 C 
ATOM     85  N   UNL     1      -8.106  -1.978 128.553  0.00  0.00    +0.000 N 
ATOM     86  N   UNL     1      -7.097  -3.692 129.868  0.00  0.00    +0.000 N 
ATOM     87  H   UNL     1      -8.494  -1.032 128.429  0.00  0.00    +0.000 HD
ATOM     88  H   UNL     1      -8.126  -2.537 127.714  0.00  0.00    +0.000 HD
ATOM     89  H   UNL     1      -6.714  -4.062 130.754  0.00  0.00    +0.000 HD
ATOM     90  H   UNL     1      -7.059  -4.354 129.103  0.00  0.00    +0.000 HD
ENDBRANCH  82  83
ENDBRANCH  81  82
ENDBRANCH  80  81
ENDBRANCH  79  80
ENDBRANCH  18  79
BRANCH  14  91
ATOM     91  C   UNL     1      -3.680  -0.627 135.366  0.00  0.00    +0.000 C 
BRANCH  91  92
ATOM     92  C   UNL     1      -2.361  -1.148 135.426  0.00  0.00    +0.000 A 
ATOM     93  C   UNL     1      -1.644  -1.484 136.533  0.00  0.00    +0.000 A 
ATOM     94  C   UNL     1      -0.286  -1.584 136.364  0.00  0.00    +0.000 A 
ATOM     95  C   UNL     1       0.288  -1.667 135.126  0.00  0.00    +0.000 A 
ATOM     96  C   UNL     1      -0.479  -1.394 134.051  0.00  0.00    +0.000 A 
ATOM     97  C   UNL     1      -1.786  -1.179 134.214  0.00  0.00    +0.000 A 
ENDBRANCH  91  92
ENDBRANCH  14  91
TORSDOF 22
ENDMDL
MODEL 6
REMARK VINA RESULT:      -9.0      2.894     10.899
REMARK  Name = CHEMBL2369836
REMARK  22 active torsions:
REMARK  status: ('A' for Active; 'I' for Inactive)
REMARK    1  A    between atoms: C_2  and  C_4
REMARK    2  A    between atoms: C_4  and  N_5
REMARK    3  A    between atoms: C_6  and  C_8
REMARK    4  A    between atoms: C_8  and  C_9
REMARK    5  A    between atoms: C_8  and  N_16
REMARK    6  A    between atoms: C_9  and  C_10
REMARK    7  A    between atoms: C_10  and  C_11
REMARK    8  A    between atoms: C_11  and  N_12
REMARK    9  A    between atoms: C_17  and  C_19
REMARK   10  A    between atoms: C_24  and  C_26
REMARK   11  A    between atoms: C_35  and  C_36
REMARK   12  A    between atoms: C_36  and  C_37
REMARK   13  A    between atoms: C_40  and  O_41
REMARK   14  A    between atoms: C_47  and  C_48
REMARK   15  A    between atoms: C_48  and  C_49
REMARK   16  A    between atoms: C_58  and  C_59
REMARK   17  A    between atoms: C_59  and  C_60
REMARK   18  A    between atoms: C_60  and  C_61
REMARK   19  A    between atoms: C_61  and  C_62
REMARK   20  A    between atoms: C_62  and  N_63
REMARK   21  A    between atoms: C_70  and  C_71
REMARK   22  A    between atoms: C_71  and  C_72
REMARK                            x       y       z     vdW  Elec       q    Type
REMARK                         _______ _______ _______ _____ _____    ______ ____
ROOT
ATOM      1  C   UNL     1      -5.204   1.662 134.483  0.00  0.00    +0.000 C 
ATOM      2  C   UNL     1      -7.360   3.146 134.195  0.00  0.00    +0.000 C 
ATOM      3  S   UNL     1      -9.498   4.574 133.240  0.00  0.00    +0.000 S 
ATOM      4  S   UNL     1     -11.229   6.413 131.881  0.00  0.00    +0.000 S 
ATOM      5  C   UNL     1     -11.050   6.499 129.905  0.00  0.00    +0.000 C 
ATOM      6  C   UNL     1     -10.987   7.459 128.740  0.00  0.00    +0.000 C 
ATOM      7  C   UNL     1     -10.136   7.030 127.522  0.00  0.00    +0.000 C 
ATOM      8  O   UNL     1     -10.179   7.689 126.479  0.00  0.00    +0.000 OA
ATOM      9  N   UNL     1      -9.307   5.935 127.636  0.00  0.00    +0.000 N 
ATOM     10  C   UNL     1      -9.190   5.085 128.809  0.00  0.00    +0.000 C 
ATOM     11  C   UNL     1      -8.501   6.034 129.999  0.00  0.00    +0.000 C 
ATOM     12  O   UNL     1      -8.872   7.192 130.380  0.00  0.00    +0.000 OA
ATOM     13  N   UNL     1      -7.586   5.486 130.750  0.00  0.00    +0.000 N 
ATOM     14  C   UNL     1      -6.815   4.372 130.395  0.00  0.00    +0.000 C 
ATOM     15  C   UNL     1      -7.847   3.189 130.672  0.00  0.00    +0.000 C 
ATOM     16  O   UNL     1      -8.990   2.857 130.258  0.00  0.00    +0.000 OA
ATOM     17  N   UNL     1      -7.607   2.510 131.654  0.00  0.00    +0.000 N 
ATOM     18  C   UNL     1      -6.294   2.326 132.135  0.00  0.00    +0.000 C 
ATOM     19  C   UNL     1      -5.020   2.190 130.539  0.00  0.00    +0.000 C 
ATOM     20  O   UNL     1      -4.621   3.068 129.816  0.00  0.00    +0.000 OA
ATOM     21  N   UNL     1      -4.121   1.023 130.496  0.00  0.00    +0.000 N 
ATOM     22  C   UNL     1      -3.741  -0.357 132.101  0.00  0.00    +0.000 C 
ATOM     23  C   UNL     1      -3.365   1.551 132.989  0.00  0.00    +0.000 C 
ATOM     24  O   UNL     1      -4.229   2.582 133.099  0.00  0.00    +0.000 OA
ATOM     25  N   UNL     1      -3.322   0.676 134.595  0.00  0.00    +0.000 N 
ATOM     26  H   UNL     1      -8.772   5.595 126.825  0.00  0.00    +0.000 HD
ATOM     27  H   UNL     1      -7.262   6.108 131.485  0.00  0.00    +0.000 HD
ATOM     28  H   UNL     1      -8.221   1.652 131.427  0.00  0.00    +0.000 HD
ATOM     29  H   UNL     1      -3.092   1.412 130.451  0.00  0.00    +0.000 HD
ATOM     30  H   UNL     1      -2.655   0.531 135.483  0.00  0.00    +0.000 HD
ENDROOT
BRANCH   1  36
ATOM     31  C   UNL     1      -1.942  -2.726 135.282  0.00  0.00    +0.000 C 
ATOM     32  C   UNL     1      -1.319  -3.011 136.749  0.00  0.00    +0.000 C 
ATOM     33  C   UNL     1      -0.008  -3.574 136.474  0.00  0.00    +0.000 C 
ATOM     34  C   UNL     1       0.044  -2.440 134.879  0.00  0.00    +0.000 C 
ATOM     35  N   UNL     1      -1.691  -1.371 134.130  0.00  0.00    +0.000 N 
ATOM     36  C   UNL     1      -3.146   0.277 133.999  0.00  0.00    +0.000 C 
ATOM     37  O   UNL     1      -1.663   0.074 133.401  0.00  0.00    +0.000 OA
BRANCH  31  39
ATOM     38  N   UNL     1      -4.049  -2.649 134.813  0.00  0.00    +0.000 N 
ATOM     39  C   UNL     1      -3.085  -2.078 135.497  0.00  0.00    +0.000 C 
ATOM     40  O   UNL     1      -3.332  -1.320 136.400  0.00  0.00    +0.000 OA
ATOM     41  H   UNL     1      -4.243  -3.487 134.047  0.00  0.00    +0.000 HD
BRANCH  38  42
ATOM     42  C   UNL     1      -6.109  -2.897 135.207  0.00  0.00    +0.000 C 
BRANCH  42  44
ATOM     43  N   UNL     1      -8.104  -2.470 137.505  0.00  0.00    +0.000 N 
ATOM     44  C   UNL     1      -6.262  -3.521 136.953  0.00  0.00    +0.000 C 
ATOM     45  O   UNL     1      -5.658  -4.200 137.820  0.00  0.00    +0.000 OA
ATOM     46  H   UNL     1      -8.388  -1.664 136.862  0.00  0.00    +0.000 HD
BRANCH  43  47
ATOM     47  C   UNL     1      -8.570  -2.744 138.836  0.00  0.00    +0.000 C 
BRANCH  47  49
ATOM     48  N   UNL     1      -8.889  -0.977 140.280  0.00  0.00    +0.000 N 
ATOM     49  C   UNL     1      -9.361  -1.612 139.165  0.00  0.00    +0.000 C 
ATOM     50  O   UNL     1     -10.358  -1.289 138.534  0.00  0.00    +0.000 OA
ATOM     51  H   UNL     1      -9.399  -0.182 140.640  0.00  0.00    +0.000 HD
ATOM     52  H   UNL     1      -8.053  -1.244 140.791  0.00  0.00    +0.000 HD
ENDBRANCH  47  49
ENDBRANCH  43  47
ENDBRANCH  42  44
BRANCH  42  53
ATOM     53  C   UNL     1      -6.947  -3.985 134.308  0.00  0.00    +0.000 C 
BRANCH  53  54
ATOM     54  C   UNL     1      -6.044  -4.807 133.679  0.00  0.00    +0.000 C 
BRANCH  54  55
ATOM     55  C   UNL     1      -5.408  -5.833 134.299  0.00  0.00    +0.000 C 
BRANCH  55  56
ATOM     56  N   UNL     1      -4.059  -5.945 133.773  0.00  0.00    +0.000 NA
ATOM     57  C   UNL     1      -3.166  -6.028 134.701  0.00  0.00    +0.000 C 
ATOM     58  N   UNL     1      -3.544  -6.038 136.030  0.00  0.00    +0.000 N 
ATOM     59  N   UNL     1      -1.824  -6.132 134.381  0.00  0.00    +0.000 N 
ATOM     60  H   UNL     1      -4.529  -5.966 136.316  0.00  0.00    +0.000 HD
ATOM     61  H   UNL     1      -2.903  -6.107 136.802  0.00  0.00    +0.000 HD
ATOM     62  H   UNL     1      -1.489  -6.121 133.402  0.00  0.00    +0.000 HD
ATOM     63  H   UNL     1      -1.077  -6.201 135.061  0.00  0.00    +0.000 HD
ENDBRANCH  55  56
ENDBRANCH  54  55
ENDBRANCH  53  54
ENDBRANCH  42  53
ENDBRANCH  38  42
ENDBRANCH  31  39
ENDBRANCH   1  36
BRANCH  10  64
ATOM     64  C   UNL     1      -8.350   3.987 128.375  0.00  0.00    +0.000 C 
BRANCH  64  65
ATOM     65  C   UNL     1      -7.606   4.050 127.160  0.00  0.00    +0.000 A 
ATOM     66  C   UNL     1      -8.286   3.619 126.061  0.00  0.00    +0.000 A 
ATOM     67  C   UNL     1      -7.784   3.788 124.808  0.00  0.00    +0.000 A 
ATOM     68  C   UNL     1      -6.555   4.383 124.666  0.00  0.00    +0.000 A 
ATOM     69  C   UNL     1      -5.834   4.767 125.781  0.00  0.00    +0.000 A 
ATOM     70  C   UNL     1      -6.356   4.601 127.040  0.00  0.00    +0.000 A 
BRANCH  68  71
ATOM     71  O   UNL     1      -5.965   4.618 123.466  0.00  0.00    +0.000 OA
ATOM     72  H   UNL     1      -6.466   5.191 122.865  0.00  0.00    +0.000 HD
ENDBRANCH  68  71
ENDBRANCH  64  65
ENDBRANCH  10  64
BRANCH  22  73
ATOM     73  C   UNL     1      -2.802  -1.350 131.901  0.00  0.00    +0.000 C 
BRANCH  73  74
ATOM     74  C   UNL     1      -3.345  -2.365 131.090  0.00  0.00    +0.000 C 
ATOM     75  N   UNL     1      -3.322  -3.672 131.590  0.00  0.00    +0.000 N 
ATOM     76  O   UNL     1      -3.956  -2.039 130.113  0.00  0.00    +0.000 OA
ATOM     77  H   UNL     1      -3.088  -4.034 132.512  0.00  0.00    +0.000 HD
ATOM     78  H   UNL     1      -3.621  -4.436 131.027  0.00  0.00    +0.000 HD
ENDBRANCH  73  74
ENDBRANCH  22  73
BRANCH  18  79
ATOM     79  C   UNL     1      -6.468   0.729 133.314  0.00  0.00    +0.000 C 
BRANCH  79  80
ATOM     80  C   UNL     1      -6.483  -0.490 132.788  0.00  0.00    +0.000 C 
BRANCH  80  81
ATOM     81  C   UNL     1      -7.871  -0.752 132.619  0.00  0.00    +0.000 C 
BRANCH  81  82
ATOM     82  C   UNL     1      -7.879  -1.394 131.354  0.00  0.00    +0.000 C 
BRANCH  82  83
ATOM     83  N   UNL     1      -8.227  -0.405 130.363  0.00  0.00    +0.000 NA
ATOM     84  C   UNL     1      -7.543  -0.403 129.265  0.00  0.00    +0.000 C 
ATOM     85  N   UNL     1      -6.511  -1.296 129.035  0.00  0.00    +0.000 N 
ATOM     86  N   UNL     1      -7.848   0.526 128.275  0.00  0.00    +0.000 N 
ATOM     87  H   UNL     1      -6.246  -2.004 129.733  0.00  0.00    +0.000 HD
ATOM     88  H   UNL     1      -5.956  -1.330 128.194  0.00  0.00    +0.000 HD
ATOM     89  H   UNL     1      -8.608   1.217 128.393  0.00  0.00    +0.000 HD
ATOM     90  H   UNL     1      -7.369   0.600 127.387  0.00  0.00    +0.000 HD
ENDBRANCH  82  83
ENDBRANCH  81  82
ENDBRANCH  80  81
ENDBRANCH  79  80
ENDBRANCH  18  79
BRANCH  14  91
ATOM     91  C   UNL     1      -5.664   4.466 131.286  0.00  0.00    +0.000 C 
BRANCH  91  92
ATOM     92  C   UNL     1      -4.958   5.687 131.445  0.00  0.00    +0.000 A 
ATOM     93  C   UNL     1      -4.522   6.535 130.473  0.00  0.00    +0.000 A 
ATOM     94  C   UNL     1      -3.542   7.421 130.842  0.00  0.00    +0.000 A 
ATOM     95  C   UNL     1      -3.246   7.673 132.152  0.00  0.00    +0.000 A 
ATOM     96  C   UNL     1      -3.757   6.848 133.089  0.00  0.00    +0.000 A 
ATOM     97  C   UNL     1      -4.627   5.902 132.727  0.00  0.00    +0.000 A 
ENDBRANCH  91  92
ENDBRANCH  14  91
TORSDOF 22
ENDMDL
MODEL 7
REMARK VINA RESULT:      -8.7      3.781      8.502
REMARK  Name = CHEMBL2369836
REMARK  22 active torsions:
REMARK  status: ('A' for Active; 'I' for Inactive)
REMARK    1  A    between atoms: C_2  and  C_4
REMARK    2  A    between atoms: C_4  and  N_5
REMARK    3  A    between atoms: C_6  and  C_8
REMARK    4  A    between atoms: C_8  and  C_9
REMARK    5  A    between atoms: C_8  and  N_16
REMARK    6  A    between atoms: C_9  and  C_10
REMARK    7  A    between atoms: C_10  and  C_11
REMARK    8  A    between atoms: C_11  and  N_12
REMARK    9  A    between atoms: C_17  and  C_19
REMARK   10  A    between atoms: C_24  and  C_26
REMARK   11  A    between atoms: C_35  and  C_36
REMARK   12  A    between atoms: C_36  and  C_37
REMARK   13  A    between atoms: C_40  and  O_41
REMARK   14  A    between atoms: C_47  and  C_48
REMARK   15  A    between atoms: C_48  and  C_49
REMARK   16  A    between atoms: C_58  and  C_59
REMARK   17  A    between atoms: C_59  and  C_60
REMARK   18  A    between atoms: C_60  and  C_61
REMARK   19  A    between atoms: C_61  and  C_62
REMARK   20  A    between atoms: C_62  and  N_63
REMARK   21  A    between atoms: C_70  and  C_71
REMARK   22  A    between atoms: C_71  and  C_72
REMARK                            x       y       z     vdW  Elec       q    Type
REMARK                         _______ _______ _______ _____ _____    ______ ____
ROOT
ATOM      1  C   UNL     1      -4.054   2.000 132.219  0.00  0.00    +0.000 C 
ATOM      2  C   UNL     1      -3.573   1.926 134.807  0.00  0.00    +0.000 C 
ATOM      3  S   UNL     1      -3.423   2.427 137.500  0.00  0.00    +0.000 S 
ATOM      4  S   UNL     1      -2.975   3.559 140.096  0.00  0.00    +0.000 S 
ATOM      5  C   UNL     1      -3.703   5.381 140.403  0.00  0.00    +0.000 C 
ATOM      6  C   UNL     1      -3.373   6.725 141.007  0.00  0.00    +0.000 C 
ATOM      7  C   UNL     1      -4.006   7.969 140.340  0.00  0.00    +0.000 C 
ATOM      8  O   UNL     1      -3.911   9.074 140.884  0.00  0.00    +0.000 OA
ATOM      9  N   UNL     1      -4.634   7.829 139.122  0.00  0.00    +0.000 N 
ATOM     10  C   UNL     1      -4.813   6.578 138.404  0.00  0.00    +0.000 C 
ATOM     11  C   UNL     1      -3.283   6.089 137.945  0.00  0.00    +0.000 C 
ATOM     12  O   UNL     1      -2.248   5.983 138.680  0.00  0.00    +0.000 OA
ATOM     13  N   UNL     1      -3.145   5.595 136.745  0.00  0.00    +0.000 N 
ATOM     14  C   UNL     1      -4.011   5.839 135.670  0.00  0.00    +0.000 C 
ATOM     15  C   UNL     1      -5.208   4.845 136.016  0.00  0.00    +0.000 C 
ATOM     16  O   UNL     1      -6.016   4.682 136.969  0.00  0.00    +0.000 OA
ATOM     17  N   UNL     1      -5.288   3.860 135.304  0.00  0.00    +0.000 N 
ATOM     18  C   UNL     1      -4.836   3.864 133.967  0.00  0.00    +0.000 C 
ATOM     19  C   UNL     1      -5.255   5.685 133.135  0.00  0.00    +0.000 C 
ATOM     20  O   UNL     1      -4.702   6.741 133.314  0.00  0.00    +0.000 OA
ATOM     21  N   UNL     1      -5.992   5.687 131.858  0.00  0.00    +0.000 N 
ATOM     22  C   UNL     1      -6.354   3.987 130.591  0.00  0.00    +0.000 C 
ATOM     23  C   UNL     1      -4.236   3.949 130.878  0.00  0.00    +0.000 C 
ATOM     24  O   UNL     1      -3.576   3.859 132.052  0.00  0.00    +0.000 OA
ATOM     25  N   UNL     1      -4.271   2.283 130.122  0.00  0.00    +0.000 N 
ATOM     26  H   UNL     1      -5.111   8.628 138.683  0.00  0.00    +0.000 HD
ATOM     27  H   UNL     1      -2.201   5.267 136.565  0.00  0.00    +0.000 HD
ATOM     28  H   UNL     1      -6.300   3.563 135.528  0.00  0.00    +0.000 HD
ATOM     29  H   UNL     1      -5.369   6.226 131.128  0.00  0.00    +0.000 HD
ATOM     30  H   UNL     1      -3.808   1.706 129.282  0.00  0.00    +0.000 HD
ENDROOT
BRANCH   1  36
ATOM     31  C   UNL     1      -6.384   1.101 127.290  0.00  0.00    +0.000 C 
ATOM     32  C   UNL     1      -5.767  -0.022 126.300  0.00  0.00    +0.000 C 
ATOM     33  C   UNL     1      -5.969   0.529 124.970  0.00  0.00    +0.000 C 
ATOM     34  C   UNL     1      -5.728   2.302 125.767  0.00  0.00    +0.000 C 
ATOM     35  N   UNL     1      -5.697   2.640 127.911  0.00  0.00    +0.000 N 
ATOM     36  C   UNL     1      -4.815   2.744 129.927  0.00  0.00    +0.000 C 
ATOM     37  O   UNL     1      -4.809   3.759 128.674  0.00  0.00    +0.000 OA
BRANCH  31  39
ATOM     38  N   UNL     1      -7.192   0.567 129.220  0.00  0.00    +0.000 N 
ATOM     39  C   UNL     1      -6.087   0.694 128.522  0.00  0.00    +0.000 C 
ATOM     40  O   UNL     1      -5.059   0.188 128.893  0.00  0.00    +0.000 OA
ATOM     41  H   UNL     1      -8.330   0.735 129.155  0.00  0.00    +0.000 HD
BRANCH  38  42
ATOM     42  C   UNL     1      -7.746  -0.765 130.762  0.00  0.00    +0.000 C 
BRANCH  42  44
ATOM     43  N   UNL     1      -7.214  -1.841 133.592  0.00  0.00    +0.000 N 
ATOM     44  C   UNL     1      -6.227  -1.077 131.790  0.00  0.00    +0.000 C 
ATOM     45  O   UNL     1      -4.981  -0.916 131.793  0.00  0.00    +0.000 OA
ATOM     46  H   UNL     1      -8.264  -1.647 133.662  0.00  0.00    +0.000 HD
BRANCH  43  47
ATOM     47  C   UNL     1      -6.317  -2.233 134.642  0.00  0.00    +0.000 C 
BRANCH  47  49
ATOM     48  N   UNL     1      -4.348  -3.243 133.996  0.00  0.00    +0.000 N 
ATOM     49  C   UNL     1      -5.698  -3.409 134.144  0.00  0.00    +0.000 C 
ATOM     50  O   UNL     1      -6.322  -4.421 133.857  0.00  0.00    +0.000 OA
ATOM     51  H   UNL     1      -3.805  -3.999 133.602  0.00  0.00    +0.000 HD
ATOM     52  H   UNL     1      -3.835  -2.404 134.249  0.00  0.00    +0.000 HD
ENDBRANCH  47  49
ENDBRANCH  43  47
ENDBRANCH  42  44
BRANCH  42  53
ATOM     53  C   UNL     1      -8.272  -2.263 130.344  0.00  0.00    +0.000 C 
BRANCH  53  54
ATOM     54  C   UNL     1      -7.643  -2.628 129.179  0.00  0.00    +0.000 C 
BRANCH  54  55
ATOM     55  C   UNL     1      -6.805  -3.692 129.082  0.00  0.00    +0.000 C 
BRANCH  55  56
ATOM     56  N   UNL     1      -5.441  -3.245 129.297  0.00  0.00    +0.000 NA
ATOM     57  C   UNL     1      -4.834  -3.918 130.217  0.00  0.00    +0.000 C 
ATOM     58  N   UNL     1      -5.478  -4.960 130.855  0.00  0.00    +0.000 N 
ATOM     59  N   UNL     1      -3.527  -3.622 130.561  0.00  0.00    +0.000 N 
ATOM     60  H   UNL     1      -6.448  -5.219 130.632  0.00  0.00    +0.000 HD
ATOM     61  H   UNL     1      -5.064  -5.528 131.574  0.00  0.00    +0.000 HD
ATOM     62  H   UNL     1      -3.003  -2.845 130.119  0.00  0.00    +0.000 HD
ATOM     63  H   UNL     1      -2.997  -4.110 131.271  0.00  0.00    +0.000 HD
ENDBRANCH  55  56
ENDBRANCH  54  55
ENDBRANCH  53  54
ENDBRANCH  42  53
ENDBRANCH  38  42
ENDBRANCH  31  39
ENDBRANCH   1  36
BRANCH  10  64
ATOM     64  C   UNL     1      -5.678   6.921 137.294  0.00  0.00    +0.000 C 
BRANCH  64  65
ATOM     65  C   UNL     1      -6.782   7.809 137.453  0.00  0.00    +0.000 A 
ATOM     66  C   UNL     1      -7.987   7.189 137.588  0.00  0.00    +0.000 A 
ATOM     67  C   UNL     1      -9.106   7.884 137.931  0.00  0.00    +0.000 A 
ATOM     68  C   UNL     1      -9.007   9.240 138.117  0.00  0.00    +0.000 A 
ATOM     69  C   UNL     1      -7.799   9.884 137.923  0.00  0.00    +0.000 A 
ATOM     70  C   UNL     1      -6.675   9.170 137.587  0.00  0.00    +0.000 A 
BRANCH  68  71
ATOM     71  O   UNL     1     -10.050  10.030 138.477  0.00  0.00    +0.000 OA
ATOM     72  H   UNL     1     -10.554   9.724 139.248  0.00  0.00    +0.000 HD
ENDBRANCH  68  71
ENDBRANCH  64  65
ENDBRANCH  10  64
BRANCH  22  73
ATOM     73  C   UNL     1      -6.999   4.195 129.387  0.00  0.00    +0.000 C 
BRANCH  73  74
ATOM     74  C   UNL     1      -8.304   4.668 129.619  0.00  0.00    +0.000 C 
ATOM     75  N   UNL     1      -9.305   3.717 129.843  0.00  0.00    +0.000 N 
ATOM     76  O   UNL     1      -8.454   5.844 129.795  0.00  0.00    +0.000 OA
ATOM     77  H   UNL     1      -9.254   2.712 129.996  0.00  0.00    +0.000 HD
ATOM     78  H   UNL     1     -10.257   3.994 129.934  0.00  0.00    +0.000 HD
ENDBRANCH  73  74
ENDBRANCH  22  73
BRANCH  18  79
ATOM     79  C   UNL     1      -5.735   2.265 133.187  0.00  0.00    +0.000 C 
BRANCH  79  80
ATOM     80  C   UNL     1      -6.832   1.774 133.752  0.00  0.00    +0.000 C 
BRANCH  80  81
ATOM     81  C   UNL     1      -7.872   2.248 132.905  0.00  0.00    +0.000 C 
BRANCH  81  82
ATOM     82  C   UNL     1      -8.474   3.232 133.730  0.00  0.00    +0.000 C 
BRANCH  82  83
ATOM     83  N   UNL     1      -9.319   4.048 132.893  0.00  0.00    +0.000 NA
ATOM     84  C   UNL     1      -9.378   5.311 133.166  0.00  0.00    +0.000 C 
ATOM     85  N   UNL     1      -8.676   5.874 134.217  0.00  0.00    +0.000 N 
ATOM     86  N   UNL     1     -10.172   6.141 132.380  0.00  0.00    +0.000 N 
ATOM     87  H   UNL     1      -8.073   5.305 134.828  0.00  0.00    +0.000 HD
ATOM     88  H   UNL     1      -8.692   6.852 134.462  0.00  0.00    +0.000 HD
ATOM     89  H   UNL     1     -10.718   5.776 131.582  0.00  0.00    +0.000 HD
ATOM     90  H   UNL     1     -10.277   7.138 132.518  0.00  0.00    +0.000 HD
ENDBRANCH  82  83
ENDBRANCH  81  82
ENDBRANCH  80  81
ENDBRANCH  79  80
ENDBRANCH  18  79
BRANCH  14  91
ATOM     91  C   UNL     1      -3.196   5.512 134.506  0.00  0.00    +0.000 C 
BRANCH  91  92
ATOM     92  C   UNL     1      -2.033   6.262 134.191  0.00  0.00    +0.000 A 
ATOM     93  C   UNL     1      -1.584   7.400 134.789  0.00  0.00    +0.000 A 
ATOM     94  C   UNL     1      -0.680   8.141 134.070  0.00  0.00    +0.000 A 
ATOM     95  C   UNL     1      -0.023   7.633 132.985  0.00  0.00    +0.000 A 
ATOM     96  C   UNL     1      -0.458   6.466 132.467  0.00  0.00    +0.000 A 
ATOM     97  C   UNL     1      -1.421   5.787 133.095  0.00  0.00    +0.000 A 
ENDBRANCH  91  92
ENDBRANCH  14  91
TORSDOF 22
ENDMDL
MODEL 8
REMARK VINA RESULT:      -8.5      5.557      9.903
REMARK  Name = CHEMBL2369836
REMARK  22 active torsions:
REMARK  status: ('A' for Active; 'I' for Inactive)
REMARK    1  A    between atoms: C_2  and  C_4
REMARK    2  A    between atoms: C_4  and  N_5
REMARK    3  A    between atoms: C_6  and  C_8
REMARK    4  A    between atoms: C_8  and  C_9
REMARK    5  A    between atoms: C_8  and  N_16
REMARK    6  A    between atoms: C_9  and  C_10
REMARK    7  A    between atoms: C_10  and  C_11
REMARK    8  A    between atoms: C_11  and  N_12
REMARK    9  A    between atoms: C_17  and  C_19
REMARK   10  A    between atoms: C_24  and  C_26
REMARK   11  A    between atoms: C_35  and  C_36
REMARK   12  A    between atoms: C_36  and  C_37
REMARK   13  A    between atoms: C_40  and  O_41
REMARK   14  A    between atoms: C_47  and  C_48
REMARK   15  A    between atoms: C_48  and  C_49
REMARK   16  A    between atoms: C_58  and  C_59
REMARK   17  A    between atoms: C_59  and  C_60
REMARK   18  A    between atoms: C_60  and  C_61
REMARK   19  A    between atoms: C_61  and  C_62
REMARK   20  A    between atoms: C_62  and  N_63
REMARK   21  A    between atoms: C_70  and  C_71
REMARK   22  A    between atoms: C_71  and  C_72
REMARK                            x       y       z     vdW  Elec       q    Type
REMARK                         _______ _______ _______ _____ _____    ______ ____
ROOT
ATOM      1  C   UNL     1      -2.986   4.617 134.085  0.00  0.00    +0.000 C 
ATOM      2  C   UNL     1      -3.411   4.786 136.679  0.00  0.00    +0.000 C 
ATOM      3  S   UNL     1      -3.841   5.625 139.254  0.00  0.00    +0.000 S 
ATOM      4  S   UNL     1      -3.678   6.848 141.843  0.00  0.00    +0.000 S 
ATOM      5  C   UNL     1      -3.425   8.817 141.876  0.00  0.00    +0.000 C 
ATOM      6  C   UNL     1      -2.653   9.923 142.557  0.00  0.00    +0.000 C 
ATOM      7  C   UNL     1      -2.327  11.176 141.711  0.00  0.00    +0.000 C 
ATOM      8  O   UNL     1      -1.849  12.177 142.252  0.00  0.00    +0.000 OA
ATOM      9  N   UNL     1      -2.540  11.139 140.349  0.00  0.00    +0.000 N 
ATOM     10  C   UNL     1      -3.109  10.021 139.615  0.00  0.00    +0.000 C 
ATOM     11  C   UNL     1      -1.989   8.785 139.718  0.00  0.00    +0.000 C 
ATOM     12  O   UNL     1      -1.429   8.330 140.768  0.00  0.00    +0.000 OA
ATOM     13  N   UNL     1      -1.771   8.081 138.642  0.00  0.00    +0.000 N 
ATOM     14  C   UNL     1      -2.022   8.513 137.333  0.00  0.00    +0.000 C 
ATOM     15  C   UNL     1      -3.598   8.294 137.240  0.00  0.00    +0.000 C 
ATOM     16  O   UNL     1      -4.618   8.712 137.851  0.00  0.00    +0.000 OA
ATOM     17  N   UNL     1      -3.953   7.358 136.545  0.00  0.00    +0.000 N 
ATOM     18  C   UNL     1      -3.187   6.907 135.450  0.00  0.00    +0.000 C 
ATOM     19  C   UNL     1      -2.345   8.524 134.522  0.00  0.00    +0.000 C 
ATOM     20  O   UNL     1      -1.412   9.198 134.883  0.00  0.00    +0.000 OA
ATOM     21  N   UNL     1      -2.555   8.650 133.069  0.00  0.00    +0.000 N 
ATOM     22  C   UNL     1      -3.336   7.136 131.756  0.00  0.00    +0.000 C 
ATOM     23  C   UNL     1      -1.736   6.140 132.764  0.00  0.00    +0.000 C 
ATOM     24  O   UNL     1      -1.601   5.957 134.094  0.00  0.00    +0.000 OA
ATOM     25  N   UNL     1      -2.388   4.590 132.044  0.00  0.00    +0.000 N 
ATOM     26  H   UNL     1      -2.385  11.976 139.771  0.00  0.00    +0.000 HD
ATOM     27  H   UNL     1      -1.125   7.314 138.803  0.00  0.00    +0.000 HD
ATOM     28  H   UNL     1      -4.987   7.628 136.403  0.00  0.00    +0.000 HD
ATOM     29  H   UNL     1      -1.559   8.685 132.602  0.00  0.00    +0.000 HD
ATOM     30  H   UNL     1      -2.059   3.722 131.418  0.00  0.00    +0.000 HD
ENDROOT
BRANCH   1  36
ATOM     31  C   UNL     1      -3.927   4.164 128.660  0.00  0.00    +0.000 C 
ATOM     32  C   UNL     1      -3.778   2.725 127.933  0.00  0.00    +0.000 C 
ATOM     33  C   UNL     1      -3.261   3.045 126.613  0.00  0.00    +0.000 C 
ATOM     34  C   UNL     1      -2.324   4.550 127.446  0.00  0.00    +0.000 C 
ATOM     35  N   UNL     1      -2.717   5.210 129.476  0.00  0.00    +0.000 N 
ATOM     36  C   UNL     1      -2.533   5.212 131.671  0.00  0.00    +0.000 C 
ATOM     37  O   UNL     1      -1.620   5.828 130.494  0.00  0.00    +0.000 OA
BRANCH  31  39
ATOM     38  N   UNL     1      -5.297   4.630 130.262  0.00  0.00    +0.000 N 
ATOM     39  C   UNL     1      -4.263   3.897 129.919  0.00  0.00    +0.000 C 
ATOM     40  O   UNL     1      -3.945   2.933 130.568  0.00  0.00    +0.000 OA
ATOM     41  H   UNL     1      -5.987   5.464 129.870  0.00  0.00    +0.000 HD
BRANCH  38  42
ATOM     42  C   UNL     1      -6.924   4.263 131.558  0.00  0.00    +0.000 C 
BRANCH  42  44
ATOM     43  N   UNL     1      -5.369   2.130 133.134  0.00  0.00    +0.000 N 
ATOM     44  C   UNL     1      -7.056   2.418 131.764  0.00  0.00    +0.000 C 
ATOM     45  O   UNL     1      -7.681   1.414 131.338  0.00  0.00    +0.000 OA
ATOM     46  H   UNL     1      -4.681   2.946 133.198  0.00  0.00    +0.000 HD
BRANCH  43  47
ATOM     47  C   UNL     1      -5.171   0.772 133.558  0.00  0.00    +0.000 C 
BRANCH  47  49
ATOM     48  N   UNL     1      -2.882   0.907 133.784  0.00  0.00    +0.000 N 
ATOM     49  C   UNL     1      -3.906   0.423 133.018  0.00  0.00    +0.000 C 
ATOM     50  O   UNL     1      -3.776  -0.202 131.974  0.00  0.00    +0.000 OA
ATOM     51  H   UNL     1      -1.931   0.762 133.473  0.00  0.00    +0.000 HD
ATOM     52  H   UNL     1      -2.998   1.414 134.656  0.00  0.00    +0.000 HD
ENDBRANCH  47  49
ENDBRANCH  43  47
ENDBRANCH  42  44
BRANCH  42  53
ATOM     53  C   UNL     1      -8.422   4.729 131.077  0.00  0.00    +0.000 C 
BRANCH  53  54
ATOM     54  C   UNL     1      -8.534   6.084 131.274  0.00  0.00    +0.000 C 
BRANCH  54  55
ATOM     55  C   UNL     1      -9.650   6.795 130.973  0.00  0.00    +0.000 C 
BRANCH  55  56
ATOM     56  N   UNL     1      -9.427   7.532 129.742  0.00  0.00    +0.000 NA
ATOM     57  C   UNL     1     -10.525   7.928 129.190  0.00  0.00    +0.000 C 
ATOM     58  N   UNL     1     -11.739   7.664 129.793  0.00  0.00    +0.000 N 
ATOM     59  N   UNL     1     -10.501   8.639 128.004  0.00  0.00    +0.000 N 
ATOM     60  H   UNL     1     -11.807   7.142 130.676  0.00  0.00    +0.000 HD
ATOM     61  H   UNL     1     -12.630   7.947 129.423  0.00  0.00    +0.000 HD
ATOM     62  H   UNL     1      -9.618   8.854 127.508  0.00  0.00    +0.000 HD
ATOM     63  H   UNL     1     -11.325   8.977 127.522  0.00  0.00    +0.000 HD
ENDBRANCH  55  56
ENDBRANCH  54  55
ENDBRANCH  53  54
ENDBRANCH  42  53
ENDBRANCH  38  42
ENDBRANCH  31  39
ENDBRANCH   1  36
BRANCH  10  64
ATOM     64  C   UNL     1      -3.298  10.532 138.273  0.00  0.00    +0.000 C 
BRANCH  64  65
ATOM     65  C   UNL     1      -3.062  11.901 137.954  0.00  0.00    +0.000 A 
ATOM     66  C   UNL     1      -3.836  12.782 138.647  0.00  0.00    +0.000 A 
ATOM     67  C   UNL     1      -3.605  14.122 138.594  0.00  0.00    +0.000 A 
ATOM     68  C   UNL     1      -2.583  14.582 137.801  0.00  0.00    +0.000 A 
ATOM     69  C   UNL     1      -1.833  13.698 137.048  0.00  0.00    +0.000 A 
ATOM     70  C   UNL     1      -2.069  12.347 137.118  0.00  0.00    +0.000 A 
BRANCH  68  71
ATOM     71  O   UNL     1      -2.251  15.893 137.684  0.00  0.00    +0.000 OA
ATOM     72  H   UNL     1      -2.700  16.371 136.970  0.00  0.00    +0.000 HD
ENDBRANCH  68  71
ENDBRANCH  64  65
ENDBRANCH  10  64
BRANCH  22  73
ATOM     73  C   UNL     1      -3.389   7.408 130.403  0.00  0.00    +0.000 C 
BRANCH  73  74
ATOM     74  C   UNL     1      -4.506   8.218 130.122  0.00  0.00    +0.000 C 
ATOM     75  N   UNL     1      -4.264   9.483 129.575  0.00  0.00    +0.000 N 
ATOM     76  O   UNL     1      -5.593   7.721 130.190  0.00  0.00    +0.000 OA
ATOM     77  H   UNL     1      -3.412   9.907 129.215  0.00  0.00    +0.000 HD
ATOM     78  H   UNL     1      -5.011  10.125 129.431  0.00  0.00    +0.000 HD
ENDBRANCH  73  74
ENDBRANCH  22  73
BRANCH  18  79
ATOM     79  C   UNL     1      -4.495   5.824 134.406  0.00  0.00    +0.000 C 
BRANCH  79  80
ATOM     80  C   UNL     1      -5.769   6.195 134.342  0.00  0.00    +0.000 C 
BRANCH  80  81
ATOM     81  C   UNL     1      -6.451   5.120 134.977  0.00  0.00    +0.000 C 
BRANCH  81  82
ATOM     82  C   UNL     1      -7.460   5.814 135.690  0.00  0.00    +0.000 C 
BRANCH  82  83
ATOM     83  N   UNL     1      -6.888   6.260 136.937  0.00  0.00    +0.000 NA
ATOM     84  C   UNL     1      -7.664   6.902 137.748  0.00  0.00    +0.000 C 
ATOM     85  N   UNL     1      -8.989   7.168 137.448  0.00  0.00    +0.000 N 
ATOM     86  N   UNL     1      -7.159   7.343 138.968  0.00  0.00    +0.000 N 
ATOM     87  H   UNL     1      -9.412   6.863 136.561  0.00  0.00    +0.000 HD
ATOM     88  H   UNL     1      -9.628   7.662 138.052  0.00  0.00    +0.000 HD
ATOM     89  H   UNL     1      -6.178   7.173 139.244  0.00  0.00    +0.000 HD
ATOM     90  H   UNL     1      -7.693   7.850 139.662  0.00  0.00    +0.000 HD
ENDBRANCH  82  83
ENDBRANCH  81  82
ENDBRANCH  80  81
ENDBRANCH  79  80
ENDBRANCH  18  79
BRANCH  14  91
ATOM     91  C   UNL     1      -1.185   7.634 136.526  0.00  0.00    +0.000 C 
BRANCH  91  92
ATOM     92  C   UNL     1       0.130   7.293 136.938  0.00  0.00    +0.000 A 
ATOM     93  C   UNL     1       1.309   7.779 136.461  0.00  0.00    +0.000 A 
ATOM     94  C   UNL     1       2.424   7.025 136.730  0.00  0.00    +0.000 A 
ATOM     95  C   UNL     1       2.423   6.037 137.673  0.00  0.00    +0.000 A 
ATOM     96  C   UNL     1       1.235   5.633 138.170  0.00  0.00    +0.000 A 
ATOM     97  C   UNL     1       0.124   6.287 137.826  0.00  0.00    +0.000 A 
ENDBRANCH  91  92
ENDBRANCH  14  91
TORSDOF 22
ENDMDL
MODEL 9
REMARK VINA RESULT:      -8.5      4.476      7.940
REMARK  Name = CHEMBL2369836
REMARK  22 active torsions:
REMARK  status: ('A' for Active; 'I' for Inactive)
REMARK    1  A    between atoms: C_2  and  C_4
REMARK    2  A    between atoms: C_4  and  N_5
REMARK    3  A    between atoms: C_6  and  C_8
REMARK    4  A    between atoms: C_8  and  C_9
REMARK    5  A    between atoms: C_8  and  N_16
REMARK    6  A    between atoms: C_9  and  C_10
REMARK    7  A    between atoms: C_10  and  C_11
REMARK    8  A    between atoms: C_11  and  N_12
REMARK    9  A    between atoms: C_17  and  C_19
REMARK   10  A    between atoms: C_24  and  C_26
REMARK   11  A    between atoms: C_35  and  C_36
REMARK   12  A    between atoms: C_36  and  C_37
REMARK   13  A    between atoms: C_40  and  O_41
REMARK   14  A    between atoms: C_47  and  C_48
REMARK   15  A    between atoms: C_48  and  C_49
REMARK   16  A    between atoms: C_58  and  C_59
REMARK   17  A    between atoms: C_59  and  C_60
REMARK   18  A    between atoms: C_60  and  C_61
REMARK   19  A    between atoms: C_61  and  C_62
REMARK   20  A    between atoms: C_62  and  N_63
REMARK   21  A    between atoms: C_70  and  C_71
REMARK   22  A    between atoms: C_71  and  C_72
REMARK                            x       y       z     vdW  Elec       q    Type
REMARK                         _______ _______ _______ _____ _____    ______ ____
ROOT
ATOM      1  C   UNL     1      -4.656   2.240 130.861  0.00  0.00    +0.000 C 
ATOM      2  C   UNL     1      -3.838   1.720 133.310  0.00  0.00    +0.000 C 
ATOM      3  S   UNL     1      -3.391   1.696 136.016  0.00  0.00    +0.000 S 
ATOM      4  S   UNL     1      -2.726   2.342 138.730  0.00  0.00    +0.000 S 
ATOM      5  C   UNL     1      -3.588   3.962 139.489  0.00  0.00    +0.000 C 
ATOM      6  C   UNL     1      -3.320   5.192 140.323  0.00  0.00    +0.000 C 
ATOM      7  C   UNL     1      -4.156   6.454 140.005  0.00  0.00    +0.000 C 
ATOM      8  O   UNL     1      -4.103   7.433 140.755  0.00  0.00    +0.000 OA
ATOM      9  N   UNL     1      -4.920   6.479 138.858  0.00  0.00    +0.000 N 
ATOM     10  C   UNL     1      -5.063   5.381 137.916  0.00  0.00    +0.000 C 
ATOM     11  C   UNL     1      -3.565   5.187 137.204  0.00  0.00    +0.000 C 
ATOM     12  O   UNL     1      -2.438   5.069 137.786  0.00  0.00    +0.000 OA
ATOM     13  N   UNL     1      -3.535   4.960 135.920  0.00  0.00    +0.000 N 
ATOM     14  C   UNL     1      -4.553   5.300 135.019  0.00  0.00    +0.000 C 
ATOM     15  C   UNL     1      -5.589   4.116 135.273  0.00  0.00    +0.000 C 
ATOM     16  O   UNL     1      -6.246   3.668 136.251  0.00  0.00    +0.000 OA
ATOM     17  N   UNL     1      -5.660   3.288 134.382  0.00  0.00    +0.000 N 
ATOM     18  C   UNL     1      -5.389   3.611 133.036  0.00  0.00    +0.000 C 
ATOM     19  C   UNL     1      -6.094   5.493 132.654  0.00  0.00    +0.000 C 
ATOM     20  O   UNL     1      -5.632   6.554 132.992  0.00  0.00    +0.000 OA
ATOM     21  N   UNL     1      -6.987   5.653 131.493  0.00  0.00    +0.000 N 
ATOM     22  C   UNL     1      -7.336   4.204 129.942  0.00  0.00    +0.000 C 
ATOM     23  C   UNL     1      -5.207   4.376 129.988  0.00  0.00    +0.000 C 
ATOM     24  O   UNL     1      -4.394   4.141 131.040  0.00  0.00    +0.000 OA
ATOM     25  N   UNL     1      -5.171   2.901 128.906  0.00  0.00    +0.000 N 
ATOM     26  H   UNL     1      -5.528   7.282 138.650  0.00  0.00    +0.000 HD
ATOM     27  H   UNL     1      -2.594   4.795 135.575  0.00  0.00    +0.000 HD
ATOM     28  H   UNL     1      -6.599   2.828 134.645  0.00  0.00    +0.000 HD
ATOM     29  H   UNL     1      -6.522   6.399 130.831  0.00  0.00    +0.000 HD
ATOM     30  H   UNL     1      -4.765   2.563 127.919  0.00  0.00    +0.000 HD
ENDROOT
BRANCH   1  36
ATOM     31  C   UNL     1      -7.119   2.054 125.919  0.00  0.00    +0.000 C 
ATOM     32  C   UNL     1      -6.332   1.427 124.650  0.00  0.00    +0.000 C 
ATOM     33  C   UNL     1      -6.783   2.226 123.523  0.00  0.00    +0.000 C 
ATOM     34  C   UNL     1      -6.921   3.734 124.765  0.00  0.00    +0.000 C 
ATOM     35  N   UNL     1      -6.784   3.507 126.920  0.00  0.00    +0.000 N 
ATOM     36  C   UNL     1      -5.779   3.319 128.871  0.00  0.00    +0.000 C 
ATOM     37  O   UNL     1      -6.138   4.586 127.941  0.00  0.00    +0.000 OA
BRANCH  31  39
ATOM     38  N   UNL     1      -7.536   0.652 127.507  0.00  0.00    +0.000 N 
ATOM     39  C   UNL     1      -6.621   1.438 126.989  0.00  0.00    +0.000 C 
ATOM     40  O   UNL     1      -5.459   1.312 127.281  0.00  0.00    +0.000 OA
ATOM     41  H   UNL     1      -8.640   0.346 127.390  0.00  0.00    +0.000 HD
BRANCH  38  42
ATOM     42  C   UNL     1      -7.406  -1.204 128.507  0.00  0.00    +0.000 C 
BRANCH  42  44
ATOM     43  N   UNL     1      -6.662  -2.198 125.694  0.00  0.00    +0.000 N 
ATOM     44  C   UNL     1      -8.070  -2.499 127.347  0.00  0.00    +0.000 C 
ATOM     45  O   UNL     1      -9.012  -3.319 127.210  0.00  0.00    +0.000 OA
ATOM     46  H   UNL     1      -6.106  -1.285 125.722  0.00  0.00    +0.000 HD
BRANCH  43  47
ATOM     47  C   UNL     1      -6.853  -3.083 124.580  0.00  0.00    +0.000 C 
BRANCH  47  49
ATOM     48  N   UNL     1      -8.824  -2.339 123.646  0.00  0.00    +0.000 N 
ATOM     49  C   UNL     1      -7.460  -2.266 123.591  0.00  0.00    +0.000 C 
ATOM     50  O   UNL     1      -6.818  -1.615 122.777  0.00  0.00    +0.000 OA
ATOM     51  H   UNL     1      -9.367  -1.836 122.957  0.00  0.00    +0.000 HD
ATOM     52  H   UNL     1      -9.350  -2.872 124.332  0.00  0.00    +0.000 HD
ENDBRANCH  47  49
ENDBRANCH  43  47
ENDBRANCH  42  44
BRANCH  42  53
ATOM     53  C   UNL     1      -8.273  -1.407 129.886  0.00  0.00    +0.000 C 
BRANCH  53  54
ATOM     54  C   UNL     1      -7.415  -1.831 130.872  0.00  0.00    +0.000 C 
BRANCH  54  55
ATOM     55  C   UNL     1      -6.592  -2.902 130.738  0.00  0.00    +0.000 C 
BRANCH  55  56
ATOM     56  N   UNL     1      -5.298  -2.582 131.315  0.00  0.00    +0.000 NA
ATOM     57  C   UNL     1      -4.320  -2.816 130.506  0.00  0.00    +0.000 C 
ATOM     58  N   UNL     1      -4.569  -3.288 129.232  0.00  0.00    +0.000 N 
ATOM     59  N   UNL     1      -3.013  -2.577 130.893  0.00  0.00    +0.000 N 
ATOM     60  H   UNL     1      -5.522  -3.478 128.898  0.00  0.00    +0.000 HD
ATOM     61  H   UNL     1      -3.856  -3.485 128.550  0.00  0.00    +0.000 HD
ATOM     62  H   UNL     1      -2.773  -2.232 131.839  0.00  0.00    +0.000 HD
ATOM     63  H   UNL     1      -2.204  -2.739 130.308  0.00  0.00    +0.000 HD
ENDBRANCH  55  56
ENDBRANCH  54  55
ENDBRANCH  53  54
ENDBRANCH  42  53
ENDBRANCH  38  42
ENDBRANCH  31  39
ENDBRANCH   1  36
BRANCH  10  64
ATOM     64  C   UNL     1      -6.095   5.824 137.002  0.00  0.00    +0.000 C 
BRANCH  64  65
ATOM     65  C   UNL     1      -6.876   6.988 137.263  0.00  0.00    +0.000 A 
ATOM     66  C   UNL     1      -8.183   6.736 137.551  0.00  0.00    +0.000 A 
ATOM     67  C   UNL     1      -9.011   7.718 138.001  0.00  0.00    +0.000 A 
ATOM     68  C   UNL     1      -8.509   8.989 138.139  0.00  0.00    +0.000 A 
ATOM     69  C   UNL     1      -7.200   9.263 137.791  0.00  0.00    +0.000 A 
ATOM     70  C   UNL     1      -6.372   8.262 137.347  0.00  0.00    +0.000 A 
BRANCH  68  71
ATOM     71  O   UNL     1      -9.236  10.040 138.595  0.00  0.00    +0.000 OA
ATOM     72  H   UNL     1     -10.087   9.810 139.000  0.00  0.00    +0.000 HD
ENDBRANCH  68  71
ENDBRANCH  64  65
ENDBRANCH  10  64
BRANCH  22  73
ATOM     73  C   UNL     1      -8.150   4.562 128.884  0.00  0.00    +0.000 C 
BRANCH  73  74
ATOM     74  C   UNL     1      -9.412   4.962 129.366  0.00  0.00    +0.000 C 
ATOM     75  N   UNL     1      -9.763   6.307 129.214  0.00  0.00    +0.000 N 
ATOM     76  O   UNL     1     -10.181   4.109 129.705  0.00  0.00    +0.000 OA
ATOM     77  H   UNL     1      -9.319   7.063 128.698  0.00  0.00    +0.000 HD
ATOM     78  H   UNL     1     -10.608   6.658 129.607  0.00  0.00    +0.000 HD
ENDBRANCH  73  74
ENDBRANCH  22  73
BRANCH  18  79
ATOM     79  C   UNL     1      -6.215   2.097 132.037  0.00  0.00    +0.000 C 
BRANCH  79  80
ATOM     80  C   UNL     1      -7.283   1.477 132.528  0.00  0.00    +0.000 C 
BRANCH  80  81
ATOM     81  C   UNL     1      -8.282   1.732 131.549  0.00  0.00    +0.000 C 
BRANCH  81  82
ATOM     82  C   UNL     1      -9.401   2.034 132.366  0.00  0.00    +0.000 C 
BRANCH  82  83
ATOM     83  N   UNL     1      -8.914   2.713 133.542  0.00  0.00    +0.000 NA
ATOM     84  C   UNL     1      -9.300   3.934 133.722  0.00  0.00    +0.000 C 
ATOM     85  N   UNL     1     -10.137   4.584 132.832  0.00  0.00    +0.000 N 
ATOM     86  N   UNL     1      -8.863   4.626 134.848  0.00  0.00    +0.000 N 
ATOM     87  H   UNL     1     -10.489   4.116 131.985  0.00  0.00    +0.000 HD
ATOM     88  H   UNL     1     -10.463   5.532 132.936  0.00  0.00    +0.000 HD
ATOM     89  H   UNL     1      -8.238   4.192 135.546  0.00  0.00    +0.000 HD
ATOM     90  H   UNL     1      -9.116   5.581 135.070  0.00  0.00    +0.000 HD
ENDBRANCH  82  83
ENDBRANCH  81  82
ENDBRANCH  80  81
ENDBRANCH  79  80
ENDBRANCH  18  79
BRANCH  14  91
ATOM     91  C   UNL     1      -3.867   5.313 133.731  0.00  0.00    +0.000 C 
BRANCH  91  92
ATOM     92  C   UNL     1      -2.661   6.038 133.551  0.00  0.00    +0.000 A 
ATOM     93  C   UNL     1      -2.365   7.294 133.986  0.00  0.00    +0.000 A 
ATOM     94  C   UNL     1      -1.313   7.915 133.363  0.00  0.00    +0.000 A 
ATOM     95  C   UNL     1      -0.415   7.229 132.595  0.00  0.00    +0.000 A 
ATOM     96  C   UNL     1      -0.717   5.962 132.244  0.00  0.00    +0.000 A 
ATOM     97  C   UNL     1      -1.804   5.380 132.754  0.00  0.00    +0.000 A 
ENDBRANCH  91  92
ENDBRANCH  14  91
TORSDOF 22
ENDMDL
