MODEL 1
REMARK VINA RESULT:     -10.5      0.000      0.000
REMARK  Name = CHEMBL344752
REMARK  7 active torsions:
REMARK  status: ('A' for Active; 'I' for Inactive)
REMARK    1  A    between atoms: C_1  and  C_2
REMARK    2  A    between atoms: C_9  and  C_10
REMARK    3  A    between atoms: C_10  and  C_11
REMARK    4  A    between atoms: C_11  and  O_12
REMARK    5  A    between atoms: O_12  and  C_13
REMARK    6  A    between atoms: C_16  and  C_17
REMARK    7  A    between atoms: C_22  and  N_23
REMARK                            x       y       z     vdW  Elec       q    Type
REMARK                         _______ _______ _______ _____ _____    ______ ____
ROOT
ATOM      1  C   UNL     1      -6.056   1.633 131.334  0.00  0.00    +0.000 C 
ATOM      2  O   UNL     1      -5.217   1.639 132.236  0.00  0.00    +0.000 OA
ATOM      3  N   UNL     1      -7.177   2.506 131.341  0.00  0.00    +0.000 N 
ATOM      4  C   UNL     1      -7.005   3.961 131.473  0.00  0.00    +0.000 C 
ATOM      5  C   UNL     1      -7.957   4.611 132.472  0.00  0.00    +0.000 C 
ATOM      6  C   UNL     1      -9.549   4.571 131.791  0.00  0.00    +0.000 C 
ATOM      7  C   UNL     1      -9.548   2.808 131.986  0.00  0.00    +0.000 C 
ATOM      8  C   UNL     1      -8.554   2.075 131.093  0.00  0.00    +0.000 C 
ENDROOT
BRANCH   6   9
ATOM      9  N   UNL     1      -9.876   6.002 130.641  0.00  0.00    +0.000 N 
ATOM     10  C   UNL     1     -10.881   6.291 131.625  0.00  0.00    +0.000 C 
ATOM     11  O   UNL     1     -10.697   6.498 132.874  0.00  0.00    +0.000 OA
ATOM     12  O   UNL     1     -12.138   6.138 131.255  0.00  0.00    +0.000 OA
ATOM     13  C   UNL     1     -12.334   7.444 130.863  0.00  0.00    +0.000 C 
ATOM     14  C   UNL     1     -12.050   7.139 129.470  0.00  0.00    +0.000 A 
ATOM     15  C   UNL     1     -12.912   6.709 128.438  0.00  0.00    +0.000 A 
ATOM     16  C   UNL     1     -12.759   7.080 127.103  0.00  0.00    +0.000 A 
ATOM     17  C   UNL     1     -11.815   8.035 126.951  0.00  0.00    +0.000 A 
ATOM     18  C   UNL     1     -10.719   7.969 128.053  0.00  0.00    +0.000 A 
ATOM     19  C   UNL     1     -10.753   6.881 129.244  0.00  0.00    +0.000 A 
ENDBRANCH   6   9
BRANCH   1  23
ATOM     20  C   UNL     1      -5.650  -0.746 127.717  0.00  0.00    +0.000 A 
ATOM     21  C   UNL     1      -5.323   0.606 127.696  0.00  0.00    +0.000 A 
ATOM     22  C   UNL     1      -5.337   1.356 128.892  0.00  0.00    +0.000 A 
ATOM     23  C   UNL     1      -5.771   0.782 130.108  0.00  0.00    +0.000 A 
ATOM     24  C   UNL     1      -6.085  -0.574 130.091  0.00  0.00    +0.000 A 
ATOM     25  C   UNL     1      -6.000  -1.336 128.926  0.00  0.00    +0.000 A 
BRANCH  20  26
ATOM     26  O   UNL     1      -5.539  -1.443 126.545  0.00  0.00    +0.000 OA
BRANCH  26  27
ATOM     27  C   UNL     1      -5.664  -0.621 125.383  0.00  0.00    +0.000 C 
BRANCH  27  28
ATOM     28  C   UNL     1      -6.611  -1.293 124.411  0.00  0.00    +0.000 C 
BRANCH  28  37
ATOM     29  C   UNL     1      -8.926   1.621 123.204  0.00  0.00    +0.000 C 
ATOM     30  C   UNL     1      -9.578   0.257 123.052  0.00  0.00    +0.000 C 
ATOM     31  O   UNL     1     -10.673   0.152 122.500  0.00  0.00    +0.000 OA
ATOM     32  N   UNL     1      -8.812  -0.843 123.424  0.00  0.00    +0.000 N 
ATOM     33  C   UNL     1      -8.923  -2.101 122.683  0.00  0.00    +0.000 C 
ATOM     34  C   UNL     1      -9.507  -3.231 123.528  0.00  0.00    +0.000 C 
ATOM     35  C   UNL     1      -8.818  -3.373 124.885  0.00  0.00    +0.000 C 
ATOM     36  C   UNL     1      -8.758  -2.016 125.590  0.00  0.00    +0.000 C 
ATOM     37  C   UNL     1      -8.081  -0.944 124.696  0.00  0.00    +0.000 C 
ENDBRANCH  28  37
ENDBRANCH  27  28
ENDBRANCH  26  27
ENDBRANCH  20  26
ENDBRANCH   1  23
TORSDOF 6
ENDMDL
MODEL 2
REMARK VINA RESULT:     -10.4      1.515      2.109
REMARK  Name = CHEMBL344752
REMARK  7 active torsions:
REMARK  status: ('A' for Active; 'I' for Inactive)
REMARK    1  A    between atoms: C_1  and  C_2
REMARK    2  A    between atoms: C_9  and  C_10
REMARK    3  A    between atoms: C_10  and  C_11
REMARK    4  A    between atoms: C_11  and  O_12
REMARK    5  A    between atoms: O_12  and  C_13
REMARK    6  A    between atoms: C_16  and  C_17
REMARK    7  A    between atoms: C_22  and  N_23
REMARK                            x       y       z     vdW  Elec       q    Type
REMARK                         _______ _______ _______ _____ _____    ______ ____
ROOT
ATOM      1  C   UNL     1      -7.045   0.341 131.313  0.00  0.00    +0.000 C 
ATOM      2  O   UNL     1      -6.053   0.220 132.032  0.00  0.00    +0.000 OA
ATOM      3  N   UNL     1      -7.890   1.483 131.378  0.00  0.00    +0.000 N 
ATOM      4  C   UNL     1      -7.344   2.840 131.230  0.00  0.00    +0.000 C 
ATOM      5  C   UNL     1      -7.865   3.835 132.264  0.00  0.00    +0.000 C 
ATOM      6  C   UNL     1      -9.528   4.154 131.902  0.00  0.00    +0.000 C 
ATOM      7  C   UNL     1      -9.914   2.491 132.386  0.00  0.00    +0.000 C 
ATOM      8  C   UNL     1      -9.351   1.418 131.461  0.00  0.00    +0.000 C 
ENDROOT
BRANCH   6   9
ATOM      9  N   UNL     1      -9.741   5.480 130.607  0.00  0.00    +0.000 N 
ATOM     10  C   UNL     1     -10.485   6.100 131.667  0.00  0.00    +0.000 C 
ATOM     11  O   UNL     1     -10.056   6.402 132.833  0.00  0.00    +0.000 OA
ATOM     12  O   UNL     1     -11.791   6.195 131.501  0.00  0.00    +0.000 OA
ATOM     13  C   UNL     1     -11.776   7.456 130.950  0.00  0.00    +0.000 C 
ATOM     14  C   UNL     1     -11.799   6.937 129.592  0.00  0.00    +0.000 A 
ATOM     15  C   UNL     1     -12.891   6.597 128.765  0.00  0.00    +0.000 A 
ATOM     16  C   UNL     1     -12.892   6.768 127.382  0.00  0.00    +0.000 A 
ATOM     17  C   UNL     1     -11.810   7.460 126.960  0.00  0.00    +0.000 A 
ATOM     18  C   UNL     1     -10.582   7.275 127.896  0.00  0.00    +0.000 A 
ATOM     19  C   UNL     1     -10.639   6.367 129.230  0.00  0.00    +0.000 A 
ENDBRANCH   6   9
BRANCH   1  23
ATOM     20  C   UNL     1      -8.060  -2.525 128.204  0.00  0.00    +0.000 A 
ATOM     21  C   UNL     1      -7.701  -1.227 127.857  0.00  0.00    +0.000 A 
ATOM     22  C   UNL     1      -7.254  -0.326 128.850  0.00  0.00    +0.000 A 
ATOM     23  C   UNL     1      -7.254  -0.688 130.215  0.00  0.00    +0.000 A 
ATOM     24  C   UNL     1      -7.614  -1.997 130.523  0.00  0.00    +0.000 A 
ATOM     25  C   UNL     1      -7.984  -2.912 129.536  0.00  0.00    +0.000 A 
BRANCH  20  26
ATOM     26  O   UNL     1      -8.404  -3.379 127.192  0.00  0.00    +0.000 OA
BRANCH  26  27
ATOM     27  C   UNL     1      -9.304  -2.801 126.245  0.00  0.00    +0.000 C 
BRANCH  27  28
ATOM     28  C   UNL     1      -8.731  -2.980 124.855  0.00  0.00    +0.000 C 
BRANCH  28  37
ATOM     29  C   UNL     1      -9.856   0.684 125.636  0.00  0.00    +0.000 C 
ATOM     30  C   UNL     1      -8.639   0.629 124.728  0.00  0.00    +0.000 C 
ATOM     31  O   UNL     1      -8.060   1.665 124.406  0.00  0.00    +0.000 OA
ATOM     32  N   UNL     1      -8.146  -0.637 124.426  0.00  0.00    +0.000 N 
ATOM     33  C   UNL     1      -6.705  -0.848 124.278  0.00  0.00    +0.000 C 
ATOM     34  C   UNL     1      -6.311  -1.232 122.854  0.00  0.00    +0.000 C 
ATOM     35  C   UNL     1      -7.163  -2.368 122.288  0.00  0.00    +0.000 C 
ATOM     36  C   UNL     1      -8.649  -2.055 122.475  0.00  0.00    +0.000 C 
ATOM     37  C   UNL     1      -8.981  -1.755 123.960  0.00  0.00    +0.000 C 
ENDBRANCH  28  37
ENDBRANCH  27  28
ENDBRANCH  26  27
ENDBRANCH  20  26
ENDBRANCH   1  23
TORSDOF 6
ENDMDL
MODEL 3
REMARK VINA RESULT:     -10.4      2.037      2.974
REMARK  Name = CHEMBL344752
REMARK  7 active torsions:
REMARK  status: ('A' for Active; 'I' for Inactive)
REMARK    1  A    between atoms: C_1  and  C_2
REMARK    2  A    between atoms: C_9  and  C_10
REMARK    3  A    between atoms: C_10  and  C_11
REMARK    4  A    between atoms: C_11  and  O_12
REMARK    5  A    between atoms: O_12  and  C_13
REMARK    6  A    between atoms: C_16  and  C_17
REMARK    7  A    between atoms: C_22  and  N_23
REMARK                            x       y       z     vdW  Elec       q    Type
REMARK                         _______ _______ _______ _____ _____    ______ ____
ROOT
ATOM      1  C   UNL     1      -5.616   3.273 128.328  0.00  0.00    +0.000 C 
ATOM      2  O   UNL     1      -4.446   3.343 128.705  0.00  0.00    +0.000 OA
ATOM      3  N   UNL     1      -6.680   3.873 129.054  0.00  0.00    +0.000 N 
ATOM      4  C   UNL     1      -6.648   5.301 129.407  0.00  0.00    +0.000 C 
ATOM      5  C   UNL     1      -7.040   5.592 130.853  0.00  0.00    +0.000 C 
ATOM      6  C   UNL     1      -8.739   5.296 131.011  0.00  0.00    +0.000 C 
ATOM      7  C   UNL     1      -8.421   3.565 130.788  0.00  0.00    +0.000 C 
ATOM      8  C   UNL     1      -7.930   3.189 129.395  0.00  0.00    +0.000 C 
ENDROOT
BRANCH   6   9
ATOM      9  N   UNL     1      -9.775   6.760 130.499  0.00  0.00    +0.000 N 
ATOM     10  C   UNL     1     -10.538   6.354 131.646  0.00  0.00    +0.000 C 
ATOM     11  O   UNL     1     -10.120   6.253 132.850  0.00  0.00    +0.000 OA
ATOM     12  O   UNL     1     -11.735   5.849 131.417  0.00  0.00    +0.000 OA
ATOM     13  C   UNL     1     -12.421   7.037 131.543  0.00  0.00    +0.000 C 
ATOM     14  C   UNL     1     -12.417   7.271 130.109  0.00  0.00    +0.000 A 
ATOM     15  C   UNL     1     -13.332   6.858 129.116  0.00  0.00    +0.000 A 
ATOM     16  C   UNL     1     -13.644   7.621 127.992  0.00  0.00    +0.000 A 
ATOM     17  C   UNL     1     -13.116   8.863 128.064  0.00  0.00    +0.000 A 
ATOM     18  C   UNL     1     -11.813   8.908 128.914  0.00  0.00    +0.000 A 
ATOM     19  C   UNL     1     -11.205   7.598 129.635  0.00  0.00    +0.000 A 
ENDBRANCH   6   9
BRANCH   1  23
ATOM     20  C   UNL     1      -6.714   1.351 124.585  0.00  0.00    +0.000 A 
ATOM     21  C   UNL     1      -7.175   2.634 124.865  0.00  0.00    +0.000 A 
ATOM     22  C   UNL     1      -6.726   3.311 126.021  0.00  0.00    +0.000 A 
ATOM     23  C   UNL     1      -5.884   2.672 126.959  0.00  0.00    +0.000 A 
ATOM     24  C   UNL     1      -5.439   1.392 126.641  0.00  0.00    +0.000 A 
ATOM     25  C   UNL     1      -5.821   0.749 125.463  0.00  0.00    +0.000 A 
BRANCH  20  26
ATOM     26  O   UNL     1      -7.116   0.777 123.410  0.00  0.00    +0.000 OA
BRANCH  26  27
ATOM     27  C   UNL     1      -8.504   0.439 123.390  0.00  0.00    +0.000 C 
BRANCH  27  28
ATOM     28  C   UNL     1      -8.772  -0.583 124.475  0.00  0.00    +0.000 C 
BRANCH  28  37
ATOM     29  C   UNL     1      -5.727  -2.139 122.576  0.00  0.00    +0.000 C 
ATOM     30  C   UNL     1      -6.105  -2.930 123.817  0.00  0.00    +0.000 C 
ATOM     31  O   UNL     1      -5.413  -3.880 124.181  0.00  0.00    +0.000 OA
ATOM     32  N   UNL     1      -7.157  -2.427 124.577  0.00  0.00    +0.000 N 
ATOM     33  C   UNL     1      -7.135  -2.550 126.035  0.00  0.00    +0.000 C 
ATOM     34  C   UNL     1      -8.242  -3.459 126.565  0.00  0.00    +0.000 C 
ATOM     35  C   UNL     1      -9.618  -3.113 125.995  0.00  0.00    +0.000 C 
ATOM     36  C   UNL     1      -9.547  -3.017 124.469  0.00  0.00    +0.000 C 
ATOM     37  C   UNL     1      -8.453  -2.016 124.016  0.00  0.00    +0.000 C 
ENDBRANCH  28  37
ENDBRANCH  27  28
ENDBRANCH  26  27
ENDBRANCH  20  26
ENDBRANCH   1  23
TORSDOF 6
ENDMDL
MODEL 4
REMARK VINA RESULT:      -9.9      2.342      8.646
REMARK  Name = CHEMBL344752
REMARK  7 active torsions:
REMARK  status: ('A' for Active; 'I' for Inactive)
REMARK    1  A    between atoms: C_1  and  C_2
REMARK    2  A    between atoms: C_9  and  C_10
REMARK    3  A    between atoms: C_10  and  C_11
REMARK    4  A    between atoms: C_11  and  O_12
REMARK    5  A    between atoms: O_12  and  C_13
REMARK    6  A    between atoms: C_16  and  C_17
REMARK    7  A    between atoms: C_22  and  N_23
REMARK                            x       y       z     vdW  Elec       q    Type
REMARK                         _______ _______ _______ _____ _____    ______ ____
ROOT
ATOM      1  C   UNL     1      -7.586  -1.331 131.565  0.00  0.00    +0.000 C 
ATOM      2  O   UNL     1      -7.646  -2.353 132.248  0.00  0.00    +0.000 OA
ATOM      3  N   UNL     1      -7.280  -1.368 130.177  0.00  0.00    +0.000 N 
ATOM      4  C   UNL     1      -8.056  -2.207 129.252  0.00  0.00    +0.000 C 
ATOM      5  C   UNL     1      -7.200  -3.012 128.278  0.00  0.00    +0.000 C 
ATOM      6  C   UNL     1      -6.501  -1.905 127.145  0.00  0.00    +0.000 C 
ATOM      7  C   UNL     1      -5.504  -1.248 128.457  0.00  0.00    +0.000 C 
ATOM      8  C   UNL     1      -6.287  -0.506 129.533  0.00  0.00    +0.000 C 
ENDROOT
BRANCH   6   9
ATOM      9  N   UNL     1      -7.643  -1.515 125.723  0.00  0.00    +0.000 N 
ATOM     10  C   UNL     1      -6.463  -1.822 124.965  0.00  0.00    +0.000 C 
ATOM     11  O   UNL     1      -5.805  -2.917 124.979  0.00  0.00    +0.000 OA
ATOM     12  O   UNL     1      -5.880  -0.818 124.338  0.00  0.00    +0.000 OA
ATOM     13  C   UNL     1      -6.537  -0.994 123.140  0.00  0.00    +0.000 C 
ATOM     14  C   UNL     1      -7.545   0.000 123.468  0.00  0.00    +0.000 A 
ATOM     15  C   UNL     1      -7.550   1.396 123.255  0.00  0.00    +0.000 A 
ATOM     16  C   UNL     1      -8.701   2.125 122.962  0.00  0.00    +0.000 A 
ATOM     17  C   UNL     1      -9.760   1.320 122.724  0.00  0.00    +0.000 A 
ATOM     18  C   UNL     1      -9.659  -0.036 123.480  0.00  0.00    +0.000 A 
ATOM     19  C   UNL     1      -8.399  -0.413 124.417  0.00  0.00    +0.000 A 
ENDBRANCH   6   9
BRANCH   1  23
ATOM     20  C   UNL     1      -8.675   2.607 133.056  0.00  0.00    +0.000 A 
ATOM     21  C   UNL     1      -9.602   1.858 132.340  0.00  0.00    +0.000 A 
ATOM     22  C   UNL     1      -9.299   0.532 131.957  0.00  0.00    +0.000 A 
ATOM     23  C   UNL     1      -8.024  -0.024 132.205  0.00  0.00    +0.000 A 
ATOM     24  C   UNL     1      -7.124   0.753 132.928  0.00  0.00    +0.000 A 
ATOM     25  C   UNL     1      -7.448   2.035 133.373  0.00  0.00    +0.000 A 
BRANCH  20  26
ATOM     26  O   UNL     1      -9.053   3.853 133.473  0.00  0.00    +0.000 OA
BRANCH  26  27
ATOM     27  C   UNL     1      -8.150   4.884 133.069  0.00  0.00    +0.000 C 
BRANCH  27  28
ATOM     28  C   UNL     1      -8.941   5.991 132.402  0.00  0.00    +0.000 C 
BRANCH  28  37
ATOM     29  C   UNL     1      -7.077   3.603 129.927  0.00  0.00    +0.000 C 
ATOM     30  C   UNL     1      -8.453   4.006 129.423  0.00  0.00    +0.000 C 
ATOM     31  O   UNL     1      -8.906   3.507 128.394  0.00  0.00    +0.000 OA
ATOM     32  N   UNL     1      -9.204   4.827 130.259  0.00  0.00    +0.000 N 
ATOM     33  C   UNL     1     -10.657   4.669 130.332  0.00  0.00    +0.000 C 
ATOM     34  C   UNL     1     -11.408   5.884 129.791  0.00  0.00    +0.000 C 
ATOM     35  C   UNL     1     -10.901   7.203 130.374  0.00  0.00    +0.000 C 
ATOM     36  C   UNL     1      -9.378   7.285 130.244  0.00  0.00    +0.000 C 
ATOM     37  C   UNL     1      -8.689   6.053 130.887  0.00  0.00    +0.000 C 
ENDBRANCH  28  37
ENDBRANCH  27  28
ENDBRANCH  26  27
ENDBRANCH  20  26
ENDBRANCH   1  23
TORSDOF 6
ENDMDL
MODEL 5
REMARK VINA RESULT:      -9.6      3.140      8.134
REMARK  Name = CHEMBL344752
REMARK  7 active torsions:
REMARK  status: ('A' for Active; 'I' for Inactive)
REMARK    1  A    between atoms: C_1  and  C_2
REMARK    2  A    between atoms: C_9  and  C_10
REMARK    3  A    between atoms: C_10  and  C_11
REMARK    4  A    between atoms: C_11  and  O_12
REMARK    5  A    between atoms: O_12  and  C_13
REMARK    6  A    between atoms: C_16  and  C_17
REMARK    7  A    between atoms: C_22  and  N_23
REMARK                            x       y       z     vdW  Elec       q    Type
REMARK                         _______ _______ _______ _____ _____    ______ ____
ROOT
ATOM      1  C   UNL     1      -4.874   5.127 127.637  0.00  0.00    +0.000 C 
ATOM      2  O   UNL     1      -4.141   6.074 127.354  0.00  0.00    +0.000 OA
ATOM      3  N   UNL     1      -5.640   4.446 126.652  0.00  0.00    +0.000 N 
ATOM      4  C   UNL     1      -5.004   3.882 125.451  0.00  0.00    +0.000 C 
ATOM      5  C   UNL     1      -5.750   4.184 124.154  0.00  0.00    +0.000 C 
ATOM      6  C   UNL     1      -7.218   3.265 124.161  0.00  0.00    +0.000 C 
ATOM      7  C   UNL     1      -7.814   4.294 125.477  0.00  0.00    +0.000 C 
ATOM      8  C   UNL     1      -7.063   4.131 126.794  0.00  0.00    +0.000 C 
ENDROOT
BRANCH   6   9
ATOM      9  N   UNL     1      -6.977   1.521 123.545  0.00  0.00    +0.000 N 
ATOM     10  C   UNL     1      -8.376   1.655 123.251  0.00  0.00    +0.000 C 
ATOM     11  O   UNL     1      -8.922   2.533 122.498  0.00  0.00    +0.000 OA
ATOM     12  O   UNL     1      -9.209   0.931 123.973  0.00  0.00    +0.000 OA
ATOM     13  C   UNL     1      -9.263  -0.137 123.106  0.00  0.00    +0.000 C 
ATOM     14  C   UNL     1      -8.240  -0.869 123.835  0.00  0.00    +0.000 A 
ATOM     15  C   UNL     1      -8.359  -1.759 124.924  0.00  0.00    +0.000 A 
ATOM     16  C   UNL     1      -7.532  -2.866 125.107  0.00  0.00    +0.000 A 
ATOM     17  C   UNL     1      -6.739  -3.085 124.035  0.00  0.00    +0.000 A 
ATOM     18  C   UNL     1      -6.423  -1.779 123.252  0.00  0.00    +0.000 A 
ATOM     19  C   UNL     1      -7.014  -0.342 123.689  0.00  0.00    +0.000 A 
ENDBRANCH   6   9
BRANCH   1  23
ATOM     20  C   UNL     1      -5.029   3.323 131.591  0.00  0.00    +0.000 A 
ATOM     21  C   UNL     1      -4.209   2.773 130.611  0.00  0.00    +0.000 A 
ATOM     22  C   UNL     1      -4.061   3.421 129.365  0.00  0.00    +0.000 A 
ATOM     23  C   UNL     1      -4.808   4.579 129.052  0.00  0.00    +0.000 A 
ATOM     24  C   UNL     1      -5.614   5.103 130.059  0.00  0.00    +0.000 A 
ATOM     25  C   UNL     1      -5.704   4.507 131.317  0.00  0.00    +0.000 A 
BRANCH  20  26
ATOM     26  O   UNL     1      -5.070   2.699 132.808  0.00  0.00    +0.000 OA
BRANCH  26  27
ATOM     27  C   UNL     1      -6.389   2.319 133.205  0.00  0.00    +0.000 C 
BRANCH  27  28
ATOM     28  C   UNL     1      -6.759   1.033 132.496  0.00  0.00    +0.000 C 
BRANCH  28  37
ATOM     29  C   UNL     1      -9.196   3.974 131.651  0.00  0.00    +0.000 C 
ATOM     30  C   UNL     1      -9.086   2.965 130.520  0.00  0.00    +0.000 C 
ATOM     31  O   UNL     1      -9.646   3.176 129.445  0.00  0.00    +0.000 OA
ATOM     32  N   UNL     1      -8.211   1.901 130.720  0.00  0.00    +0.000 N 
ATOM     33  C   UNL     1      -7.443   1.361 129.597  0.00  0.00    +0.000 C 
ATOM     34  C   UNL     1      -7.837  -0.073 129.251  0.00  0.00    +0.000 C 
ATOM     35  C   UNL     1      -7.872  -0.990 130.473  0.00  0.00    +0.000 C 
ATOM     36  C   UNL     1      -8.704  -0.351 131.588  0.00  0.00    +0.000 C 
ATOM     37  C   UNL     1      -8.189   1.071 131.933  0.00  0.00    +0.000 C 
ENDBRANCH  28  37
ENDBRANCH  27  28
ENDBRANCH  26  27
ENDBRANCH  20  26
ENDBRANCH   1  23
TORSDOF 6
ENDMDL
MODEL 6
REMARK VINA RESULT:      -9.6      2.836      4.136
REMARK  Name = CHEMBL344752
REMARK  7 active torsions:
REMARK  status: ('A' for Active; 'I' for Inactive)
REMARK    1  A    between atoms: C_1  and  C_2
REMARK    2  A    between atoms: C_9  and  C_10
REMARK    3  A    between atoms: C_10  and  C_11
REMARK    4  A    between atoms: C_11  and  O_12
REMARK    5  A    between atoms: O_12  and  C_13
REMARK    6  A    between atoms: C_16  and  C_17
REMARK    7  A    between atoms: C_22  and  N_23
REMARK                            x       y       z     vdW  Elec       q    Type
REMARK                         _______ _______ _______ _____ _____    ______ ____
ROOT
ATOM      1  C   UNL     1      -8.096  -0.070 131.770  0.00  0.00    +0.000 C 
ATOM      2  O   UNL     1      -8.531  -0.807 132.656  0.00  0.00    +0.000 OA
ATOM      3  N   UNL     1      -8.100   1.346 131.897  0.00  0.00    +0.000 N 
ATOM      4  C   UNL     1      -7.479   2.005 133.056  0.00  0.00    +0.000 C 
ATOM      5  C   UNL     1      -8.334   3.108 133.674  0.00  0.00    +0.000 C 
ATOM      6  C   UNL     1      -8.362   4.439 132.567  0.00  0.00    +0.000 C 
ATOM      7  C   UNL     1      -9.329   3.449 131.457  0.00  0.00    +0.000 C 
ATOM      8  C   UNL     1      -8.584   2.261 130.861  0.00  0.00    +0.000 C 
ENDROOT
BRANCH   6   9
ATOM      9  N   UNL     1      -6.885   5.563 132.755  0.00  0.00    +0.000 N 
ATOM     10  C   UNL     1      -7.556   6.274 131.703  0.00  0.00    +0.000 C 
ATOM     11  O   UNL     1      -8.740   6.757 131.736  0.00  0.00    +0.000 OA
ATOM     12  O   UNL     1      -6.980   6.265 130.516  0.00  0.00    +0.000 OA
ATOM     13  C   UNL     1      -6.281   7.439 130.685  0.00  0.00    +0.000 C 
ATOM     14  C   UNL     1      -5.076   6.741 131.102  0.00  0.00    +0.000 A 
ATOM     15  C   UNL     1      -4.010   6.225 130.333  0.00  0.00    +0.000 A 
ATOM     16  C   UNL     1      -2.686   6.207 130.769  0.00  0.00    +0.000 A 
ATOM     17  C   UNL     1      -2.524   6.901 131.918  0.00  0.00    +0.000 A 
ATOM     18  C   UNL     1      -3.813   6.920 132.788  0.00  0.00    +0.000 A 
ATOM     19  C   UNL     1      -5.181   6.199 132.325  0.00  0.00    +0.000 A 
ENDBRANCH   6   9
BRANCH   1  23
ATOM     20  C   UNL     1      -6.344  -1.731 128.153  0.00  0.00    +0.000 A 
ATOM     21  C   UNL     1      -5.819  -0.567 128.704  0.00  0.00    +0.000 A 
ATOM     22  C   UNL     1      -6.303  -0.088 129.942  0.00  0.00    +0.000 A 
ATOM     23  C   UNL     1      -7.386  -0.720 130.595  0.00  0.00    +0.000 A 
ATOM     24  C   UNL     1      -7.882  -1.885 130.016  0.00  0.00    +0.000 A 
ATOM     25  C   UNL     1      -7.355  -2.401 128.832  0.00  0.00    +0.000 A 
BRANCH  20  26
ATOM     26  O   UNL     1      -5.781  -2.194 126.995  0.00  0.00    +0.000 OA
BRANCH  26  27
ATOM     27  C   UNL     1      -5.752  -1.220 125.951  0.00  0.00    +0.000 C 
BRANCH  27  28
ATOM     28  C   UNL     1      -6.620  -1.705 124.808  0.00  0.00    +0.000 C 
BRANCH  28  37
ATOM     29  C   UNL     1      -8.569   1.493 123.679  0.00  0.00    +0.000 C 
ATOM     30  C   UNL     1      -9.291   0.209 123.307  0.00  0.00    +0.000 C 
ATOM     31  O   UNL     1     -10.317   0.249 122.629  0.00  0.00    +0.000 OA
ATOM     32  N   UNL     1      -8.652  -0.982 123.639  0.00  0.00    +0.000 N 
ATOM     33  C   UNL     1      -8.760  -2.145 122.757  0.00  0.00    +0.000 C 
ATOM     34  C   UNL     1      -9.516  -3.304 123.403  0.00  0.00    +0.000 C 
ATOM     35  C   UNL     1      -9.005  -3.638 124.805  0.00  0.00    +0.000 C 
ATOM     36  C   UNL     1      -8.936  -2.368 125.656  0.00  0.00    +0.000 C 
ATOM     37  C   UNL     1      -8.086  -1.270 124.966  0.00  0.00    +0.000 C 
ENDBRANCH  28  37
ENDBRANCH  27  28
ENDBRANCH  26  27
ENDBRANCH  20  26
ENDBRANCH   1  23
TORSDOF 6
ENDMDL
MODEL 7
REMARK VINA RESULT:      -9.4      3.605      9.951
REMARK  Name = CHEMBL344752
REMARK  7 active torsions:
REMARK  status: ('A' for Active; 'I' for Inactive)
REMARK    1  A    between atoms: C_1  and  C_2
REMARK    2  A    between atoms: C_9  and  C_10
REMARK    3  A    between atoms: C_10  and  C_11
REMARK    4  A    between atoms: C_11  and  O_12
REMARK    5  A    between atoms: O_12  and  C_13
REMARK    6  A    between atoms: C_16  and  C_17
REMARK    7  A    between atoms: C_22  and  N_23
REMARK                            x       y       z     vdW  Elec       q    Type
REMARK                         _______ _______ _______ _____ _____    ______ ____
ROOT
ATOM      1  C   UNL     1      -6.199   4.634 126.106  0.00  0.00    +0.000 C 
ATOM      2  O   UNL     1      -6.029   5.745 125.602  0.00  0.00    +0.000 OA
ATOM      3  N   UNL     1      -6.797   3.563 125.388  0.00  0.00    +0.000 N 
ATOM      4  C   UNL     1      -6.268   3.136 124.084  0.00  0.00    +0.000 C 
ATOM      5  C   UNL     1      -7.341   2.913 123.021  0.00  0.00    +0.000 C 
ATOM      6  C   UNL     1      -8.227   1.489 123.453  0.00  0.00    +0.000 C 
ATOM      7  C   UNL     1      -8.896   2.370 124.840  0.00  0.00    +0.000 C 
ATOM      8  C   UNL     1      -7.874   2.723 125.915  0.00  0.00    +0.000 C 
ENDROOT
BRANCH   6   9
ATOM      9  N   UNL     1      -7.404  -0.077 122.863  0.00  0.00    +0.000 N 
ATOM     10  C   UNL     1      -8.648  -0.646 123.301  0.00  0.00    +0.000 C 
ATOM     11  O   UNL     1      -9.819  -0.341 122.890  0.00  0.00    +0.000 OA
ATOM     12  O   UNL     1      -8.605  -1.421 124.368  0.00  0.00    +0.000 OA
ATOM     13  C   UNL     1      -8.454  -2.606 123.682  0.00  0.00    +0.000 C 
ATOM     14  C   UNL     1      -7.009  -2.587 123.830  0.00  0.00    +0.000 A 
ATOM     15  C   UNL     1      -6.192  -3.092 124.865  0.00  0.00    +0.000 A 
ATOM     16  C   UNL     1      -4.926  -3.634 124.651  0.00  0.00    +0.000 A 
ATOM     17  C   UNL     1      -4.658  -3.785 123.335  0.00  0.00    +0.000 A 
ATOM     18  C   UNL     1      -5.414  -2.751 122.451  0.00  0.00    +0.000 A 
ATOM     19  C   UNL     1      -6.416  -1.649 123.074  0.00  0.00    +0.000 A 
ENDBRANCH   6   9
BRANCH   1  23
ATOM     20  C   UNL     1      -4.359   3.502 129.880  0.00  0.00    +0.000 A 
ATOM     21  C   UNL     1      -3.606   4.159 128.913  0.00  0.00    +0.000 A 
ATOM     22  C   UNL     1      -4.224   4.636 127.736  0.00  0.00    +0.000 A 
ATOM     23  C   UNL     1      -5.588   4.376 127.473  0.00  0.00    +0.000 A 
ATOM     24  C   UNL     1      -6.311   3.721 128.466  0.00  0.00    +0.000 A 
ATOM     25  C   UNL     1      -5.719   3.315 129.662  0.00  0.00    +0.000 A 
BRANCH  20  26
ATOM     26  O   UNL     1      -3.726   3.136 131.037  0.00  0.00    +0.000 OA
BRANCH  26  27
ATOM     27  C   UNL     1      -3.510   4.227 131.933  0.00  0.00    +0.000 C 
BRANCH  27  28
ATOM     28  C   UNL     1      -4.629   4.250 132.953  0.00  0.00    +0.000 C 
BRANCH  28  37
ATOM     29  C   UNL     1      -5.058   7.210 130.432  0.00  0.00    +0.000 C 
ATOM     30  C   UNL     1      -6.352   6.864 131.150  0.00  0.00    +0.000 C 
ATOM     31  O   UNL     1      -7.402   7.424 130.838  0.00  0.00    +0.000 OA
ATOM     32  N   UNL     1      -6.301   5.796 132.041  0.00  0.00    +0.000 N 
ATOM     33  C   UNL     1      -7.451   4.902 132.184  0.00  0.00    +0.000 C 
ATOM     34  C   UNL     1      -8.093   4.987 133.567  0.00  0.00    +0.000 C 
ATOM     35  C   UNL     1      -7.075   4.869 134.701  0.00  0.00    +0.000 C 
ATOM     36  C   UNL     1      -5.919   5.845 134.475  0.00  0.00    +0.000 C 
ATOM     37  C   UNL     1      -5.271   5.641 133.080  0.00  0.00    +0.000 C 
ENDBRANCH  28  37
ENDBRANCH  27  28
ENDBRANCH  26  27
ENDBRANCH  20  26
ENDBRANCH   1  23
TORSDOF 6
ENDMDL
MODEL 8
REMARK VINA RESULT:      -9.3      3.997      8.605
REMARK  Name = CHEMBL344752
REMARK  7 active torsions:
REMARK  status: ('A' for Active; 'I' for Inactive)
REMARK    1  A    between atoms: C_1  and  C_2
REMARK    2  A    between atoms: C_9  and  C_10
REMARK    3  A    between atoms: C_10  and  C_11
REMARK    4  A    between atoms: C_11  and  O_12
REMARK    5  A    between atoms: O_12  and  C_13
REMARK    6  A    between atoms: C_16  and  C_17
REMARK    7  A    between atoms: C_22  and  N_23
REMARK                            x       y       z     vdW  Elec       q    Type
REMARK                         _______ _______ _______ _____ _____    ______ ____
ROOT
ATOM      1  C   UNL     1      -6.506   3.285 128.737  0.00  0.00    +0.000 C 
ATOM      2  O   UNL     1      -6.488   4.515 128.672  0.00  0.00    +0.000 OA
ATOM      3  N   UNL     1      -7.039   2.482 127.693  0.00  0.00    +0.000 N 
ATOM      4  C   UNL     1      -6.562   2.622 126.309  0.00  0.00    +0.000 C 
ATOM      5  C   UNL     1      -7.678   2.669 125.269  0.00  0.00    +0.000 C 
ATOM      6  C   UNL     1      -8.379   1.089 125.172  0.00  0.00    +0.000 C 
ATOM      7  C   UNL     1      -9.036   1.321 126.804  0.00  0.00    +0.000 C 
ATOM      8  C   UNL     1      -7.984   1.383 127.904  0.00  0.00    +0.000 C 
ENDROOT
BRANCH   6   9
ATOM      9  N   UNL     1      -7.442  -0.045 124.026  0.00  0.00    +0.000 N 
ATOM     10  C   UNL     1      -8.722  -0.692 123.961  0.00  0.00    +0.000 C 
ATOM     11  O   UNL     1      -9.829  -0.172 123.587  0.00  0.00    +0.000 OA
ATOM     12  O   UNL     1      -8.817  -1.883 124.522  0.00  0.00    +0.000 OA
ATOM     13  C   UNL     1      -8.540  -2.604 123.381  0.00  0.00    +0.000 C 
ATOM     14  C   UNL     1      -7.132  -2.728 123.720  0.00  0.00    +0.000 A 
ATOM     15  C   UNL     1      -6.463  -3.705 124.489  0.00  0.00    +0.000 A 
ATOM     16  C   UNL     1      -5.167  -4.141 124.221  0.00  0.00    +0.000 A 
ATOM     17  C   UNL     1      -4.707  -3.659 123.044  0.00  0.00    +0.000 A 
ATOM     18  C   UNL     1      -5.350  -2.294 122.667  0.00  0.00    +0.000 A 
ATOM     19  C   UNL     1      -6.459  -1.574 123.594  0.00  0.00    +0.000 A 
ENDBRANCH   6   9
BRANCH   1  23
ATOM     20  C   UNL     1      -4.738   1.116 132.066  0.00  0.00    +0.000 A 
ATOM     21  C   UNL     1      -4.339   0.830 130.764  0.00  0.00    +0.000 A 
ATOM     22  C   UNL     1      -4.818   1.611 129.689  0.00  0.00    +0.000 A 
ATOM     23  C   UNL     1      -5.778   2.628 129.897  0.00  0.00    +0.000 A 
ATOM     24  C   UNL     1      -6.148   2.888 131.213  0.00  0.00    +0.000 A 
ATOM     25  C   UNL     1      -5.619   2.168 132.285  0.00  0.00    +0.000 A 
BRANCH  20  26
ATOM     26  O   UNL     1      -4.177   0.382 133.075  0.00  0.00    +0.000 OA
BRANCH  26  27
ATOM     27  C   UNL     1      -5.109  -0.477 133.735  0.00  0.00    +0.000 C 
BRANCH  27  28
ATOM     28  C   UNL     1      -4.978  -1.872 133.160  0.00  0.00    +0.000 C 
BRANCH  28  37
ATOM     29  C   UNL     1      -8.004  -0.374 131.185  0.00  0.00    +0.000 C 
ATOM     30  C   UNL     1      -7.578  -1.733 130.655  0.00  0.00    +0.000 C 
ATOM     31  O   UNL     1      -8.103  -2.197 129.644  0.00  0.00    +0.000 OA
ATOM     32  N   UNL     1      -6.483  -2.326 131.277  0.00  0.00    +0.000 N 
ATOM     33  C   UNL     1      -5.536  -3.123 130.495  0.00  0.00    +0.000 C 
ATOM     34  C   UNL     1      -5.544  -4.598 130.887  0.00  0.00    +0.000 C 
ATOM     35  C   UNL     1      -5.430  -4.811 132.397  0.00  0.00    +0.000 C 
ATOM     36  C   UNL     1      -6.462  -3.950 133.130  0.00  0.00    +0.000 C 
ATOM     37  C   UNL     1      -6.335  -2.456 132.734  0.00  0.00    +0.000 C 
ENDBRANCH  28  37
ENDBRANCH  27  28
ENDBRANCH  26  27
ENDBRANCH  20  26
ENDBRANCH   1  23
TORSDOF 6
ENDMDL
MODEL 9
REMARK VINA RESULT:      -9.3      3.968      8.218
REMARK  Name = CHEMBL344752
REMARK  7 active torsions:
REMARK  status: ('A' for Active; 'I' for Inactive)
REMARK    1  A    between atoms: C_1  and  C_2
REMARK    2  A    between atoms: C_9  and  C_10
REMARK    3  A    between atoms: C_10  and  C_11
REMARK    4  A    between atoms: C_11  and  O_12
REMARK    5  A    between atoms: O_12  and  C_13
REMARK    6  A    between atoms: C_16  and  C_17
REMARK    7  A    between atoms: C_22  and  N_23
REMARK                            x       y       z     vdW  Elec       q    Type
REMARK                         _______ _______ _______ _____ _____    ______ ____
ROOT
ATOM      1  C   UNL     1      -5.220   4.874 127.392  0.00  0.00    +0.000 C 
ATOM      2  O   UNL     1      -4.560   5.884 127.147  0.00  0.00    +0.000 OA
ATOM      3  N   UNL     1      -5.945   4.183 126.383  0.00  0.00    +0.000 N 
ATOM      4  C   UNL     1      -5.282   3.720 125.155  0.00  0.00    +0.000 C 
ATOM      5  C   UNL     1      -6.059   4.023 123.877  0.00  0.00    +0.000 C 
ATOM      6  C   UNL     1      -7.457   3.002 123.851  0.00  0.00    +0.000 C 
ATOM      7  C   UNL     1      -8.113   3.927 125.215  0.00  0.00    +0.000 C 
ATOM      8  C   UNL     1      -7.341   3.761 126.519  0.00  0.00    +0.000 C 
ENDROOT
BRANCH   6   9
ATOM      9  N   UNL     1      -7.097   1.308 123.158  0.00  0.00    +0.000 N 
ATOM     10  C   UNL     1      -8.519   1.176 123.307  0.00  0.00    +0.000 C 
ATOM     11  O   UNL     1      -9.419   1.911 122.774  0.00  0.00    +0.000 OA
ATOM     12  O   UNL     1      -8.945   0.340 124.235  0.00  0.00    +0.000 OA
ATOM     13  C   UNL     1      -9.062  -0.752 123.404  0.00  0.00    +0.000 C 
ATOM     14  C   UNL     1      -7.751  -1.258 123.773  0.00  0.00    +0.000 A 
ATOM     15  C   UNL     1      -7.367  -2.113 124.829  0.00  0.00    +0.000 A 
ATOM     16  C   UNL     1      -6.335  -3.044 124.730  0.00  0.00    +0.000 A 
ATOM     17  C   UNL     1      -5.878  -3.156 123.463  0.00  0.00    +0.000 A 
ATOM     18  C   UNL     1      -6.060  -1.845 122.646  0.00  0.00    +0.000 A 
ATOM     19  C   UNL     1      -6.745  -0.524 123.271  0.00  0.00    +0.000 A 
ENDBRANCH   6   9
BRANCH   1  23
ATOM     20  C   UNL     1      -5.058   2.794 131.207  0.00  0.00    +0.000 A 
ATOM     21  C   UNL     1      -3.948   2.790 130.370  0.00  0.00    +0.000 A 
ATOM     22  C   UNL     1      -3.950   3.562 129.187  0.00  0.00    +0.000 A 
ATOM     23  C   UNL     1      -5.103   4.271 128.781  0.00  0.00    +0.000 A 
ATOM     24  C   UNL     1      -6.193   4.256 129.648  0.00  0.00    +0.000 A 
ATOM     25  C   UNL     1      -6.166   3.555 130.854  0.00  0.00    +0.000 A 
BRANCH  20  26
ATOM     26  O   UNL     1      -4.969   2.096 132.381  0.00  0.00    +0.000 OA
BRANCH  26  27
ATOM     27  C   UNL     1      -4.648   0.716 132.196  0.00  0.00    +0.000 C 
BRANCH  27  28
ATOM     28  C   UNL     1      -5.860   0.005 131.631  0.00  0.00    +0.000 C 
BRANCH  28  37
ATOM     29  C   UNL     1      -5.822  -3.907 131.626  0.00  0.00    +0.000 C 
ATOM     30  C   UNL     1      -6.521  -3.329 130.406  0.00  0.00    +0.000 C 
ATOM     31  O   UNL     1      -7.085  -4.073 129.605  0.00  0.00    +0.000 OA
ATOM     32  N   UNL     1      -6.614  -1.942 130.343  0.00  0.00    +0.000 N 
ATOM     33  C   UNL     1      -7.801  -1.311 129.765  0.00  0.00    +0.000 C 
ATOM     34  C   UNL     1      -7.494  -0.549 128.478  0.00  0.00    +0.000 C 
ATOM     35  C   UNL     1      -6.299   0.395 128.618  0.00  0.00    +0.000 C 
ATOM     36  C   UNL     1      -5.105  -0.352 129.217  0.00  0.00    +0.000 C 
ATOM     37  C   UNL     1      -5.480  -1.031 130.560  0.00  0.00    +0.000 C 
ENDBRANCH  28  37
ENDBRANCH  27  28
ENDBRANCH  26  27
ENDBRANCH  20  26
ENDBRANCH   1  23
TORSDOF 6
ENDMDL
