MODEL 1
REMARK VINA RESULT:      -8.7      0.000      0.000
REMARK  Name = CHEMBL2113204
REMARK  6 active torsions:
REMARK  status: ('A' for Active; 'I' for Inactive)
REMARK    1  A    between atoms: C_2  and  C_3
REMARK    2  A    between atoms: C_3  and  N_4
REMARK    3  A    between atoms: N_4  and  C_5
REMARK    4  A    between atoms: N_4  and  S_12
REMARK    5  A    between atoms: S_12  and  C_15
REMARK    6  A    between atoms: N_20  and  N_21
REMARK                            x       y       z     vdW  Elec       q    Type
REMARK                         _______ _______ _______ _____ _____    ______ ____
ROOT
ATOM      1  C   UNL     1      -7.110   0.631 123.483  0.00  0.00    +0.000 C 
ENDROOT
BRANCH   1   3
ATOM      2  O   UNL     1      -8.979  -0.833 122.810  0.00  0.00    +0.000 OA
ATOM      3  C   UNL     1      -8.152  -0.511 123.673  0.00  0.00    +0.000 C 
ATOM      4  N   UNL     1      -8.207  -1.304 124.792  0.00  0.00    +0.000 N 
ATOM      5  H   UNL     1      -8.822  -2.100 124.629  0.00  0.00    +0.000 HD
BRANCH   4   6
ATOM      6  N   UNL     1      -7.209  -1.518 125.675  0.00  0.00    +0.000 NA
ATOM      7  C   UNL     1      -7.461  -2.327 126.650  0.00  0.00    +0.000 C 
ATOM      8  C   UNL     1      -8.758  -3.100 126.968  0.00  0.00    +0.000 C 
ATOM      9  O   UNL     1      -9.690  -3.287 126.229  0.00  0.00    +0.000 OA
ATOM     10  N   UNL     1      -8.652  -3.400 128.307  0.00  0.00    +0.000 N 
ATOM     11  C   UNL     1      -7.364  -3.144 128.760  0.00  0.00    +0.000 A 
ATOM     12  C   UNL     1      -6.849  -3.462 129.990  0.00  0.00    +0.000 A 
ATOM     13  C   UNL     1      -5.490  -3.201 130.195  0.00  0.00    +0.000 A 
ATOM     14  C   UNL     1      -4.692  -2.615 129.187  0.00  0.00    +0.000 A 
ATOM     15  C   UNL     1      -5.241  -2.258 127.956  0.00  0.00    +0.000 A 
ATOM     16  C   UNL     1      -6.576  -2.551 127.777  0.00  0.00    +0.000 A 
ATOM     17  H   UNL     1      -9.418  -3.782 128.840  0.00  0.00    +0.000 HD
ENDBRANCH   4   6
ENDBRANCH   1   3
BRANCH   1  18
ATOM     18  N   UNL     1      -7.623   2.031 123.436  0.00  0.00    +0.000 N 
BRANCH  18  19
ATOM     19  C   UNL     1      -7.386   2.802 122.275  0.00  0.00    +0.000 A 
ATOM     20  C   UNL     1      -8.439   3.311 121.511  0.00  0.00    +0.000 A 
ATOM     21  C   UNL     1      -8.158   3.965 120.310  0.00  0.00    +0.000 A 
ATOM     22  C   UNL     1      -6.840   4.278 119.991  0.00  0.00    +0.000 A 
ATOM     23 CL   UNL     1      -6.477   5.226 118.608  0.00  0.00    +0.000 Cl
ATOM     24  C   UNL     1      -5.802   3.793 120.770  0.00  0.00    +0.000 A 
ATOM     25  C   UNL     1      -6.087   2.908 121.804  0.00  0.00    +0.000 A 
ENDBRANCH  18  19
BRANCH  18  26
ATOM     26  S   UNL     1      -8.302   2.691 124.851  0.00  0.00    +0.000 S 
ATOM     27  O   UNL     1      -7.810   4.056 124.953  0.00  0.00    +0.000 OA
ATOM     28  O   UNL     1      -9.737   2.479 124.780  0.00  0.00    +0.000 OA
BRANCH  26  29
ATOM     29  C   UNL     1      -7.832   1.966 126.457  0.00  0.00    +0.000 A 
ATOM     30  C   UNL     1      -8.568   1.291 127.425  0.00  0.00    +0.000 A 
ATOM     31  C   UNL     1      -7.783   0.891 128.565  0.00  0.00    +0.000 A 
ATOM     32  C   UNL     1      -6.467   1.252 128.444  0.00  0.00    +0.000 A 
ATOM     33  S   UNL     1      -6.207   1.912 126.932  0.00  0.00    +0.000 S 
ENDBRANCH  26  29
ENDBRANCH  18  26
ENDBRANCH   1  18
TORSDOF 6
ENDMDL
MODEL 2
REMARK VINA RESULT:      -8.7      5.104      7.954
REMARK  Name = CHEMBL2113204
REMARK  6 active torsions:
REMARK  status: ('A' for Active; 'I' for Inactive)
REMARK    1  A    between atoms: C_2  and  C_3
REMARK    2  A    between atoms: C_3  and  N_4
REMARK    3  A    between atoms: N_4  and  C_5
REMARK    4  A    between atoms: N_4  and  S_12
REMARK    5  A    between atoms: S_12  and  C_15
REMARK    6  A    between atoms: N_20  and  N_21
REMARK                            x       y       z     vdW  Elec       q    Type
REMARK                         _______ _______ _______ _____ _____    ______ ____
ROOT
ATOM      1  C   UNL     1      -8.304   2.120 127.578  0.00  0.00    +0.000 C 
ENDROOT
BRANCH   1   3
ATOM      2  O   UNL     1      -7.014   1.912 129.672  0.00  0.00    +0.000 OA
ATOM      3  C   UNL     1      -7.872   2.521 129.020  0.00  0.00    +0.000 C 
ATOM      4  N   UNL     1      -8.363   3.623 129.675  0.00  0.00    +0.000 N 
ATOM      5  H   UNL     1      -7.813   3.808 130.513  0.00  0.00    +0.000 HD
BRANCH   4   6
ATOM      6  N   UNL     1      -8.933   4.708 129.108  0.00  0.00    +0.000 NA
ATOM      7  C   UNL     1      -9.747   5.387 129.846  0.00  0.00    +0.000 C 
ATOM      8  C   UNL     1     -10.180   5.140 131.307  0.00  0.00    +0.000 C 
ATOM      9  O   UNL     1      -9.648   4.416 132.107  0.00  0.00    +0.000 OA
ATOM     10  N   UNL     1     -11.367   5.827 131.426  0.00  0.00    +0.000 N 
ATOM     11  C   UNL     1     -11.561   6.655 130.328  0.00  0.00    +0.000 A 
ATOM     12  C   UNL     1     -12.548   7.594 130.172  0.00  0.00    +0.000 A 
ATOM     13  C   UNL     1     -12.491   8.389 129.023  0.00  0.00    +0.000 A 
ATOM     14  C   UNL     1     -11.475   8.215 128.057  0.00  0.00    +0.000 A 
ATOM     15  C   UNL     1     -10.503   7.227 128.208  0.00  0.00    +0.000 A 
ATOM     16  C   UNL     1     -10.572   6.477 129.363  0.00  0.00    +0.000 A 
ATOM     17  H   UNL     1     -11.966   5.738 132.232  0.00  0.00    +0.000 HD
ENDBRANCH   4   6
ENDBRANCH   1   3
BRANCH   1  18
ATOM     18  N   UNL     1      -7.536   2.708 126.442  0.00  0.00    +0.000 N 
BRANCH  18  19
ATOM     19  C   UNL     1      -6.136   2.852 126.569  0.00  0.00    +0.000 A 
ATOM     20  C   UNL     1      -5.552   4.094 126.831  0.00  0.00    +0.000 A 
ATOM     21  C   UNL     1      -4.161   4.208 126.830  0.00  0.00    +0.000 A 
ATOM     22  C   UNL     1      -3.377   3.060 126.771  0.00  0.00    +0.000 A 
ATOM     23 CL   UNL     1      -1.672   3.154 126.937  0.00  0.00    +0.000 Cl
ATOM     24  C   UNL     1      -3.967   1.827 126.540  0.00  0.00    +0.000 A 
ATOM     25  C   UNL     1      -5.328   1.768 126.262  0.00  0.00    +0.000 A 
ENDBRANCH  18  19
BRANCH  18  26
ATOM     26  S   UNL     1      -8.406   3.350 125.126  0.00  0.00    +0.000 S 
ATOM     27  O   UNL     1      -9.476   2.409 124.834  0.00  0.00    +0.000 OA
ATOM     28  O   UNL     1      -8.763   4.714 125.470  0.00  0.00    +0.000 OA
BRANCH  26  29
ATOM     29  C   UNL     1      -7.555   3.512 123.521  0.00  0.00    +0.000 A 
ATOM     30  C   UNL     1      -6.232   3.787 123.193  0.00  0.00    +0.000 A 
ATOM     31  C   UNL     1      -5.992   3.831 121.772  0.00  0.00    +0.000 A 
ATOM     32  C   UNL     1      -7.125   3.577 121.045  0.00  0.00    +0.000 A 
ATOM     33  S   UNL     1      -8.370   3.160 122.078  0.00  0.00    +0.000 S 
ENDBRANCH  26  29
ENDBRANCH  18  26
ENDBRANCH   1  18
TORSDOF 6
ENDMDL
MODEL 3
REMARK VINA RESULT:      -8.5      2.068      3.639
REMARK  Name = CHEMBL2113204
REMARK  6 active torsions:
REMARK  status: ('A' for Active; 'I' for Inactive)
REMARK    1  A    between atoms: C_2  and  C_3
REMARK    2  A    between atoms: C_3  and  N_4
REMARK    3  A    between atoms: N_4  and  C_5
REMARK    4  A    between atoms: N_4  and  S_12
REMARK    5  A    between atoms: S_12  and  C_15
REMARK    6  A    between atoms: N_20  and  N_21
REMARK                            x       y       z     vdW  Elec       q    Type
REMARK                         _______ _______ _______ _____ _____    ______ ____
ROOT
ATOM      1  C   UNL     1      -8.751   2.987 124.838  0.00  0.00    +0.000 C 
ENDROOT
BRANCH   1   3
ATOM      2  O   UNL     1      -6.953   4.134 126.079  0.00  0.00    +0.000 OA
ATOM      3  C   UNL     1      -7.445   3.070 125.683  0.00  0.00    +0.000 C 
ATOM      4  N   UNL     1      -6.756   1.965 126.115  0.00  0.00    +0.000 N 
ATOM      5  H   UNL     1      -6.055   2.234 126.804  0.00  0.00    +0.000 HD
BRANCH   4   6
ATOM      6  N   UNL     1      -7.245   0.713 126.250  0.00  0.00    +0.000 NA
ATOM      7  C   UNL     1      -7.439   0.293 127.456  0.00  0.00    +0.000 C 
ATOM      8  C   UNL     1      -7.187   1.019 128.795  0.00  0.00    +0.000 C 
ATOM      9  O   UNL     1      -7.001   2.196 128.957  0.00  0.00    +0.000 OA
ATOM     10  N   UNL     1      -7.094   0.000 129.716  0.00  0.00    +0.000 N 
ATOM     11  C   UNL     1      -7.516  -1.199 129.157  0.00  0.00    +0.000 A 
ATOM     12  C   UNL     1      -7.706  -2.388 129.813  0.00  0.00    +0.000 A 
ATOM     13  C   UNL     1      -8.235  -3.446 129.067  0.00  0.00    +0.000 A 
ATOM     14  C   UNL     1      -8.538  -3.301 127.694  0.00  0.00    +0.000 A 
ATOM     15  C   UNL     1      -8.299  -2.097 127.031  0.00  0.00    +0.000 A 
ATOM     16  C   UNL     1      -7.800  -1.067 127.800  0.00  0.00    +0.000 A 
ATOM     17  H   UNL     1      -6.791   0.154 130.666  0.00  0.00    +0.000 HD
ENDBRANCH   4   6
ENDBRANCH   1   3
BRANCH   1  18
ATOM     18  N   UNL     1      -8.679   2.284 123.524  0.00  0.00    +0.000 N 
BRANCH  18  19
ATOM     19  C   UNL     1      -8.021   2.922 122.447  0.00  0.00    +0.000 A 
ATOM     20  C   UNL     1      -8.737   3.476 121.383  0.00  0.00    +0.000 A 
ATOM     21  C   UNL     1      -8.042   3.988 120.287  0.00  0.00    +0.000 A 
ATOM     22  C   UNL     1      -6.659   4.126 120.353  0.00  0.00    +0.000 A 
ATOM     23 CL   UNL     1      -5.795   4.907 119.093  0.00  0.00    +0.000 Cl
ATOM     24  C   UNL     1      -5.959   3.600 121.427  0.00  0.00    +0.000 A 
ATOM     25  C   UNL     1      -6.639   2.844 122.375  0.00  0.00    +0.000 A 
ENDBRANCH  18  19
BRANCH  18  26
ATOM     26  S   UNL     1      -9.553   0.835 123.334  0.00  0.00    +0.000 S 
ATOM     27  O   UNL     1     -10.442   0.730 124.480  0.00  0.00    +0.000 OA
ATOM     28  O   UNL     1     -10.140   0.858 122.007  0.00  0.00    +0.000 OA
BRANCH  26  29
ATOM     29  C   UNL     1      -8.637  -0.742 123.380  0.00  0.00    +0.000 A 
ATOM     30  C   UNL     1      -9.063  -2.064 123.434  0.00  0.00    +0.000 A 
ATOM     31  C   UNL     1      -7.979  -3.014 123.463  0.00  0.00    +0.000 A 
ATOM     32  C   UNL     1      -6.752  -2.405 123.418  0.00  0.00    +0.000 A 
ATOM     33  S   UNL     1      -6.953  -0.761 123.198  0.00  0.00    +0.000 S 
ENDBRANCH  26  29
ENDBRANCH  18  26
ENDBRANCH   1  18
TORSDOF 6
ENDMDL
MODEL 4
REMARK VINA RESULT:      -8.4      5.254      7.705
REMARK  Name = CHEMBL2113204
REMARK  6 active torsions:
REMARK  status: ('A' for Active; 'I' for Inactive)
REMARK    1  A    between atoms: C_2  and  C_3
REMARK    2  A    between atoms: C_3  and  N_4
REMARK    3  A    between atoms: N_4  and  C_5
REMARK    4  A    between atoms: N_4  and  S_12
REMARK    5  A    between atoms: S_12  and  C_15
REMARK    6  A    between atoms: N_20  and  N_21
REMARK                            x       y       z     vdW  Elec       q    Type
REMARK                         _______ _______ _______ _____ _____    ______ ____
ROOT
ATOM      1  C   UNL     1      -8.026   3.128 126.635  0.00  0.00    +0.000 C 
ENDROOT
BRANCH   1   3
ATOM      2  O   UNL     1      -6.766   2.498 128.661  0.00  0.00    +0.000 OA
ATOM      3  C   UNL     1      -7.656   3.187 128.147  0.00  0.00    +0.000 C 
ATOM      4  N   UNL     1      -8.245   4.054 129.034  0.00  0.00    +0.000 N 
ATOM      5  H   UNL     1      -7.728   4.063 129.912  0.00  0.00    +0.000 HD
BRANCH   4   6
ATOM      6  N   UNL     1      -8.886   5.202 128.730  0.00  0.00    +0.000 NA
ATOM      7  C   UNL     1      -9.747   5.631 129.593  0.00  0.00    +0.000 C 
ATOM      8  C   UNL     1     -10.164   5.016 130.945  0.00  0.00    +0.000 C 
ATOM      9  O   UNL     1      -9.586   4.158 131.561  0.00  0.00    +0.000 OA
ATOM     10  N   UNL     1     -11.396   5.574 131.202  0.00  0.00    +0.000 N 
ATOM     11  C   UNL     1     -11.644   6.624 130.329  0.00  0.00    +0.000 A 
ATOM     12  C   UNL     1     -12.693   7.506 130.382  0.00  0.00    +0.000 A 
ATOM     13  C   UNL     1     -12.688   8.554 129.456  0.00  0.00    +0.000 A 
ATOM     14  C   UNL     1     -11.661   8.683 128.495  0.00  0.00    +0.000 A 
ATOM     15  C   UNL     1     -10.623   7.754 128.426  0.00  0.00    +0.000 A 
ATOM     16  C   UNL     1     -10.643   6.748 129.368  0.00  0.00    +0.000 A 
ATOM     17  H   UNL     1     -11.990   5.256 131.953  0.00  0.00    +0.000 HD
ENDBRANCH   4   6
ENDBRANCH   1   3
BRANCH   1  18
ATOM     18  N   UNL     1      -6.918   2.894 125.664  0.00  0.00    +0.000 N 
BRANCH  18  19
ATOM     19  C   UNL     1      -6.752   1.598 125.122  0.00  0.00    +0.000 A 
ATOM     20  C   UNL     1      -7.455   1.187 123.987  0.00  0.00    +0.000 A 
ATOM     21  C   UNL     1      -7.348  -0.137 123.560  0.00  0.00    +0.000 A 
ATOM     22  C   UNL     1      -6.398  -0.971 124.140  0.00  0.00    +0.000 A 
ATOM     23 CL   UNL     1      -6.127  -2.550 123.525  0.00  0.00    +0.000 Cl
ATOM     24  C   UNL     1      -5.683  -0.546 125.248  0.00  0.00    +0.000 A 
ATOM     25  C   UNL     1      -6.003   0.674 125.834  0.00  0.00    +0.000 A 
ENDBRANCH  18  19
BRANCH  18  26
ATOM     26  S   UNL     1      -5.795   4.147 125.401  0.00  0.00    +0.000 S 
ATOM     27  O   UNL     1      -5.283   3.973 124.050  0.00  0.00    +0.000 OA
ATOM     28  O   UNL     1      -6.459   5.395 125.731  0.00  0.00    +0.000 OA
BRANCH  26  29
ATOM     29  C   UNL     1      -4.278   4.178 126.412  0.00  0.00    +0.000 A 
ATOM     30  C   UNL     1      -3.106   3.432 126.355  0.00  0.00    +0.000 A 
ATOM     31  C   UNL     1      -2.150   3.789 127.374  0.00  0.00    +0.000 A 
ATOM     32  C   UNL     1      -2.600   4.803 128.177  0.00  0.00    +0.000 A 
ATOM     33  S   UNL     1      -4.059   5.372 127.594  0.00  0.00    +0.000 S 
ENDBRANCH  26  29
ENDBRANCH  18  26
ENDBRANCH   1  18
TORSDOF 6
ENDMDL
MODEL 5
REMARK VINA RESULT:      -8.4      7.753     10.576
REMARK  Name = CHEMBL2113204
REMARK  6 active torsions:
REMARK  status: ('A' for Active; 'I' for Inactive)
REMARK    1  A    between atoms: C_2  and  C_3
REMARK    2  A    between atoms: C_3  and  N_4
REMARK    3  A    between atoms: N_4  and  C_5
REMARK    4  A    between atoms: N_4  and  S_12
REMARK    5  A    between atoms: S_12  and  C_15
REMARK    6  A    between atoms: N_20  and  N_21
REMARK                            x       y       z     vdW  Elec       q    Type
REMARK                         _______ _______ _______ _____ _____    ______ ____
ROOT
ATOM      1  C   UNL     1      -5.132   6.742 130.612  0.00  0.00    +0.000 C 
ENDROOT
BRANCH   1   3
ATOM      2  O   UNL     1      -5.375   4.727 132.015  0.00  0.00    +0.000 OA
ATOM      3  C   UNL     1      -5.861   5.482 131.163  0.00  0.00    +0.000 C 
ATOM      4  N   UNL     1      -7.136   5.128 130.796  0.00  0.00    +0.000 N 
ATOM      5  H   UNL     1      -7.488   4.396 131.411  0.00  0.00    +0.000 HD
BRANCH   4   6
ATOM      6  N   UNL     1      -8.077   5.942 130.271  0.00  0.00    +0.000 NA
ATOM      7  C   UNL     1      -9.094   6.211 131.021  0.00  0.00    +0.000 C 
ATOM      8  C   UNL     1      -9.406   5.730 132.454  0.00  0.00    +0.000 C 
ATOM      9  O   UNL     1      -8.641   5.220 133.230  0.00  0.00    +0.000 OA
ATOM     10  N   UNL     1     -10.767   5.899 132.576  0.00  0.00    +0.000 N 
ATOM     11  C   UNL     1     -11.259   6.652 131.519  0.00  0.00    +0.000 A 
ATOM     12  C   UNL     1     -12.530   7.147 131.385  0.00  0.00    +0.000 A 
ATOM     13  C   UNL     1     -12.778   7.971 130.282  0.00  0.00    +0.000 A 
ATOM     14  C   UNL     1     -11.768   8.259 129.336  0.00  0.00    +0.000 A 
ATOM     15  C   UNL     1     -10.491   7.713 129.463  0.00  0.00    +0.000 A 
ATOM     16  C   UNL     1     -10.273   6.927 130.574  0.00  0.00    +0.000 A 
ATOM     17  H   UNL     1     -11.290   5.538 133.359  0.00  0.00    +0.000 HD
ENDBRANCH   4   6
ENDBRANCH   1   3
BRANCH   1  18
ATOM     18  N   UNL     1      -3.684   6.609 130.275  0.00  0.00    +0.000 N 
BRANCH  18  19
ATOM     19  C   UNL     1      -2.728   6.792 131.301  0.00  0.00    +0.000 A 
ATOM     20  C   UNL     1      -2.580   8.021 131.947  0.00  0.00    +0.000 A 
ATOM     21  C   UNL     1      -1.545   8.188 132.868  0.00  0.00    +0.000 A 
ATOM     22  C   UNL     1      -0.806   7.083 133.278  0.00  0.00    +0.000 A 
ATOM     23 CL   UNL     1       0.359   7.225 134.531  0.00  0.00    +0.000 Cl
ATOM     24  C   UNL     1      -0.979   5.860 132.652  0.00  0.00    +0.000 A 
ATOM     25  C   UNL     1      -1.816   5.777 131.545  0.00  0.00    +0.000 A 
ENDBRANCH  18  19
BRANCH  18  26
ATOM     26  S   UNL     1      -3.248   6.430 128.639  0.00  0.00    +0.000 S 
ATOM     27  O   UNL     1      -4.243   7.152 127.860  0.00  0.00    +0.000 OA
ATOM     28  O   UNL     1      -1.857   6.827 128.518  0.00  0.00    +0.000 OA
BRANCH  26  29
ATOM     29  C   UNL     1      -3.291   4.760 127.908  0.00  0.00    +0.000 A 
ATOM     30  C   UNL     1      -2.312   3.987 127.295  0.00  0.00    +0.000 A 
ATOM     31  C   UNL     1      -2.792   2.703 126.848  0.00  0.00    +0.000 A 
ATOM     32  C   UNL     1      -4.118   2.514 127.138  0.00  0.00    +0.000 A 
ATOM     33  S   UNL     1      -4.679   3.798 128.046  0.00  0.00    +0.000 S 
ENDBRANCH  26  29
ENDBRANCH  18  26
ENDBRANCH   1  18
TORSDOF 6
ENDMDL
MODEL 6
REMARK VINA RESULT:      -8.3      5.048      8.015
REMARK  Name = CHEMBL2113204
REMARK  6 active torsions:
REMARK  status: ('A' for Active; 'I' for Inactive)
REMARK    1  A    between atoms: C_2  and  C_3
REMARK    2  A    between atoms: C_3  and  N_4
REMARK    3  A    between atoms: N_4  and  C_5
REMARK    4  A    between atoms: N_4  and  S_12
REMARK    5  A    between atoms: S_12  and  C_15
REMARK    6  A    between atoms: N_20  and  N_21
REMARK                            x       y       z     vdW  Elec       q    Type
REMARK                         _______ _______ _______ _____ _____    ______ ____
ROOT
ATOM      1  C   UNL     1      -8.524   2.383 127.714  0.00  0.00    +0.000 C 
ENDROOT
BRANCH   1   3
ATOM      2  O   UNL     1      -6.837   2.375 129.515  0.00  0.00    +0.000 OA
ATOM      3  C   UNL     1      -7.807   2.930 128.984  0.00  0.00    +0.000 C 
ATOM      4  N   UNL     1      -8.150   4.111 129.594  0.00  0.00    +0.000 N 
ATOM      5  H   UNL     1      -7.441   4.374 130.277  0.00  0.00    +0.000 HD
BRANCH   4   6
ATOM      6  N   UNL     1      -8.819   5.141 129.032  0.00  0.00    +0.000 NA
ATOM      7  C   UNL     1      -9.778   5.657 129.727  0.00  0.00    +0.000 C 
ATOM      8  C   UNL     1     -10.290   5.264 131.129  0.00  0.00    +0.000 C 
ATOM      9  O   UNL     1      -9.728   4.571 131.937  0.00  0.00    +0.000 OA
ATOM     10  N   UNL     1     -11.567   5.774 131.176  0.00  0.00    +0.000 N 
ATOM     11  C   UNL     1     -11.786   6.633 130.107  0.00  0.00    +0.000 A 
ATOM     12  C   UNL     1     -12.879   7.437 129.910  0.00  0.00    +0.000 A 
ATOM     13  C   UNL     1     -12.841   8.302 128.812  0.00  0.00    +0.000 A 
ATOM     14  C   UNL     1     -11.735   8.328 127.932  0.00  0.00    +0.000 A 
ATOM     15  C   UNL     1     -10.649   7.474 128.122  0.00  0.00    +0.000 A 
ATOM     16  C   UNL     1     -10.706   6.652 129.227  0.00  0.00    +0.000 A 
ATOM     17  H   UNL     1     -12.212   5.555 131.920  0.00  0.00    +0.000 HD
ENDBRANCH   4   6
ENDBRANCH   1   3
BRANCH   1  18
ATOM     18  N   UNL     1      -7.755   2.382 126.436  0.00  0.00    +0.000 N 
BRANCH  18  19
ATOM     19  C   UNL     1      -7.138   1.181 126.015  0.00  0.00    +0.000 A 
ATOM     20  C   UNL     1      -5.779   0.945 126.233  0.00  0.00    +0.000 A 
ATOM     21  C   UNL     1      -5.190  -0.200 125.695  0.00  0.00    +0.000 A 
ATOM     22  C   UNL     1      -5.994  -1.184 125.127  0.00  0.00    +0.000 A 
ATOM     23 CL   UNL     1      -5.320  -2.674 124.609  0.00  0.00    +0.000 Cl
ATOM     24  C   UNL     1      -7.347  -0.953 124.940  0.00  0.00    +0.000 A 
ATOM     25  C   UNL     1      -7.866   0.304 125.225  0.00  0.00    +0.000 A 
ENDBRANCH  18  19
BRANCH  18  26
ATOM     26  S   UNL     1      -7.498   3.869 125.646  0.00  0.00    +0.000 S 
ATOM     27  O   UNL     1      -8.810   4.459 125.431  0.00  0.00    +0.000 OA
ATOM     28  O   UNL     1      -6.528   4.611 126.430  0.00  0.00    +0.000 OA
BRANCH  26  29
ATOM     29  C   UNL     1      -6.780   3.847 123.970  0.00  0.00    +0.000 A 
ATOM     30  C   UNL     1      -5.557   4.287 123.475  0.00  0.00    +0.000 A 
ATOM     31  C   UNL     1      -5.404   4.076 122.057  0.00  0.00    +0.000 A 
ATOM     32  C   UNL     1      -6.499   3.470 121.500  0.00  0.00    +0.000 A 
ATOM     33  S   UNL     1      -7.580   3.055 122.704  0.00  0.00    +0.000 S 
ENDBRANCH  26  29
ENDBRANCH  18  26
ENDBRANCH   1  18
TORSDOF 6
ENDMDL
MODEL 7
REMARK VINA RESULT:      -8.3      4.555      7.054
REMARK  Name = CHEMBL2113204
REMARK  6 active torsions:
REMARK  status: ('A' for Active; 'I' for Inactive)
REMARK    1  A    between atoms: C_2  and  C_3
REMARK    2  A    between atoms: C_3  and  N_4
REMARK    3  A    between atoms: N_4  and  C_5
REMARK    4  A    between atoms: N_4  and  S_12
REMARK    5  A    between atoms: S_12  and  C_15
REMARK    6  A    between atoms: N_20  and  N_21
REMARK                            x       y       z     vdW  Elec       q    Type
REMARK                         _______ _______ _______ _____ _____    ______ ____
ROOT
ATOM      1  C   UNL     1      -8.593   3.698 125.907  0.00  0.00    +0.000 C 
ENDROOT
BRANCH   1   3
ATOM      2  O   UNL     1      -6.659   3.097 127.316  0.00  0.00    +0.000 OA
ATOM      3  C   UNL     1      -7.737   3.694 127.208  0.00  0.00    +0.000 C 
ATOM      4  N   UNL     1      -8.074   4.404 128.334  0.00  0.00    +0.000 N 
ATOM      5  H   UNL     1      -7.292   4.419 128.987  0.00  0.00    +0.000 HD
BRANCH   4   6
ATOM      6  N   UNL     1      -8.896   5.474 128.394  0.00  0.00    +0.000 NA
ATOM      7  C   UNL     1      -9.562   5.632 129.490  0.00  0.00    +0.000 C 
ATOM      8  C   UNL     1      -9.564   4.764 130.766  0.00  0.00    +0.000 C 
ATOM      9  O   UNL     1      -8.759   3.922 131.071  0.00  0.00    +0.000 OA
ATOM     10  N   UNL     1     -10.750   5.083 131.387  0.00  0.00    +0.000 N 
ATOM     11  C   UNL     1     -11.321   6.202 130.797  0.00  0.00    +0.000 A 
ATOM     12  C   UNL     1     -12.417   6.896 131.241  0.00  0.00    +0.000 A 
ATOM     13  C   UNL     1     -12.757   8.059 130.544  0.00  0.00    +0.000 A 
ATOM     14  C   UNL     1     -12.017   8.486 129.418  0.00  0.00    +0.000 A 
ATOM     15  C   UNL     1     -10.931   7.747 128.952  0.00  0.00    +0.000 A 
ATOM     16  C   UNL     1     -10.606   6.620 129.676  0.00  0.00    +0.000 A 
ATOM     17  H   UNL     1     -11.102   4.569 132.181  0.00  0.00    +0.000 HD
ENDBRANCH   4   6
ENDBRANCH   1   3
BRANCH   1  18
ATOM     18  N   UNL     1      -8.255   2.694 124.857  0.00  0.00    +0.000 N 
BRANCH  18  19
ATOM     19  C   UNL     1      -7.531   3.118 123.719  0.00  0.00    +0.000 A 
ATOM     20  C   UNL     1      -6.222   3.596 123.825  0.00  0.00    +0.000 A 
ATOM     21  C   UNL     1      -5.591   4.114 122.693  0.00  0.00    +0.000 A 
ATOM     22  C   UNL     1      -6.188   3.966 121.445  0.00  0.00    +0.000 A 
ATOM     23 CL   UNL     1      -5.362   4.441 120.018  0.00  0.00    +0.000 Cl
ATOM     24  C   UNL     1      -7.476   3.464 121.346  0.00  0.00    +0.000 A 
ATOM     25  C   UNL     1      -8.197   3.215 122.507  0.00  0.00    +0.000 A 
ENDBRANCH  18  19
BRANCH  18  26
ATOM     26  S   UNL     1      -8.919   1.131 124.989  0.00  0.00    +0.000 S 
ATOM     27  O   UNL     1      -8.914   0.794 126.404  0.00  0.00    +0.000 OA
ATOM     28  O   UNL     1     -10.190   1.143 124.287  0.00  0.00    +0.000 OA
BRANCH  26  29
ATOM     29  C   UNL     1      -8.015  -0.261 124.233  0.00  0.00    +0.000 A 
ATOM     30  C   UNL     1      -7.040  -0.310 123.243  0.00  0.00    +0.000 A 
ATOM     31  C   UNL     1      -6.598  -1.648 122.941  0.00  0.00    +0.000 A 
ATOM     32  C   UNL     1      -7.229  -2.591 123.709  0.00  0.00    +0.000 A 
ATOM     33  S   UNL     1      -8.198  -1.832 124.839  0.00  0.00    +0.000 S 
ENDBRANCH  26  29
ENDBRANCH  18  26
ENDBRANCH   1  18
TORSDOF 6
ENDMDL
MODEL 8
REMARK VINA RESULT:      -8.3      3.726      8.187
REMARK  Name = CHEMBL2113204
REMARK  6 active torsions:
REMARK  status: ('A' for Active; 'I' for Inactive)
REMARK    1  A    between atoms: C_2  and  C_3
REMARK    2  A    between atoms: C_3  and  N_4
REMARK    3  A    between atoms: N_4  and  C_5
REMARK    4  A    between atoms: N_4  and  S_12
REMARK    5  A    between atoms: S_12  and  C_15
REMARK    6  A    between atoms: N_20  and  N_21
REMARK                            x       y       z     vdW  Elec       q    Type
REMARK                         _______ _______ _______ _____ _____    ______ ____
ROOT
ATOM      1  C   UNL     1      -5.788   0.345 127.223  0.00  0.00    +0.000 C 
ENDROOT
BRANCH   1   3
ATOM      2  O   UNL     1      -7.772   1.129 128.464  0.00  0.00    +0.000 OA
ATOM      3  C   UNL     1      -7.059   1.215 127.456  0.00  0.00    +0.000 C 
ATOM      4  N   UNL     1      -7.468   2.198 126.591  0.00  0.00    +0.000 N 
ATOM      5  H   UNL     1      -8.196   2.766 127.022  0.00  0.00    +0.000 HD
BRANCH   4   6
ATOM      6  N   UNL     1      -6.703   2.837 125.679  0.00  0.00    +0.000 NA
ATOM      7  C   UNL     1      -7.240   3.058 124.525  0.00  0.00    +0.000 C 
ATOM      8  C   UNL     1      -8.651   2.693 124.017  0.00  0.00    +0.000 C 
ATOM      9  O   UNL     1      -9.597   2.360 124.683  0.00  0.00    +0.000 OA
ATOM     10  N   UNL     1      -8.530   2.711 122.647  0.00  0.00    +0.000 N 
ATOM     11  C   UNL     1      -7.324   3.288 122.274  0.00  0.00    +0.000 A 
ATOM     12  C   UNL     1      -6.927   3.612 121.002  0.00  0.00    +0.000 A 
ATOM     13  C   UNL     1      -5.707   4.282 120.869  0.00  0.00    +0.000 A 
ATOM     14  C   UNL     1      -4.909   4.590 121.994  0.00  0.00    +0.000 A 
ATOM     15  C   UNL     1      -5.306   4.216 123.278  0.00  0.00    +0.000 A 
ATOM     16  C   UNL     1      -6.524   3.579 123.377  0.00  0.00    +0.000 A 
ATOM     17  H   UNL     1      -9.256   2.372 122.033  0.00  0.00    +0.000 HD
ENDBRANCH   4   6
ENDBRANCH   1   3
BRANCH   1  18
ATOM     18  N   UNL     1      -5.991  -1.088 126.859  0.00  0.00    +0.000 N 
BRANCH  18  19
ATOM     19  C   UNL     1      -5.951  -2.061 127.884  0.00  0.00    +0.000 A 
ATOM     20  C   UNL     1      -7.122  -2.608 128.415  0.00  0.00    +0.000 A 
ATOM     21  C   UNL     1      -7.038  -3.475 129.505  0.00  0.00    +0.000 A 
ATOM     22  C   UNL     1      -5.793  -3.940 129.918  0.00  0.00    +0.000 A 
ATOM     23 CL   UNL     1      -5.667  -5.135 131.143  0.00  0.00    +0.000 Cl
ATOM     24  C   UNL     1      -4.636  -3.413 129.366  0.00  0.00    +0.000 A 
ATOM     25  C   UNL     1      -4.733  -2.347 128.480  0.00  0.00    +0.000 A 
ENDBRANCH  18  19
BRANCH  18  26
ATOM     26  S   UNL     1      -6.071  -1.499 125.209  0.00  0.00    +0.000 S 
ATOM     27  O   UNL     1      -6.053  -0.249 124.465  0.00  0.00    +0.000 OA
ATOM     28  O   UNL     1      -5.020  -2.467 124.955  0.00  0.00    +0.000 OA
BRANCH  26  29
ATOM     29  C   UNL     1      -7.579  -2.319 124.592  0.00  0.00    +0.000 A 
ATOM     30  C   UNL     1      -8.353  -3.353 125.108  0.00  0.00    +0.000 A 
ATOM     31  C   UNL     1      -9.476  -3.698 124.272  0.00  0.00    +0.000 A 
ATOM     32  C   UNL     1      -9.547  -2.919 123.148  0.00  0.00    +0.000 A 
ATOM     33  S   UNL     1      -8.373  -1.733 123.216  0.00  0.00    +0.000 S 
ENDBRANCH  26  29
ENDBRANCH  18  26
ENDBRANCH   1  18
TORSDOF 6
ENDMDL
MODEL 9
REMARK VINA RESULT:      -8.0      3.252      5.301
REMARK  Name = CHEMBL2113204
REMARK  6 active torsions:
REMARK  status: ('A' for Active; 'I' for Inactive)
REMARK    1  A    between atoms: C_2  and  C_3
REMARK    2  A    between atoms: C_3  and  N_4
REMARK    3  A    between atoms: N_4  and  C_5
REMARK    4  A    between atoms: N_4  and  S_12
REMARK    5  A    between atoms: S_12  and  C_15
REMARK    6  A    between atoms: N_20  and  N_21
REMARK                            x       y       z     vdW  Elec       q    Type
REMARK                         _______ _______ _______ _____ _____    ______ ____
ROOT
ATOM      1  C   UNL     1      -7.394   2.037 127.162  0.00  0.00    +0.000 C 
ENDROOT
BRANCH   1   3
ATOM      2  O   UNL     1      -9.249   2.796 128.602  0.00  0.00    +0.000 OA
ATOM      3  C   UNL     1      -8.297   2.023 128.431  0.00  0.00    +0.000 C 
ATOM      4  N   UNL     1      -8.157   1.111 129.447  0.00  0.00    +0.000 N 
ATOM      5  H   UNL     1      -8.959   1.156 130.073  0.00  0.00    +0.000 HD
BRANCH   4   6
ATOM      6  N   UNL     1      -7.554  -0.095 129.367  0.00  0.00    +0.000 NA
ATOM      7  C   UNL     1      -7.702  -0.885 130.378  0.00  0.00    +0.000 C 
ATOM      8  C   UNL     1      -8.477  -0.654 131.693  0.00  0.00    +0.000 C 
ATOM      9  O   UNL     1      -9.292   0.204 131.913  0.00  0.00    +0.000 OA
ATOM     10  N   UNL     1      -7.925  -1.559 132.572  0.00  0.00    +0.000 N 
ATOM     11  C   UNL     1      -7.121  -2.465 131.893  0.00  0.00    +0.000 A 
ATOM     12  C   UNL     1      -6.534  -3.591 132.411  0.00  0.00    +0.000 A 
ATOM     13  C   UNL     1      -5.848  -4.418 131.516  0.00  0.00    +0.000 A 
ATOM     14  C   UNL     1      -5.744  -4.093 130.145  0.00  0.00    +0.000 A 
ATOM     15  C   UNL     1      -6.310  -2.923 129.641  0.00  0.00    +0.000 A 
ATOM     16  C   UNL     1      -7.001  -2.143 130.543  0.00  0.00    +0.000 A 
ATOM     17  H   UNL     1      -8.130  -1.550 133.559  0.00  0.00    +0.000 HD
ENDBRANCH   4   6
ENDBRANCH   1   3
BRANCH   1  18
ATOM     18  N   UNL     1      -8.001   1.580 125.879  0.00  0.00    +0.000 N 
BRANCH  18  19
ATOM     19  C   UNL     1      -8.004   0.198 125.582  0.00  0.00    +0.000 A 
ATOM     20  C   UNL     1      -7.073  -0.360 124.702  0.00  0.00    +0.000 A 
ATOM     21  C   UNL     1      -7.189  -1.705 124.348  0.00  0.00    +0.000 A 
ATOM     22  C   UNL     1      -8.096  -2.517 125.022  0.00  0.00    +0.000 A 
ATOM     23 CL   UNL     1      -8.145  -4.207 124.728  0.00  0.00    +0.000 Cl
ATOM     24  C   UNL     1      -8.997  -1.960 125.915  0.00  0.00    +0.000 A 
ATOM     25  C   UNL     1      -9.055  -0.577 126.046  0.00  0.00    +0.000 A 
ENDBRANCH  18  19
BRANCH  18  26
ATOM     26  S   UNL     1      -8.490   2.760 124.751  0.00  0.00    +0.000 S 
ATOM     27  O   UNL     1      -9.554   2.164 123.958  0.00  0.00    +0.000 OA
ATOM     28  O   UNL     1      -8.780   3.972 125.495  0.00  0.00    +0.000 OA
BRANCH  26  29
ATOM     29  C   UNL     1      -7.291   3.299 123.488  0.00  0.00    +0.000 A 
ATOM     30  C   UNL     1      -7.309   3.234 122.099  0.00  0.00    +0.000 A 
ATOM     31  C   UNL     1      -6.126   3.783 121.484  0.00  0.00    +0.000 A 
ATOM     32  C   UNL     1      -5.237   4.267 122.408  0.00  0.00    +0.000 A 
ATOM     33  S   UNL     1      -5.912   4.178 123.933  0.00  0.00    +0.000 S 
ENDBRANCH  26  29
ENDBRANCH  18  26
ENDBRANCH   1  18
TORSDOF 6
ENDMDL
