MODEL 1
REMARK VINA RESULT:      -7.9      0.000      0.000
REMARK  Name = CHEMBL257660
REMARK  11 active torsions:
REMARK  status: ('A' for Active; 'I' for Inactive)
REMARK    1  A    between atoms: CD1_1  and  CG_2
REMARK    2  A    between atoms: CG_2  and  CD2_3
REMARK    3  A    between atoms: CG_2  and  CB_4
REMARK    4  A    between atoms: CB_4  and  CA_5
REMARK    5  A    between atoms: C_9  and  C_10
REMARK    6  A    between atoms: N_21  and  C_22
REMARK    7  A    between atoms: C_22  and  C_23
REMARK    8  A    between atoms: C_22  and  C_29
REMARK    9  A    between atoms: N_25  and  C_26
REMARK   10  A    between atoms: C_26  and  C_27
REMARK   11  A    between atoms: C_26  and  C_28
REMARK                            x       y       z     vdW  Elec       q    Type
REMARK                         _______ _______ _______ _____ _____    ______ ____
ROOT
ATOM      1  CA  LEU A   2      -5.255   2.877 128.092  0.00  0.00    +0.000 C 
ATOM      2  C   LEU A   2      -5.249   2.488 129.574  0.00  0.00    +0.000 C 
ATOM      3  O   LEU A   2      -4.280   2.308 130.282  0.00  0.00    +0.000 OA
ATOM      4  N   UNK A   1      -6.500   2.481 130.097  0.00  0.00    +0.000 N 
ATOM      5  C   UNK A   1      -7.669   2.872 129.334  0.00  0.00    +0.000 C 
ATOM      6  C   UNK A   1      -7.628   2.228 127.939  0.00  0.00    +0.000 C 
ATOM      7  O   UNK A   1      -8.682   1.929 127.417  0.00  0.00    +0.000 OA
ATOM      8  N   LEU A   2      -6.351   2.103 127.376  0.00  0.00    +0.000 N 
ATOM      9  H   UNK A   1      -6.520   2.312 131.095  0.00  0.00    +0.000 HD
ENDROOT
BRANCH   5  10
ATOM     10  C   UNK A   1      -8.982   2.387 129.988  0.00  0.00    +0.000 C 
ATOM     11  C   UNK A   1      -9.880   3.570 130.364  0.00  0.00    +0.000 C 
ATOM     12  C   UNK A   1      -9.415   3.845 131.761  0.00  0.00    +0.000 A 
ATOM     13  C   UNK A   1      -9.475   5.043 132.445  0.00  0.00    +0.000 A 
ATOM     14  C   UNK A   1      -8.847   5.124 133.688  0.00  0.00    +0.000 A 
ATOM     15  C   UNK A   1      -8.160   4.020 134.223  0.00  0.00    +0.000 A 
ATOM     16  C   UNK A   1      -8.089   2.816 133.522  0.00  0.00    +0.000 A 
ATOM     17  C   UNK A   1      -8.730   2.741 132.297  0.00  0.00    +0.000 A 
ATOM     18  C   UNK A   1      -8.693   1.616 131.309  0.00  0.00    +0.000 C 
ENDBRANCH   5  10
BRANCH   1  19
ATOM     19  CB  LEU A   2      -3.876   2.631 127.572  0.00  0.00    +0.000 C 
BRANCH  19  21
ATOM     20  CD1 LEU A   2      -2.681   4.728 128.075  0.00  0.00    +0.000 C 
ATOM     21  CG  LEU A   2      -2.987   3.686 126.981  0.00  0.00    +0.000 C 
ATOM     22  CD2 LEU A   2      -1.688   2.984 126.590  0.00  0.00    +0.000 C 
ENDBRANCH  19  21
ENDBRANCH   1  19
BRANCH   8  23
ATOM     23  C   UNK A   0      -6.101   1.252 126.122  0.00  0.00    +0.000 C 
BRANCH  23  24
ATOM     24  C   UNK A   0      -7.020   1.620 124.916  0.00  0.00    +0.000 A 
ATOM     25  C   UNK A   0      -7.911   0.805 124.238  0.00  0.00    +0.000 A 
ATOM     26  C   UNK A   0      -8.777   1.472 123.366  0.00  0.00    +0.000 A 
ATOM     27 BR   UNK A   0     -10.111   0.490 122.468  0.00  0.00    +0.000 Br
ATOM     28  C   UNK A   0      -8.543   2.816 123.319  0.00  0.00    +0.000 A 
ATOM     29  S   UNK A   0      -7.065   3.193 124.147  0.00  0.00    +0.000 S 
ENDBRANCH  23  24
BRANCH  23  30
ATOM     30  C   UNK A   0      -6.265  -0.379 126.411  0.00  0.00    +0.000 C 
ATOM     31  O   UNK A   0      -5.497  -1.239 125.981  0.00  0.00    +0.000 OA
ATOM     32  N   UNK A   0      -7.275  -0.879 127.207  0.00  0.00    +0.000 N 
ATOM     33  H   UNK A   0      -7.554  -0.374 128.022  0.00  0.00    +0.000 HD
BRANCH  32  34
ATOM     34  C   UNK A   0      -7.485  -2.282 127.487  0.00  0.00    +0.000 C 
ATOM     35  C   UNK A   0      -7.834  -2.389 128.963  0.00  0.00    +0.000 C 
ATOM     36  C   UNK A   0      -8.663  -2.786 126.643  0.00  0.00    +0.000 C 
ENDBRANCH  32  34
ENDBRANCH  23  30
ENDBRANCH   8  23
TORSDOF 7
ENDMDL
MODEL 2
REMARK VINA RESULT:      -7.9      3.437      7.378
REMARK  Name = CHEMBL257660
REMARK  11 active torsions:
REMARK  status: ('A' for Active; 'I' for Inactive)
REMARK    1  A    between atoms: CD1_1  and  CG_2
REMARK    2  A    between atoms: CG_2  and  CD2_3
REMARK    3  A    between atoms: CG_2  and  CB_4
REMARK    4  A    between atoms: CB_4  and  CA_5
REMARK    5  A    between atoms: C_9  and  C_10
REMARK    6  A    between atoms: N_21  and  C_22
REMARK    7  A    between atoms: C_22  and  C_23
REMARK    8  A    between atoms: C_22  and  C_29
REMARK    9  A    between atoms: N_25  and  C_26
REMARK   10  A    between atoms: C_26  and  C_27
REMARK   11  A    between atoms: C_26  and  C_28
REMARK                            x       y       z     vdW  Elec       q    Type
REMARK                         _______ _______ _______ _____ _____    ______ ____
ROOT
ATOM      1  CA  LEU A   2      -4.887   2.899 127.099  0.00  0.00    +0.000 C 
ATOM      2  C   LEU A   2      -5.465   2.677 125.696  0.00  0.00    +0.000 C 
ATOM      3  O   LEU A   2      -5.306   3.376 124.718  0.00  0.00    +0.000 OA
ATOM      4  N   UNK A   1      -6.112   1.489 125.602  0.00  0.00    +0.000 N 
ATOM      5  C   UNK A   1      -6.164   0.538 126.694  0.00  0.00    +0.000 C 
ATOM      6  C   UNK A   1      -6.490   1.263 128.009  0.00  0.00    +0.000 C 
ATOM      7  O   UNK A   1      -7.138   0.667 128.844  0.00  0.00    +0.000 OA
ATOM      8  N   LEU A   2      -5.942   2.546 128.135  0.00  0.00    +0.000 N 
ATOM      9  H   UNK A   1      -6.429   1.275 124.665  0.00  0.00    +0.000 HD
ENDROOT
BRANCH   5  10
ATOM     10  C   UNK A   1      -7.281  -0.513 126.500  0.00  0.00    +0.000 C 
ATOM     11  C   UNK A   1      -6.721  -1.936 126.596  0.00  0.00    +0.000 C 
ATOM     12  C   UNK A   1      -6.374  -2.200 125.162  0.00  0.00    +0.000 A 
ATOM     13  C   UNK A   1      -5.420  -3.073 124.677  0.00  0.00    +0.000 A 
ATOM     14  C   UNK A   1      -5.150  -3.058 123.309  0.00  0.00    +0.000 A 
ATOM     15  C   UNK A   1      -5.820  -2.170 122.450  0.00  0.00    +0.000 A 
ATOM     16  C   UNK A   1      -6.773  -1.280 122.947  0.00  0.00    +0.000 A 
ATOM     17  C   UNK A   1      -7.046  -1.314 124.304  0.00  0.00    +0.000 A 
ATOM     18  C   UNK A   1      -7.922  -0.387 125.087  0.00  0.00    +0.000 C 
ENDBRANCH   5  10
BRANCH   1  19
ATOM     19  CB  LEU A   2      -4.407   4.313 127.153  0.00  0.00    +0.000 C 
BRANCH  19  21
ATOM     20  CD1 LEU A   2      -2.723   5.384 128.600  0.00  0.00    +0.000 C 
ATOM     21  CG  LEU A   2      -2.965   4.721 127.229  0.00  0.00    +0.000 C 
ATOM     22  CD2 LEU A   2      -2.148   3.433 127.153  0.00  0.00    +0.000 C 
ENDBRANCH  19  21
ENDBRANCH   1  19
BRANCH   8  23
ATOM     23  C   UNK A   0      -6.379   3.504 129.253  0.00  0.00    +0.000 C 
BRANCH  23  24
ATOM     24  C   UNK A   0      -5.384   3.573 130.452  0.00  0.00    +0.000 A 
ATOM     25  C   UNK A   0      -5.165   4.625 131.326  0.00  0.00    +0.000 A 
ATOM     26  C   UNK A   0      -4.398   4.310 132.451  0.00  0.00    +0.000 A 
ATOM     27 BR   UNK A   0      -4.122   5.626 133.771  0.00  0.00    +0.000 Br
ATOM     28  C   UNK A   0      -3.969   3.014 132.449  0.00  0.00    +0.000 A 
ATOM     29  S   UNK A   0      -4.292   2.282 130.909  0.00  0.00    +0.000 S 
ENDBRANCH  23  24
BRANCH  23  30
ATOM     30  C   UNK A   0      -7.886   3.137 129.859  0.00  0.00    +0.000 C 
ATOM     31  O   UNK A   0      -8.944   3.376 129.278  0.00  0.00    +0.000 OA
ATOM     32  N   UNK A   0      -8.046   2.486 131.065  0.00  0.00    +0.000 N 
ATOM     33  H   UNK A   0      -7.405   1.763 131.322  0.00  0.00    +0.000 HD
BRANCH  32  34
ATOM     34  C   UNK A   0      -9.321   2.149 131.657  0.00  0.00    +0.000 C 
ATOM     35  C   UNK A   0      -9.377   0.634 131.751  0.00  0.00    +0.000 C 
ATOM     36  C   UNK A   0      -9.389   2.754 133.066  0.00  0.00    +0.000 C 
ENDBRANCH  32  34
ENDBRANCH  23  30
ENDBRANCH   8  23
TORSDOF 7
ENDMDL
MODEL 3
REMARK VINA RESULT:      -7.9      4.746      8.060
REMARK  Name = CHEMBL257660
REMARK  11 active torsions:
REMARK  status: ('A' for Active; 'I' for Inactive)
REMARK    1  A    between atoms: CD1_1  and  CG_2
REMARK    2  A    between atoms: CG_2  and  CD2_3
REMARK    3  A    between atoms: CG_2  and  CB_4
REMARK    4  A    between atoms: CB_4  and  CA_5
REMARK    5  A    between atoms: C_9  and  C_10
REMARK    6  A    between atoms: N_21  and  C_22
REMARK    7  A    between atoms: C_22  and  C_23
REMARK    8  A    between atoms: C_22  and  C_29
REMARK    9  A    between atoms: N_25  and  C_26
REMARK   10  A    between atoms: C_26  and  C_27
REMARK   11  A    between atoms: C_26  and  C_28
REMARK                            x       y       z     vdW  Elec       q    Type
REMARK                         _______ _______ _______ _____ _____    ______ ____
ROOT
ATOM      1  CA  LEU A   2      -7.901   3.608 129.892  0.00  0.00    +0.000 C 
ATOM      2  C   LEU A   2      -8.417   4.338 128.647  0.00  0.00    +0.000 C 
ATOM      3  O   LEU A   2      -8.277   4.004 127.489  0.00  0.00    +0.000 OA
ATOM      4  N   UNK A   1      -9.201   5.395 128.974  0.00  0.00    +0.000 N 
ATOM      5  C   UNK A   1      -9.547   5.719 130.344  0.00  0.00    +0.000 C 
ATOM      6  C   UNK A   1      -8.299   5.635 131.237  0.00  0.00    +0.000 C 
ATOM      7  O   UNK A   1      -8.222   6.392 132.182  0.00  0.00    +0.000 OA
ATOM      8  N   LEU A   2      -7.385   4.630 130.893  0.00  0.00    +0.000 N 
ATOM      9  H   UNK A   1      -9.627   5.844 128.174  0.00  0.00    +0.000 HD
ENDROOT
BRANCH   5  10
ATOM     10  C   UNK A   1     -10.076   7.163 130.486  0.00  0.00    +0.000 C 
ATOM     11  C   UNK A   1     -11.580   7.174 130.777  0.00  0.00    +0.000 C 
ATOM     12  C   UNK A   1     -12.136   7.224 129.387  0.00  0.00    +0.000 A 
ATOM     13  C   UNK A   1     -13.371   6.777 128.960  0.00  0.00    +0.000 A 
ATOM     14  C   UNK A   1     -13.634   6.780 127.590  0.00  0.00    +0.000 A 
ATOM     15  C   UNK A   1     -12.665   7.213 126.669  0.00  0.00    +0.000 A 
ATOM     16  C   UNK A   1     -11.414   7.651 127.104  0.00  0.00    +0.000 A 
ATOM     17  C   UNK A   1     -11.168   7.660 128.466  0.00  0.00    +0.000 A 
ATOM     18  C   UNK A   1      -9.878   7.961 129.164  0.00  0.00    +0.000 C 
ENDBRANCH   5  10
BRANCH   1  19
ATOM     19  CB  LEU A   2      -6.880   2.621 129.426  0.00  0.00    +0.000 C 
BRANCH  19  21
ATOM     20  CD1 LEU A   2      -7.998   0.841 130.714  0.00  0.00    +0.000 C 
ATOM     21  CG  LEU A   2      -7.005   1.133 129.571  0.00  0.00    +0.000 C 
ATOM     22  CD2 LEU A   2      -7.596   0.620 128.260  0.00  0.00    +0.000 C 
ENDBRANCH  19  21
ENDBRANCH   1  19
BRANCH   8  23
ATOM     23  C   UNK A   0      -5.977   4.576 131.504  0.00  0.00    +0.000 C 
BRANCH  23  24
ATOM     24  C   UNK A   0      -5.957   4.710 133.058  0.00  0.00    +0.000 A 
ATOM     25  C   UNK A   0      -5.290   5.648 133.829  0.00  0.00    +0.000 A 
ATOM     26  C   UNK A   0      -5.657   5.675 135.178  0.00  0.00    +0.000 A 
ATOM     27 BR   UNK A   0      -4.904   6.980 136.308  0.00  0.00    +0.000 Br
ATOM     28  C   UNK A   0      -6.587   4.725 135.488  0.00  0.00    +0.000 A 
ATOM     29  S   UNK A   0      -6.786   3.627 134.158  0.00  0.00    +0.000 S 
ENDBRANCH  23  24
BRANCH  23  30
ATOM     30  C   UNK A   0      -4.962   5.736 130.877  0.00  0.00    +0.000 C 
ATOM     31  O   UNK A   0      -5.339   6.820 130.432  0.00  0.00    +0.000 OA
ATOM     32  N   UNK A   0      -3.592   5.570 130.855  0.00  0.00    +0.000 N 
ATOM     33  H   UNK A   0      -3.140   5.121 131.625  0.00  0.00    +0.000 HD
BRANCH  32  34
ATOM     34  C   UNK A   0      -2.654   6.528 130.314  0.00  0.00    +0.000 C 
ATOM     35  C   UNK A   0      -1.425   6.494 131.207  0.00  0.00    +0.000 C 
ATOM     36  C   UNK A   0      -2.269   6.097 128.893  0.00  0.00    +0.000 C 
ENDBRANCH  32  34
ENDBRANCH  23  30
ENDBRANCH   8  23
TORSDOF 7
ENDMDL
MODEL 4
REMARK VINA RESULT:      -7.8      3.315      6.324
REMARK  Name = CHEMBL257660
REMARK  11 active torsions:
REMARK  status: ('A' for Active; 'I' for Inactive)
REMARK    1  A    between atoms: CD1_1  and  CG_2
REMARK    2  A    between atoms: CG_2  and  CD2_3
REMARK    3  A    between atoms: CG_2  and  CB_4
REMARK    4  A    between atoms: CB_4  and  CA_5
REMARK    5  A    between atoms: C_9  and  C_10
REMARK    6  A    between atoms: N_21  and  C_22
REMARK    7  A    between atoms: C_22  and  C_23
REMARK    8  A    between atoms: C_22  and  C_29
REMARK    9  A    between atoms: N_25  and  C_26
REMARK   10  A    between atoms: C_26  and  C_27
REMARK   11  A    between atoms: C_26  and  C_28
REMARK                            x       y       z     vdW  Elec       q    Type
REMARK                         _______ _______ _______ _____ _____    ______ ____
ROOT
ATOM      1  CA  LEU A   2      -7.417   4.288 131.239  0.00  0.00    +0.000 C 
ATOM      2  C   LEU A   2      -7.302   5.768 131.622  0.00  0.00    +0.000 C 
ATOM      3  O   LEU A   2      -8.049   6.402 132.338  0.00  0.00    +0.000 OA
ATOM      4  N   UNK A   1      -6.150   6.317 131.164  0.00  0.00    +0.000 N 
ATOM      5  C   UNK A   1      -5.140   5.548 130.465  0.00  0.00    +0.000 C 
ATOM      6  C   UNK A   1      -5.801   4.644 129.413  0.00  0.00    +0.000 C 
ATOM      7  O   UNK A   1      -5.185   4.412 128.393  0.00  0.00    +0.000 OA
ATOM      8  N   LEU A   2      -7.050   4.122 129.773  0.00  0.00    +0.000 N 
ATOM      9  H   UNK A   1      -6.005   7.269 131.476  0.00  0.00    +0.000 HD
ENDROOT
BRANCH   5  10
ATOM     10  C   UNK A   1      -4.151   6.449 129.692  0.00  0.00    +0.000 C 
ATOM     11  C   UNK A   1      -2.732   5.871 129.731  0.00  0.00    +0.000 C 
ATOM     12  C   UNK A   1      -2.194   6.527 130.966  0.00  0.00    +0.000 A 
ATOM     13  C   UNK A   1      -1.186   6.067 131.789  0.00  0.00    +0.000 A 
ATOM     14  C   UNK A   1      -0.939   6.757 132.976  0.00  0.00    +0.000 A 
ATOM     15  C   UNK A   1      -1.704   7.881 133.330  0.00  0.00    +0.000 A 
ATOM     16  C   UNK A   1      -2.731   8.335 132.502  0.00  0.00    +0.000 A 
ATOM     17  C   UNK A   1      -2.958   7.653 131.318  0.00  0.00    +0.000 A 
ATOM     18  C   UNK A   1      -4.068   7.863 130.336  0.00  0.00    +0.000 C 
ENDBRANCH   5  10
BRANCH   1  19
ATOM     19  CB  LEU A   2      -8.803   3.855 131.589  0.00  0.00    +0.000 C 
BRANCH  19  21
ATOM     20  CD1 LEU A   2      -9.703   1.583 131.911  0.00  0.00    +0.000 C 
ATOM     21  CG  LEU A   2      -9.138   2.826 132.627  0.00  0.00    +0.000 C 
ATOM     22  CD2 LEU A   2      -7.820   2.449 133.302  0.00  0.00    +0.000 C 
ENDBRANCH  19  21
ENDBRANCH   1  19
BRANCH   8  23
ATOM     23  C   UNK A   0      -7.960   3.426 128.750  0.00  0.00    +0.000 C 
BRANCH  23  24
ATOM     24  C   UNK A   0      -7.665   1.904 128.575  0.00  0.00    +0.000 A 
ATOM     25  C   UNK A   0      -8.283   1.003 127.724  0.00  0.00    +0.000 A 
ATOM     26  C   UNK A   0      -7.642  -0.234 127.603  0.00  0.00    +0.000 A 
ATOM     27 BR   UNK A   0      -8.322  -1.505 126.391  0.00  0.00    +0.000 Br
ATOM     28  C   UNK A   0      -6.535  -0.331 128.396  0.00  0.00    +0.000 A 
ATOM     29  S   UNK A   0      -6.464   1.014 129.490  0.00  0.00    +0.000 S 
ENDBRANCH  23  24
BRANCH  23  30
ATOM     30  C   UNK A   0      -7.893   4.136 127.246  0.00  0.00    +0.000 C 
ATOM     31  O   UNK A   0      -8.523   5.144 126.927  0.00  0.00    +0.000 OA
ATOM     32  N   UNK A   0      -7.074   3.650 126.248  0.00  0.00    +0.000 N 
ATOM     33  H   UNK A   0      -6.169   3.298 126.482  0.00  0.00    +0.000 HD
BRANCH  32  34
ATOM     34  C   UNK A   0      -6.978   4.206 124.916  0.00  0.00    +0.000 C 
ATOM     35  C   UNK A   0      -5.505   4.197 124.540  0.00  0.00    +0.000 C 
ATOM     36  C   UNK A   0      -7.761   3.312 123.947  0.00  0.00    +0.000 C 
ENDBRANCH  32  34
ENDBRANCH  23  30
ENDBRANCH   8  23
TORSDOF 7
ENDMDL
MODEL 5
REMARK VINA RESULT:      -7.8      3.331      5.634
REMARK  Name = CHEMBL257660
REMARK  11 active torsions:
REMARK  status: ('A' for Active; 'I' for Inactive)
REMARK    1  A    between atoms: CD1_1  and  CG_2
REMARK    2  A    between atoms: CG_2  and  CD2_3
REMARK    3  A    between atoms: CG_2  and  CB_4
REMARK    4  A    between atoms: CB_4  and  CA_5
REMARK    5  A    between atoms: C_9  and  C_10
REMARK    6  A    between atoms: N_21  and  C_22
REMARK    7  A    between atoms: C_22  and  C_23
REMARK    8  A    between atoms: C_22  and  C_29
REMARK    9  A    between atoms: N_25  and  C_26
REMARK   10  A    between atoms: C_26  and  C_27
REMARK   11  A    between atoms: C_26  and  C_28
REMARK                            x       y       z     vdW  Elec       q    Type
REMARK                         _______ _______ _______ _____ _____    ______ ____
ROOT
ATOM      1  CA  LEU A   2      -6.066  -0.132 128.432  0.00  0.00    +0.000 C 
ATOM      2  C   LEU A   2      -5.960   1.171 129.232  0.00  0.00    +0.000 C 
ATOM      3  O   LEU A   2      -6.194   1.329 130.412  0.00  0.00    +0.000 OA
ATOM      4  N   UNK A   1      -5.430   2.174 128.489  0.00  0.00    +0.000 N 
ATOM      5  C   UNK A   1      -4.962   1.979 127.131  0.00  0.00    +0.000 C 
ATOM      6  C   UNK A   1      -5.987   1.158 126.333  0.00  0.00    +0.000 C 
ATOM      7  O   UNK A   1      -6.102   1.386 125.147  0.00  0.00    +0.000 OA
ATOM      8  N   LEU A   2      -6.657   0.167 127.064  0.00  0.00    +0.000 N 
ATOM      9  H   UNK A   1      -5.267   3.023 129.015  0.00  0.00    +0.000 HD
ENDROOT
BRANCH   5  10
ATOM     10  C   UNK A   1      -4.804   3.315 126.371  0.00  0.00    +0.000 C 
ATOM     11  C   UNK A   1      -3.349   3.795 126.397  0.00  0.00    +0.000 C 
ATOM     12  C   UNK A   1      -3.348   4.629 127.641  0.00  0.00    +0.000 A 
ATOM     13  C   UNK A   1      -2.270   4.923 128.453  0.00  0.00    +0.000 A 
ATOM     14  C   UNK A   1      -2.514   5.594 129.652  0.00  0.00    +0.000 A 
ATOM     15  C   UNK A   1      -3.820   5.950 130.028  0.00  0.00    +0.000 A 
ATOM     16  C   UNK A   1      -4.907   5.639 129.211  0.00  0.00    +0.000 A 
ATOM     17  C   UNK A   1      -4.654   4.987 128.016  0.00  0.00    +0.000 A 
ATOM     18  C   UNK A   1      -5.649   4.439 127.040  0.00  0.00    +0.000 C 
ENDBRANCH   5  10
BRANCH   1  19
ATOM     19  CB  LEU A   2      -6.862  -1.088 129.260  0.00  0.00    +0.000 C 
BRANCH  19  21
ATOM     20  CD1 LEU A   2      -7.651  -3.401 128.941  0.00  0.00    +0.000 C 
ATOM     21  CG  LEU A   2      -6.503  -2.527 129.483  0.00  0.00    +0.000 C 
ATOM     22  CD2 LEU A   2      -5.248  -2.791 128.653  0.00  0.00    +0.000 C 
ENDBRANCH  19  21
ENDBRANCH   1  19
BRANCH   8  23
ATOM     23  C   UNK A   0      -7.887  -0.558 126.500  0.00  0.00    +0.000 C 
BRANCH  23  24
ATOM     24  C   UNK A   0      -7.540  -1.756 125.562  0.00  0.00    +0.000 A 
ATOM     25  C   UNK A   0      -6.315  -2.080 125.001  0.00  0.00    +0.000 A 
ATOM     26  C   UNK A   0      -6.251  -3.345 124.410  0.00  0.00    +0.000 A 
ATOM     27 BR   UNK A   0      -4.609  -3.948 123.711  0.00  0.00    +0.000 Br
ATOM     28  C   UNK A   0      -7.442  -4.010 124.462  0.00  0.00    +0.000 A 
ATOM     29  S   UNK A   0      -8.700  -2.941 124.997  0.00  0.00    +0.000 S 
ENDBRANCH  23  24
BRANCH  23  30
ATOM     30  C   UNK A   0      -8.908   0.461 125.669  0.00  0.00    +0.000 C 
ATOM     31  O   UNK A   0      -9.782   1.147 126.198  0.00  0.00    +0.000 OA
ATOM     32  N   UNK A   0      -8.808   0.638 124.304  0.00  0.00    +0.000 N 
ATOM     33  H   UNK A   0      -7.905   0.661 123.877  0.00  0.00    +0.000 HD
BRANCH  32  34
ATOM     34  C   UNK A   0      -9.669   1.494 123.519  0.00  0.00    +0.000 C 
ATOM     35  C   UNK A   0      -8.779   2.552 122.886  0.00  0.00    +0.000 C 
ATOM     36  C   UNK A   0     -10.332   0.656 122.419  0.00  0.00    +0.000 C 
ENDBRANCH  32  34
ENDBRANCH  23  30
ENDBRANCH   8  23
TORSDOF 7
ENDMDL
MODEL 6
REMARK VINA RESULT:      -7.8      3.167      7.067
REMARK  Name = CHEMBL257660
REMARK  11 active torsions:
REMARK  status: ('A' for Active; 'I' for Inactive)
REMARK    1  A    between atoms: CD1_1  and  CG_2
REMARK    2  A    between atoms: CG_2  and  CD2_3
REMARK    3  A    between atoms: CG_2  and  CB_4
REMARK    4  A    between atoms: CB_4  and  CA_5
REMARK    5  A    between atoms: C_9  and  C_10
REMARK    6  A    between atoms: N_21  and  C_22
REMARK    7  A    between atoms: C_22  and  C_23
REMARK    8  A    between atoms: C_22  and  C_29
REMARK    9  A    between atoms: N_25  and  C_26
REMARK   10  A    between atoms: C_26  and  C_27
REMARK   11  A    between atoms: C_26  and  C_28
REMARK                            x       y       z     vdW  Elec       q    Type
REMARK                         _______ _______ _______ _____ _____    ______ ____
ROOT
ATOM      1  CA  LEU A   2      -5.373   2.983 126.258  0.00  0.00    +0.000 C 
ATOM      2  C   LEU A   2      -5.878   3.174 124.823  0.00  0.00    +0.000 C 
ATOM      3  O   LEU A   2      -5.315   3.753 123.918  0.00  0.00    +0.000 OA
ATOM      4  N   UNK A   1      -7.027   2.491 124.600  0.00  0.00    +0.000 N 
ATOM      5  C   UNK A   1      -7.635   1.634 125.599  0.00  0.00    +0.000 C 
ATOM      6  C   UNK A   1      -7.646   2.341 126.964  0.00  0.00    +0.000 C 
ATOM      7  O   UNK A   1      -8.566   2.109 127.719  0.00  0.00    +0.000 OA
ATOM      8  N   LEU A   2      -6.535   3.155 127.224  0.00  0.00    +0.000 N 
ATOM      9  H   UNK A   1      -7.338   2.527 123.638  0.00  0.00    +0.000 HD
ENDROOT
BRANCH   5  10
ATOM     10  C   UNK A   1      -9.111   1.315 125.274  0.00  0.00    +0.000 C 
ATOM     11  C   UNK A   1      -9.606   0.110 126.083  0.00  0.00    +0.000 C 
ATOM     12  C   UNK A   1      -9.271  -1.013 125.150  0.00  0.00    +0.000 A 
ATOM     13  C   UNK A   1      -9.022  -2.331 125.479  0.00  0.00    +0.000 A 
ATOM     14  C   UNK A   1      -8.579  -3.188 124.471  0.00  0.00    +0.000 A 
ATOM     15  C   UNK A   1      -8.380  -2.720 123.161  0.00  0.00    +0.000 A 
ATOM     16  C   UNK A   1      -8.620  -1.384 122.836  0.00  0.00    +0.000 A 
ATOM     17  C   UNK A   1      -9.075  -0.546 123.840  0.00  0.00    +0.000 A 
ATOM     18  C   UNK A   1      -9.281   0.936 123.774  0.00  0.00    +0.000 C 
ENDBRANCH   5  10
BRANCH   1  19
ATOM     19  CB  LEU A   2      -4.249   3.948 126.456  0.00  0.00    +0.000 C 
BRANCH  19  21
ATOM     20  CD1 LEU A   2      -1.899   3.206 126.409  0.00  0.00    +0.000 C 
ATOM     21  CG  LEU A   2      -3.047   3.691 127.316  0.00  0.00    +0.000 C 
ATOM     22  CD2 LEU A   2      -2.659   5.037 127.925  0.00  0.00    +0.000 C 
ENDBRANCH  19  21
ENDBRANCH   1  19
BRANCH   8  23
ATOM     23  C   UNK A   0      -6.509   4.131 128.408  0.00  0.00    +0.000 C 
BRANCH  23  24
ATOM     24  C   UNK A   0      -5.800   3.566 129.678  0.00  0.00    +0.000 A 
ATOM     25  C   UNK A   0      -5.600   2.242 130.031  0.00  0.00    +0.000 A 
ATOM     26  C   UNK A   0      -4.716   2.039 131.095  0.00  0.00    +0.000 A 
ATOM     27 BR   UNK A   0      -4.274   0.279 131.599  0.00  0.00    +0.000 Br
ATOM     28  C   UNK A   0      -4.247   3.210 131.618  0.00  0.00    +0.000 A 
ATOM     29  S   UNK A   0      -5.128   4.553 130.960  0.00  0.00    +0.000 S 
ENDBRANCH  23  24
BRANCH  23  30
ATOM     30  C   UNK A   0      -8.031   4.636 128.856  0.00  0.00    +0.000 C 
ATOM     31  O   UNK A   0      -8.746   5.370 128.174  0.00  0.00    +0.000 OA
ATOM     32  N   UNK A   0      -8.619   4.220 130.032  0.00  0.00    +0.000 N 
ATOM     33  H   UNK A   0      -8.483   3.280 130.344  0.00  0.00    +0.000 HD
BRANCH  32  34
ATOM     34  C   UNK A   0      -9.929   4.630 130.489  0.00  0.00    +0.000 C 
ATOM     35  C   UNK A   0     -10.800   3.385 130.503  0.00  0.00    +0.000 C 
ATOM     36  C   UNK A   0      -9.805   5.185 131.914  0.00  0.00    +0.000 C 
ENDBRANCH  32  34
ENDBRANCH  23  30
ENDBRANCH   8  23
TORSDOF 7
ENDMDL
MODEL 7
REMARK VINA RESULT:      -7.7      3.682      6.605
REMARK  Name = CHEMBL257660
REMARK  11 active torsions:
REMARK  status: ('A' for Active; 'I' for Inactive)
REMARK    1  A    between atoms: CD1_1  and  CG_2
REMARK    2  A    between atoms: CG_2  and  CD2_3
REMARK    3  A    between atoms: CG_2  and  CB_4
REMARK    4  A    between atoms: CB_4  and  CA_5
REMARK    5  A    between atoms: C_9  and  C_10
REMARK    6  A    between atoms: N_21  and  C_22
REMARK    7  A    between atoms: C_22  and  C_23
REMARK    8  A    between atoms: C_22  and  C_29
REMARK    9  A    between atoms: N_25  and  C_26
REMARK   10  A    between atoms: C_26  and  C_27
REMARK   11  A    between atoms: C_26  and  C_28
REMARK                            x       y       z     vdW  Elec       q    Type
REMARK                         _______ _______ _______ _____ _____    ______ ____
ROOT
ATOM      1  CA  LEU A   2      -4.749   2.016 128.370  0.00  0.00    +0.000 C 
ATOM      2  C   LEU A   2      -5.322   0.925 127.458  0.00  0.00    +0.000 C 
ATOM      3  O   LEU A   2      -5.006   0.685 126.312  0.00  0.00    +0.000 OA
ATOM      4  N   UNK A   1      -6.183   0.116 128.124  0.00  0.00    +0.000 N 
ATOM      5  C   UNK A   1      -6.446   0.252 129.542  0.00  0.00    +0.000 C 
ATOM      6  C   UNK A   1      -6.660   1.731 129.900  0.00  0.00    +0.000 C 
ATOM      7  O   UNK A   1      -7.433   1.995 130.797  0.00  0.00    +0.000 OA
ATOM      8  N   LEU A   2      -5.879   2.640 129.174  0.00  0.00    +0.000 N 
ATOM      9  H   UNK A   1      -6.511  -0.666 127.571  0.00  0.00    +0.000 HD
ENDROOT
BRANCH   5  10
ATOM     10  C   UNK A   1      -7.739  -0.480 129.969  0.00  0.00    +0.000 C 
ATOM     11  C   UNK A   1      -7.683  -0.883 131.447  0.00  0.00    +0.000 C 
ATOM     12  C   UNK A   1      -7.074  -2.247 131.345  0.00  0.00    +0.000 A 
ATOM     13  C   UNK A   1      -6.338  -2.912 132.306  0.00  0.00    +0.000 A 
ATOM     14  C   UNK A   1      -5.732  -4.117 131.954  0.00  0.00    +0.000 A 
ATOM     15  C   UNK A   1      -5.855  -4.635 130.653  0.00  0.00    +0.000 A 
ATOM     16  C   UNK A   1      -6.587  -3.953 129.680  0.00  0.00    +0.000 A 
ATOM     17  C   UNK A   1      -7.199  -2.765 130.045  0.00  0.00    +0.000 A 
ATOM     18  C   UNK A   1      -7.924  -1.798 129.161  0.00  0.00    +0.000 C 
ENDBRANCH   5  10
BRANCH   1  19
ATOM     19  CB  LEU A   2      -4.007   2.971 127.492  0.00  0.00    +0.000 C 
BRANCH  19  21
ATOM     20  CD1 LEU A   2      -1.746   3.048 126.514  0.00  0.00    +0.000 C 
ATOM     21  CG  LEU A   2      -2.602   3.437 127.735  0.00  0.00    +0.000 C 
ATOM     22  CD2 LEU A   2      -2.664   4.960 127.830  0.00  0.00    +0.000 C 
ENDBRANCH  19  21
ENDBRANCH   1  19
BRANCH   8  23
ATOM     23  C   UNK A   0      -6.153   4.150 129.213  0.00  0.00    +0.000 C 
BRANCH  23  24
ATOM     24  C   UNK A   0      -5.547   4.871 130.457  0.00  0.00    +0.000 A 
ATOM     25  C   UNK A   0      -4.809   4.321 131.491  0.00  0.00    +0.000 A 
ATOM     26  C   UNK A   0      -4.188   5.248 132.334  0.00  0.00    +0.000 A 
ATOM     27 BR   UNK A   0      -3.064   4.627 133.712  0.00  0.00    +0.000 Br
ATOM     28  C   UNK A   0      -4.471   6.540 131.993  0.00  0.00    +0.000 A 
ATOM     29  S   UNK A   0      -5.731   6.579 130.800  0.00  0.00    +0.000 S 
ENDBRANCH  23  24
BRANCH  23  30
ATOM     30  C   UNK A   0      -7.777   4.509 129.155  0.00  0.00    +0.000 C 
ATOM     31  O   UNK A   0      -8.405   4.713 128.116  0.00  0.00    +0.000 OA
ATOM     32  N   UNK A   0      -8.552   4.561 130.295  0.00  0.00    +0.000 N 
ATOM     33  H   UNK A   0      -8.389   3.905 131.031  0.00  0.00    +0.000 HD
BRANCH  32  34
ATOM     34  C   UNK A   0      -9.962   4.880 130.320  0.00  0.00    +0.000 C 
ATOM     35  C   UNK A   0     -10.706   3.573 130.536  0.00  0.00    +0.000 C 
ATOM     36  C   UNK A   0     -10.236   5.827 131.496  0.00  0.00    +0.000 C 
ENDBRANCH  32  34
ENDBRANCH  23  30
ENDBRANCH   8  23
TORSDOF 7
ENDMDL
MODEL 8
REMARK VINA RESULT:      -7.7      3.841      5.817
REMARK  Name = CHEMBL257660
REMARK  11 active torsions:
REMARK  status: ('A' for Active; 'I' for Inactive)
REMARK    1  A    between atoms: CD1_1  and  CG_2
REMARK    2  A    between atoms: CG_2  and  CD2_3
REMARK    3  A    between atoms: CG_2  and  CB_4
REMARK    4  A    between atoms: CB_4  and  CA_5
REMARK    5  A    between atoms: C_9  and  C_10
REMARK    6  A    between atoms: N_21  and  C_22
REMARK    7  A    between atoms: C_22  and  C_23
REMARK    8  A    between atoms: C_22  and  C_29
REMARK    9  A    between atoms: N_25  and  C_26
REMARK   10  A    between atoms: C_26  and  C_27
REMARK   11  A    between atoms: C_26  and  C_28
REMARK                            x       y       z     vdW  Elec       q    Type
REMARK                         _______ _______ _______ _____ _____    ______ ____
ROOT
ATOM      1  CA  LEU A   2      -6.673   5.932 132.209  0.00  0.00    +0.000 C 
ATOM      2  C   LEU A   2      -8.073   5.726 132.797  0.00  0.00    +0.000 C 
ATOM      3  O   LEU A   2      -8.379   5.688 133.971  0.00  0.00    +0.000 OA
ATOM      4  N   UNK A   1      -9.026   5.714 131.832  0.00  0.00    +0.000 N 
ATOM      5  C   UNK A   1      -8.726   5.944 130.433  0.00  0.00    +0.000 C 
ATOM      6  C   UNK A   1      -7.483   5.139 130.021  0.00  0.00    +0.000 C 
ATOM      7  O   UNK A   1      -7.426   4.721 128.883  0.00  0.00    +0.000 OA
ATOM      8  N   LEU A   2      -6.496   5.017 131.008  0.00  0.00    +0.000 N 
ATOM      9  H   UNK A   1      -9.969   5.667 132.197  0.00  0.00    +0.000 HD
ENDROOT
BRANCH   5  10
ATOM     10  C   UNK A   1      -9.867   5.470 129.506  0.00  0.00    +0.000 C 
ATOM     11  C   UNK A   1     -10.227   6.549 128.478  0.00  0.00    +0.000 C 
ATOM     12  C   UNK A   1     -11.289   7.301 129.220  0.00  0.00    +0.000 A 
ATOM     13  C   UNK A   1     -11.654   8.622 129.052  0.00  0.00    +0.000 A 
ATOM     14  C   UNK A   1     -12.568   9.172 129.951  0.00  0.00    +0.000 A 
ATOM     15  C   UNK A   1     -13.092   8.407 131.006  0.00  0.00    +0.000 A 
ATOM     16  C   UNK A   1     -12.710   7.076 131.180  0.00  0.00    +0.000 A 
ATOM     17  C   UNK A   1     -11.815   6.535 130.273  0.00  0.00    +0.000 A 
ATOM     18  C   UNK A   1     -11.163   5.188 130.319  0.00  0.00    +0.000 C 
ENDBRANCH   5  10
BRANCH   1  19
ATOM     19  CB  LEU A   2      -5.698   5.701 133.318  0.00  0.00    +0.000 C 
BRANCH  19  21
ATOM     20  CD1 LEU A   2      -4.454   6.725 135.184  0.00  0.00    +0.000 C 
ATOM     21  CG  LEU A   2      -4.553   6.612 133.649  0.00  0.00    +0.000 C 
ATOM     22  CD2 LEU A   2      -3.292   5.929 133.123  0.00  0.00    +0.000 C 
ENDBRANCH  19  21
ENDBRANCH   1  19
BRANCH   8  23
ATOM     23  C   UNK A   0      -5.324   4.035 130.861  0.00  0.00    +0.000 C 
BRANCH  23  24
ATOM     24  C   UNK A   0      -4.305   4.430 129.748  0.00  0.00    +0.000 A 
ATOM     25  C   UNK A   0      -3.514   3.597 128.974  0.00  0.00    +0.000 A 
ATOM     26  C   UNK A   0      -2.886   4.216 127.889  0.00  0.00    +0.000 A 
ATOM     27 BR   UNK A   0      -1.873   3.169 126.696  0.00  0.00    +0.000 Br
ATOM     28  C   UNK A   0      -3.144   5.555 127.827  0.00  0.00    +0.000 A 
ATOM     29  S   UNK A   0      -3.937   6.078 129.279  0.00  0.00    +0.000 S 
ENDBRANCH  23  24
BRANCH  23  30
ATOM     30  C   UNK A   0      -5.827   2.477 130.563  0.00  0.00    +0.000 C 
ATOM     31  O   UNK A   0      -5.898   1.596 131.419  0.00  0.00    +0.000 OA
ATOM     32  N   UNK A   0      -6.247   2.074 129.311  0.00  0.00    +0.000 N 
ATOM     33  H   UNK A   0      -6.780   2.703 128.746  0.00  0.00    +0.000 HD
BRANCH  32  34
ATOM     34  C   UNK A   0      -6.682   0.736 128.979  0.00  0.00    +0.000 C 
ATOM     35  C   UNK A   0      -8.005   0.872 128.243  0.00  0.00    +0.000 C 
ATOM     36  C   UNK A   0      -5.642   0.092 128.052  0.00  0.00    +0.000 C 
ENDBRANCH  32  34
ENDBRANCH  23  30
ENDBRANCH   8  23
TORSDOF 7
ENDMDL
MODEL 9
REMARK VINA RESULT:      -7.6      2.810      7.270
REMARK  Name = CHEMBL257660
REMARK  11 active torsions:
REMARK  status: ('A' for Active; 'I' for Inactive)
REMARK    1  A    between atoms: CD1_1  and  CG_2
REMARK    2  A    between atoms: CG_2  and  CD2_3
REMARK    3  A    between atoms: CG_2  and  CB_4
REMARK    4  A    between atoms: CB_4  and  CA_5
REMARK    5  A    between atoms: C_9  and  C_10
REMARK    6  A    between atoms: N_21  and  C_22
REMARK    7  A    between atoms: C_22  and  C_23
REMARK    8  A    between atoms: C_22  and  C_29
REMARK    9  A    between atoms: N_25  and  C_26
REMARK   10  A    between atoms: C_26  and  C_27
REMARK   11  A    between atoms: C_26  and  C_28
REMARK                            x       y       z     vdW  Elec       q    Type
REMARK                         _______ _______ _______ _____ _____    ______ ____
ROOT
ATOM      1  CA  LEU A   2      -8.080   0.943 129.685  0.00  0.00    +0.000 C 
ATOM      2  C   LEU A   2      -7.516  -0.240 128.890  0.00  0.00    +0.000 C 
ATOM      3  O   LEU A   2      -7.011  -1.250 129.335  0.00  0.00    +0.000 OA
ATOM      4  N   UNK A   1      -7.755  -0.113 127.562  0.00  0.00    +0.000 N 
ATOM      5  C   UNK A   1      -8.520   0.986 127.006  0.00  0.00    +0.000 C 
ATOM      6  C   UNK A   1      -8.069   2.313 127.636  0.00  0.00    +0.000 C 
ATOM      7  O   UNK A   1      -8.112   3.314 126.951  0.00  0.00    +0.000 OA
ATOM      8  N   LEU A   2      -7.702   2.239 128.987  0.00  0.00    +0.000 N 
ATOM      9  H   UNK A   1      -7.471  -0.920 127.021  0.00  0.00    +0.000 HD
ENDROOT
BRANCH   5  10
ATOM     10  C   UNK A   1      -8.298   1.141 125.485  0.00  0.00    +0.000 C 
ATOM     11  C   UNK A   1      -9.296   0.288 124.693  0.00  0.00    +0.000 C 
ATOM     12  C   UNK A   1      -8.531  -0.993 124.563  0.00  0.00    +0.000 A 
ATOM     13  C   UNK A   1      -9.045  -2.264 124.395  0.00  0.00    +0.000 A 
ATOM     14  C   UNK A   1      -8.162  -3.343 124.448  0.00  0.00    +0.000 A 
ATOM     15  C   UNK A   1      -6.791  -3.143 124.678  0.00  0.00    +0.000 A 
ATOM     16  C   UNK A   1      -6.278  -1.859 124.862  0.00  0.00    +0.000 A 
ATOM     17  C   UNK A   1      -7.159  -0.793 124.792  0.00  0.00    +0.000 A 
ATOM     18  C   UNK A   1      -6.879   0.650 125.077  0.00  0.00    +0.000 C 
ENDBRANCH   5  10
BRANCH   1  19
ATOM     19  CB  LEU A   2      -7.566   0.813 131.082  0.00  0.00    +0.000 C 
BRANCH  19  21
ATOM     20  CD1 LEU A   2      -7.704   2.088 133.187  0.00  0.00    +0.000 C 
ATOM     21  CG  LEU A   2      -8.393   1.019 132.317  0.00  0.00    +0.000 C 
ATOM     22  CD2 LEU A   2      -9.742   1.560 131.847  0.00  0.00    +0.000 C 
ENDBRANCH  19  21
ENDBRANCH   1  19
BRANCH   8  23
ATOM     23  C   UNK A   0      -6.983   3.398 129.692  0.00  0.00    +0.000 C 
BRANCH  23  24
ATOM     24  C   UNK A   0      -7.946   4.484 130.266  0.00  0.00    +0.000 A 
ATOM     25  C   UNK A   0      -9.222   4.811 129.838  0.00  0.00    +0.000 A 
ATOM     26  C   UNK A   0      -9.938   5.648 130.699  0.00  0.00    +0.000 A 
ATOM     27 BR   UNK A   0     -11.726   6.076 130.285  0.00  0.00    +0.000 Br
ATOM     28  C   UNK A   0      -9.212   6.023 131.792  0.00  0.00    +0.000 A 
ATOM     29  S   UNK A   0      -7.553   5.555 131.595  0.00  0.00    +0.000 S 
ENDBRANCH  23  24
BRANCH  23  30
ATOM     30  C   UNK A   0      -5.880   4.163 128.707  0.00  0.00    +0.000 C 
ATOM     31  O   UNK A   0      -5.721   5.383 128.662  0.00  0.00    +0.000 OA
ATOM     32  N   UNK A   0      -5.024   3.457 127.888  0.00  0.00    +0.000 N 
ATOM     33  H   UNK A   0      -4.630   2.598 128.213  0.00  0.00    +0.000 HD
BRANCH  32  34
ATOM     34  C   UNK A   0      -4.054   4.055 126.998  0.00  0.00    +0.000 C 
ATOM     35  C   UNK A   0      -2.751   3.296 127.192  0.00  0.00    +0.000 C 
ATOM     36  C   UNK A   0      -4.537   3.887 125.552  0.00  0.00    +0.000 C 
ENDBRANCH  32  34
ENDBRANCH  23  30
ENDBRANCH   8  23
TORSDOF 7
ENDMDL
