MODEL 1
REMARK VINA RESULT:      -8.2      0.000      0.000
REMARK  Name = CHEMBL209917
REMARK  9 active torsions:
REMARK  status: ('A' for Active; 'I' for Inactive)
REMARK    1  A    between atoms: CD1_1  and  CG_2
REMARK    2  A    between atoms: CG_2  and  CD2_3
REMARK    3  A    between atoms: CG_2  and  CB_4
REMARK    4  A    between atoms: CB_4  and  CA_5
REMARK    5  A    between atoms: CA_9  and  C_10
REMARK    6  A    between atoms: N_21  and  CA_22
REMARK    7  A    between atoms: CA_22  and  C_23
REMARK    8  A    between atoms: CA_22  and  C_25
REMARK    9  A    between atoms: C_23  and  O_24
REMARK                            x       y       z     vdW  Elec       q    Type
REMARK                         _______ _______ _______ _____ _____    ______ ____
ROOT
ATOM      1  CA  UNL     1      -7.359   2.572 125.563  0.00  0.00    +0.000 C 
ATOM      2  C   UNL     1      -7.384   3.928 126.302  0.00  0.00    +0.000 C 
ATOM      3  O   UNL     1      -7.412   5.023 125.793  0.00  0.00    +0.000 OA
ATOM      4  N   UNL     1      -7.415   3.799 127.655  0.00  0.00    +0.000 N 
ATOM      5  CA  UNL     1      -8.206   2.737 128.209  0.00  0.00    +0.000 C 
ATOM      6  C   UNL     1      -7.669   1.396 127.717  0.00  0.00    +0.000 C 
ATOM      7  O   UNL     1      -7.850   0.437 128.458  0.00  0.00    +0.000 OA
ATOM      8  N   UNL     1      -7.050   1.374 126.449  0.00  0.00    +0.000 N 
ATOM      9  H   UNL     1      -7.353   4.692 128.125  0.00  0.00    +0.000 HD
ENDROOT
BRANCH   5  10
ATOM     10  C   UNL     1      -8.179   2.705 129.757  0.00  0.00    +0.000 C 
ATOM     11  C   UNL     1      -9.601   2.723 130.339  0.00  0.00    +0.000 C 
ATOM     12  C   UNL     1      -9.827   4.198 130.476  0.00  0.00    +0.000 A 
ATOM     13  C   UNL     1     -11.037   4.865 130.485  0.00  0.00    +0.000 A 
ATOM     14  C   UNL     1     -11.016   6.261 130.478  0.00  0.00    +0.000 A 
ATOM     15  C   UNL     1      -9.801   6.965 130.454  0.00  0.00    +0.000 A 
ATOM     16  C   UNL     1      -8.583   6.285 130.435  0.00  0.00    +0.000 A 
ATOM     17  C   UNL     1      -8.613   4.901 130.454  0.00  0.00    +0.000 A 
ATOM     18  C   UNL     1      -7.458   3.957 130.325  0.00  0.00    +0.000 C 
ENDBRANCH   5  10
BRANCH   1  19
ATOM     19  CB  UNL     1      -6.428   2.768 124.358  0.00  0.00    +0.000 C 
BRANCH  19  21
ATOM     20  CD1 UNL     1      -8.629   2.701 122.975  0.00  0.00    +0.000 C 
ATOM     21  CG  UNL     1      -7.097   2.589 122.947  0.00  0.00    +0.000 C 
ATOM     22  CD2 UNL     1      -6.601   3.507 121.840  0.00  0.00    +0.000 C 
ENDBRANCH  19  21
ENDBRANCH   1  19
BRANCH   8  23
ATOM     23  CA  UNL     1      -6.471   0.061 125.894  0.00  0.00    +0.000 C 
BRANCH  23  24
ATOM     24  C   UNL     1      -7.490  -0.832 125.141  0.00  0.00    +0.000 A 
ATOM     25  C   UNL     1      -8.483  -1.528 125.850  0.00  0.00    +0.000 A 
ATOM     26  C   UNL     1      -9.245  -2.501 125.193  0.00  0.00    +0.000 A 
ATOM     27  C   UNL     1      -9.125  -2.683 123.818  0.00  0.00    +0.000 A 
ATOM     28  F   UNL     1      -9.866  -3.604 123.193  0.00  0.00    +0.000 F 
ATOM     29  C   UNL     1      -8.234  -1.949 123.078  0.00  0.00    +0.000 A 
ATOM     30  C   UNL     1      -7.405  -1.079 123.741  0.00  0.00    +0.000 A 
ATOM     31  F   UNL     1      -6.499  -0.494 122.942  0.00  0.00    +0.000 F 
ENDBRANCH  23  24
BRANCH  23  32
ATOM     32  C   UNL     1      -5.908  -0.911 126.966  0.00  0.00    +0.000 C 
BRANCH  32  33
ATOM     33  O   UNL     1      -4.870  -0.523 127.823  0.00  0.00    +0.000 OA
ATOM     34  H   UNL     1      -5.193  -0.300 128.701  0.00  0.00    +0.000 HD
ENDBRANCH  32  33
ENDBRANCH  23  32
ENDBRANCH   8  23
TORSDOF 7
ENDMDL
MODEL 2
REMARK VINA RESULT:      -8.1      3.675      8.451
REMARK  Name = CHEMBL209917
REMARK  9 active torsions:
REMARK  status: ('A' for Active; 'I' for Inactive)
REMARK    1  A    between atoms: CD1_1  and  CG_2
REMARK    2  A    between atoms: CG_2  and  CD2_3
REMARK    3  A    between atoms: CG_2  and  CB_4
REMARK    4  A    between atoms: CB_4  and  CA_5
REMARK    5  A    between atoms: CA_9  and  C_10
REMARK    6  A    between atoms: N_21  and  CA_22
REMARK    7  A    between atoms: CA_22  and  C_23
REMARK    8  A    between atoms: CA_22  and  C_25
REMARK    9  A    between atoms: C_23  and  O_24
REMARK                            x       y       z     vdW  Elec       q    Type
REMARK                         _______ _______ _______ _____ _____    ______ ____
ROOT
ATOM      1  CA  UNL     1      -9.452   2.486 131.360  0.00  0.00    +0.000 C 
ATOM      2  C   UNL     1      -8.781   1.123 131.081  0.00  0.00    +0.000 C 
ATOM      3  O   UNL     1      -8.894   0.118 131.741  0.00  0.00    +0.000 OA
ATOM      4  N   UNL     1      -8.036   1.117 129.944  0.00  0.00    +0.000 N 
ATOM      5  CA  UNL     1      -8.535   1.845 128.812  0.00  0.00    +0.000 C 
ATOM      6  C   UNL     1      -8.656   3.323 129.172  0.00  0.00    +0.000 C 
ATOM      7  O   UNL     1      -8.546   4.116 128.245  0.00  0.00    +0.000 OA
ATOM      8  N   UNL     1      -8.917   3.638 130.523  0.00  0.00    +0.000 N 
ATOM      9  H   UNL     1      -7.542   0.245 129.816  0.00  0.00    +0.000 HD
ENDROOT
BRANCH   5  10
ATOM     10  C   UNL     1      -7.612   1.747 127.573  0.00  0.00    +0.000 C 
ATOM     11  C   UNL     1      -8.415   1.425 126.303  0.00  0.00    +0.000 C 
ATOM     12  C   UNL     1      -8.378  -0.073 126.321  0.00  0.00    +0.000 A 
ATOM     13  C   UNL     1      -9.285  -0.942 125.746  0.00  0.00    +0.000 A 
ATOM     14  C   UNL     1      -9.141  -2.306 126.007  0.00  0.00    +0.000 A 
ATOM     15  C   UNL     1      -8.109  -2.778 126.835  0.00  0.00    +0.000 A 
ATOM     16  C   UNL     1      -7.203  -1.893 127.420  0.00  0.00    +0.000 A 
ATOM     17  C   UNL     1      -7.346  -0.544 127.147  0.00  0.00    +0.000 A 
ATOM     18  C   UNL     1      -6.580   0.598 127.740  0.00  0.00    +0.000 C 
ENDBRANCH   5  10
BRANCH   1  19
ATOM     19  CB  UNL     1      -9.390   2.681 132.882  0.00  0.00    +0.000 C 
BRANCH  19  21
ATOM     20  CD1 UNL     1      -8.248   4.293 134.573  0.00  0.00    +0.000 C 
ATOM     21  CG  UNL     1      -8.046   3.281 133.435  0.00  0.00    +0.000 C 
ATOM     22  CD2 UNL     1      -7.001   2.281 133.905  0.00  0.00    +0.000 C 
ENDBRANCH  19  21
ENDBRANCH   1  19
BRANCH   8  23
ATOM     23  CA  UNL     1      -9.037   5.107 130.964  0.00  0.00    +0.000 C 
BRANCH  23  24
ATOM     24  C   UNL     1     -10.080   5.940 130.177  0.00  0.00    +0.000 A 
ATOM     25  C   UNL     1      -9.753   7.222 129.703  0.00  0.00    +0.000 A 
ATOM     26  C   UNL     1     -10.764   8.049 129.199  0.00  0.00    +0.000 A 
ATOM     27  C   UNL     1     -12.057   7.562 129.032  0.00  0.00    +0.000 A 
ATOM     28  F   UNL     1     -13.015   8.352 128.536  0.00  0.00    +0.000 F 
ATOM     29  C   UNL     1     -12.387   6.281 129.392  0.00  0.00    +0.000 A 
ATOM     30  C   UNL     1     -11.425   5.510 129.995  0.00  0.00    +0.000 A 
ATOM     31  F   UNL     1     -11.881   4.316 130.406  0.00  0.00    +0.000 F 
ENDBRANCH  23  24
BRANCH  23  32
ATOM     32  C   UNL     1      -7.743   5.950 130.793  0.00  0.00    +0.000 C 
BRANCH  32  33
ATOM     33  O   UNL     1      -7.058   6.459 131.903  0.00  0.00    +0.000 OA
ATOM     34  H   UNL     1      -7.595   6.433 132.701  0.00  0.00    +0.000 HD
ENDBRANCH  32  33
ENDBRANCH  23  32
ENDBRANCH   8  23
TORSDOF 7
ENDMDL
MODEL 3
REMARK VINA RESULT:      -8.0      3.409      8.189
REMARK  Name = CHEMBL209917
REMARK  9 active torsions:
REMARK  status: ('A' for Active; 'I' for Inactive)
REMARK    1  A    between atoms: CD1_1  and  CG_2
REMARK    2  A    between atoms: CG_2  and  CD2_3
REMARK    3  A    between atoms: CG_2  and  CB_4
REMARK    4  A    between atoms: CB_4  and  CA_5
REMARK    5  A    between atoms: CA_9  and  C_10
REMARK    6  A    between atoms: N_21  and  CA_22
REMARK    7  A    between atoms: CA_22  and  C_23
REMARK    8  A    between atoms: CA_22  and  C_25
REMARK    9  A    between atoms: C_23  and  O_24
REMARK                            x       y       z     vdW  Elec       q    Type
REMARK                         _______ _______ _______ _____ _____    ______ ____
ROOT
ATOM      1  CA  UNL     1      -7.982   3.059 130.330  0.00  0.00    +0.000 C 
ATOM      2  C   UNL     1      -6.915   2.216 129.596  0.00  0.00    +0.000 C 
ATOM      3  O   UNL     1      -6.436   1.175 129.977  0.00  0.00    +0.000 OA
ATOM      4  N   UNL     1      -6.556   2.738 128.393  0.00  0.00    +0.000 N 
ATOM      5  CA  UNL     1      -7.584   3.337 127.590  0.00  0.00    +0.000 C 
ATOM      6  C   UNL     1      -8.192   4.517 128.342  0.00  0.00    +0.000 C 
ATOM      7  O   UNL     1      -8.658   5.416 127.652  0.00  0.00    +0.000 OA
ATOM      8  N   UNL     1      -8.196   4.450 129.752  0.00  0.00    +0.000 N 
ATOM      9  H   UNL     1      -5.804   2.219 127.962  0.00  0.00    +0.000 HD
ENDROOT
BRANCH   5  10
ATOM     10  C   UNL     1      -7.058   3.876 126.236  0.00  0.00    +0.000 C 
ATOM     11  C   UNL     1      -8.199   4.045 125.222  0.00  0.00    +0.000 C 
ATOM     12  C   UNL     1      -8.195   2.696 124.569  0.00  0.00    +0.000 A 
ATOM     13  C   UNL     1      -9.249   2.065 123.938  0.00  0.00    +0.000 A 
ATOM     14  C   UNL     1      -9.069   0.745 123.523  0.00  0.00    +0.000 A 
ATOM     15  C   UNL     1      -7.855   0.075 123.749  0.00  0.00    +0.000 A 
ATOM     16  C   UNL     1      -6.797   0.716 124.396  0.00  0.00    +0.000 A 
ATOM     17  C   UNL     1      -6.981   2.028 124.794  0.00  0.00    +0.000 A 
ATOM     18  C   UNL     1      -6.049   2.882 125.598  0.00  0.00    +0.000 C 
ENDBRANCH   5  10
BRANCH   1  19
ATOM     19  CB  UNL     1      -7.609   3.004 131.818  0.00  0.00    +0.000 C 
BRANCH  19  21
ATOM     20  CD1 UNL     1      -9.302   3.573 133.709  0.00  0.00    +0.000 C 
ATOM     21  CG  UNL     1      -8.737   2.486 132.782  0.00  0.00    +0.000 C 
ATOM     22  CD2 UNL     1      -9.924   1.796 132.127  0.00  0.00    +0.000 C 
ENDBRANCH  19  21
ENDBRANCH   1  19
BRANCH   8  23
ATOM     23  CA  UNL     1      -8.780   5.609 130.579  0.00  0.00    +0.000 C 
BRANCH  23  24
ATOM     24  C   UNL     1     -10.072   6.236 129.999  0.00  0.00    +0.000 A 
ATOM     25  C   UNL     1     -10.087   7.581 129.591  0.00  0.00    +0.000 A 
ATOM     26  C   UNL     1     -11.307   8.195 129.286  0.00  0.00    +0.000 A 
ATOM     27  C   UNL     1     -12.483   7.451 129.245  0.00  0.00    +0.000 A 
ATOM     28  F   UNL     1     -13.643   8.039 128.939  0.00  0.00    +0.000 F 
ATOM     29  C   UNL     1     -12.487   6.111 129.541  0.00  0.00    +0.000 A 
ATOM     30  C   UNL     1     -11.311   5.536 129.954  0.00  0.00    +0.000 A 
ATOM     31  F   UNL     1     -11.448   4.253 130.324  0.00  0.00    +0.000 F 
ENDBRANCH  23  24
BRANCH  23  32
ATOM     32  C   UNL     1      -7.848   6.843 130.724  0.00  0.00    +0.000 C 
BRANCH  32  33
ATOM     33  O   UNL     1      -6.463   6.731 130.548  0.00  0.00    +0.000 OA
ATOM     34  H   UNL     1      -6.219   5.896 130.136  0.00  0.00    +0.000 HD
ENDBRANCH  32  33
ENDBRANCH  23  32
ENDBRANCH   8  23
TORSDOF 7
ENDMDL
MODEL 4
REMARK VINA RESULT:      -7.8      1.760      2.201
REMARK  Name = CHEMBL209917
REMARK  9 active torsions:
REMARK  status: ('A' for Active; 'I' for Inactive)
REMARK    1  A    between atoms: CD1_1  and  CG_2
REMARK    2  A    between atoms: CG_2  and  CD2_3
REMARK    3  A    between atoms: CG_2  and  CB_4
REMARK    4  A    between atoms: CB_4  and  CA_5
REMARK    5  A    between atoms: CA_9  and  C_10
REMARK    6  A    between atoms: N_21  and  CA_22
REMARK    7  A    between atoms: CA_22  and  C_23
REMARK    8  A    between atoms: CA_22  and  C_25
REMARK    9  A    between atoms: C_23  and  O_24
REMARK                            x       y       z     vdW  Elec       q    Type
REMARK                         _______ _______ _______ _____ _____    ______ ____
ROOT
ATOM      1  CA  UNL     1      -7.263   2.524 126.592  0.00  0.00    +0.000 C 
ATOM      2  C   UNL     1      -7.519   4.013 126.919  0.00  0.00    +0.000 C 
ATOM      3  O   UNL     1      -7.515   4.930 126.134  0.00  0.00    +0.000 OA
ATOM      4  N   UNL     1      -7.809   4.230 128.228  0.00  0.00    +0.000 N 
ATOM      5  CA  UNL     1      -8.626   3.262 128.904  0.00  0.00    +0.000 C 
ATOM      6  C   UNL     1      -7.920   1.910 128.897  0.00  0.00    +0.000 C 
ATOM      7  O   UNL     1      -8.183   1.157 129.827  0.00  0.00    +0.000 OA
ATOM      8  N   UNL     1      -7.062   1.635 127.810  0.00  0.00    +0.000 N 
ATOM      9  H   UNL     1      -7.897   5.214 128.441  0.00  0.00    +0.000 HD
ENDROOT
BRANCH   5  10
ATOM     10  C   UNL     1      -8.904   3.629 130.382  0.00  0.00    +0.000 C 
ATOM     11  C   UNL     1     -10.412   3.662 130.674  0.00  0.00    +0.000 C 
ATOM     12  C   UNL     1     -10.725   5.095 130.367  0.00  0.00    +0.000 A 
ATOM     13  C   UNL     1     -11.941   5.625 129.979  0.00  0.00    +0.000 A 
ATOM     14  C   UNL     1     -11.979   6.968 129.601  0.00  0.00    +0.000 A 
ATOM     15  C   UNL     1     -10.815   7.754 129.607  0.00  0.00    +0.000 A 
ATOM     16  C   UNL     1      -9.589   7.209 129.990  0.00  0.00    +0.000 A 
ATOM     17  C   UNL     1      -9.562   5.880 130.374  0.00  0.00    +0.000 A 
ATOM     18  C   UNL     1      -8.364   5.048 130.713  0.00  0.00    +0.000 C 
ENDBRANCH   5  10
BRANCH   1  19
ATOM     19  CB  UNL     1      -6.126   2.510 125.560  0.00  0.00    +0.000 C 
BRANCH  19  21
ATOM     20  CD1 UNL     1      -8.076   2.081 123.893  0.00  0.00    +0.000 C 
ATOM     21  CG  UNL     1      -6.572   2.347 124.061  0.00  0.00    +0.000 C 
ATOM     22  CD2 UNL     1      -6.210   3.484 123.119  0.00  0.00    +0.000 C 
ENDBRANCH  19  21
ENDBRANCH   1  19
BRANCH   8  23
ATOM     23  CA  UNL     1      -6.304   0.298 127.743  0.00  0.00    +0.000 C 
BRANCH  23  24
ATOM     24  C   UNL     1      -7.199  -0.963 127.833  0.00  0.00    +0.000 A 
ATOM     25  C   UNL     1      -7.166  -1.777 128.977  0.00  0.00    +0.000 A 
ATOM     26  C   UNL     1      -7.800  -3.025 128.955  0.00  0.00    +0.000 A 
ATOM     27  C   UNL     1      -8.580  -3.402 127.865  0.00  0.00    +0.000 A 
ATOM     28  F   UNL     1      -9.195  -4.589 127.855  0.00  0.00    +0.000 F 
ATOM     29  C   UNL     1      -8.715  -2.586 126.771  0.00  0.00    +0.000 A 
ATOM     30  C   UNL     1      -7.998  -1.415 126.744  0.00  0.00    +0.000 A 
ATOM     31  F   UNL     1      -8.115  -0.747 125.586  0.00  0.00    +0.000 F 
ENDBRANCH  23  24
BRANCH  23  32
ATOM     32  C   UNL     1      -5.286   0.064 128.892  0.00  0.00    +0.000 C 
BRANCH  32  33
ATOM     33  O   UNL     1      -4.178   0.905 129.062  0.00  0.00    +0.000 OA
ATOM     34  H   UNL     1      -3.747   0.764 129.910  0.00  0.00    +0.000 HD
ENDBRANCH  32  33
ENDBRANCH  23  32
ENDBRANCH   8  23
TORSDOF 7
ENDMDL
MODEL 5
REMARK VINA RESULT:      -7.8      2.931      4.450
REMARK  Name = CHEMBL209917
REMARK  9 active torsions:
REMARK  status: ('A' for Active; 'I' for Inactive)
REMARK    1  A    between atoms: CD1_1  and  CG_2
REMARK    2  A    between atoms: CG_2  and  CD2_3
REMARK    3  A    between atoms: CG_2  and  CB_4
REMARK    4  A    between atoms: CB_4  and  CA_5
REMARK    5  A    between atoms: CA_9  and  C_10
REMARK    6  A    between atoms: N_21  and  CA_22
REMARK    7  A    between atoms: CA_22  and  C_23
REMARK    8  A    between atoms: CA_22  and  C_25
REMARK    9  A    between atoms: C_23  and  O_24
REMARK                            x       y       z     vdW  Elec       q    Type
REMARK                         _______ _______ _______ _____ _____    ______ ____
ROOT
ATOM      1  CA  UNL     1      -4.919   3.262 128.517  0.00  0.00    +0.000 C 
ATOM      2  C   UNL     1      -5.323   3.440 129.997  0.00  0.00    +0.000 C 
ATOM      3  O   UNL     1      -4.629   3.879 130.883  0.00  0.00    +0.000 OA
ATOM      4  N   UNL     1      -6.610   3.083 130.246  0.00  0.00    +0.000 N 
ATOM      5  CA  UNL     1      -7.598   3.403 129.255  0.00  0.00    +0.000 C 
ATOM      6  C   UNL     1      -7.257   2.688 127.951  0.00  0.00    +0.000 C 
ATOM      7  O   UNL     1      -8.203   2.419 127.219  0.00  0.00    +0.000 OA
ATOM      8  N   UNL     1      -5.893   2.438 127.690  0.00  0.00    +0.000 N 
ATOM      9  H   UNL     1      -6.836   3.131 131.230  0.00  0.00    +0.000 HD
ENDROOT
BRANCH   5  10
ATOM     10  C   UNL     1      -9.027   2.966 129.660  0.00  0.00    +0.000 C 
ATOM     11  C   UNL     1      -9.879   4.172 130.086  0.00  0.00    +0.000 C 
ATOM     12  C   UNL     1      -9.587   4.216 131.555  0.00  0.00    +0.000 A 
ATOM     13  C   UNL     1      -9.656   5.312 132.393  0.00  0.00    +0.000 A 
ATOM     14  C   UNL     1      -9.201   5.164 133.704  0.00  0.00    +0.000 A 
ATOM     15  C   UNL     1      -8.680   3.940 134.155  0.00  0.00    +0.000 A 
ATOM     16  C   UNL     1      -8.603   2.839 133.300  0.00  0.00    +0.000 A 
ATOM     17  C   UNL     1      -9.068   2.991 132.005  0.00  0.00    +0.000 A 
ATOM     18  C   UNL     1      -8.989   2.006 130.881  0.00  0.00    +0.000 C 
ENDBRANCH   5  10
BRANCH   1  19
ATOM     19  CB  UNL     1      -3.467   2.760 128.535  0.00  0.00    +0.000 C 
BRANCH  19  21
ATOM     20  CD1 UNL     1      -1.991   3.276 126.457  0.00  0.00    +0.000 C 
ATOM     21  CG  UNL     1      -2.411   3.714 127.868  0.00  0.00    +0.000 C 
ATOM     22  CD2 UNL     1      -2.783   5.187 127.788  0.00  0.00    +0.000 C 
ENDBRANCH  19  21
ENDBRANCH   1  19
BRANCH   8  23
ATOM     23  CA  UNL     1      -5.475   1.708 126.401  0.00  0.00    +0.000 C 
BRANCH  23  24
ATOM     24  C   UNL     1      -6.005   2.344 125.091  0.00  0.00    +0.000 A 
ATOM     25  C   UNL     1      -6.820   1.600 124.221  0.00  0.00    +0.000 A 
ATOM     26  C   UNL     1      -7.102   2.101 122.945  0.00  0.00    +0.000 A 
ATOM     27  C   UNL     1      -6.703   3.385 122.585  0.00  0.00    +0.000 A 
ATOM     28  F   UNL     1      -6.987   3.864 121.370  0.00  0.00    +0.000 F 
ATOM     29  C   UNL     1      -5.990   4.177 123.449  0.00  0.00    +0.000 A 
ATOM     30  C   UNL     1      -5.613   3.642 124.656  0.00  0.00    +0.000 A 
ATOM     31  F   UNL     1      -4.829   4.457 125.377  0.00  0.00    +0.000 F 
ENDBRANCH  23  24
BRANCH  23  32
ATOM     32  C   UNL     1      -5.978   0.243 126.286  0.00  0.00    +0.000 C 
BRANCH  32  33
ATOM     33  O   UNL     1      -5.176  -0.833 126.688  0.00  0.00    +0.000 OA
ATOM     34  H   UNL     1      -5.667  -1.660 126.705  0.00  0.00    +0.000 HD
ENDBRANCH  32  33
ENDBRANCH  23  32
ENDBRANCH   8  23
TORSDOF 7
ENDMDL
MODEL 6
REMARK VINA RESULT:      -7.5      4.937      7.321
REMARK  Name = CHEMBL209917
REMARK  9 active torsions:
REMARK  status: ('A' for Active; 'I' for Inactive)
REMARK    1  A    between atoms: CD1_1  and  CG_2
REMARK    2  A    between atoms: CG_2  and  CD2_3
REMARK    3  A    between atoms: CG_2  and  CB_4
REMARK    4  A    between atoms: CB_4  and  CA_5
REMARK    5  A    between atoms: CA_9  and  C_10
REMARK    6  A    between atoms: N_21  and  CA_22
REMARK    7  A    between atoms: CA_22  and  C_23
REMARK    8  A    between atoms: CA_22  and  C_25
REMARK    9  A    between atoms: C_23  and  O_24
REMARK                            x       y       z     vdW  Elec       q    Type
REMARK                         _______ _______ _______ _____ _____    ______ ____
ROOT
ATOM      1  CA  UNL     1      -7.859   2.899 130.302  0.00  0.00    +0.000 C 
ATOM      2  C   UNL     1      -8.278   3.796 129.116  0.00  0.00    +0.000 C 
ATOM      3  O   UNL     1      -8.281   3.487 127.949  0.00  0.00    +0.000 OA
ATOM      4  N   UNL     1      -8.710   5.025 129.503  0.00  0.00    +0.000 N 
ATOM      5  CA  UNL     1      -9.497   5.113 130.700  0.00  0.00    +0.000 C 
ATOM      6  C   UNL     1      -8.674   4.616 131.885  0.00  0.00    +0.000 C 
ATOM      7  O   UNL     1      -8.957   5.094 132.977  0.00  0.00    +0.000 OA
ATOM      8  N   UNL     1      -7.696   3.633 131.624  0.00  0.00    +0.000 N 
ATOM      9  H   UNL     1      -8.906   5.626 128.714  0.00  0.00    +0.000 HD
ENDROOT
BRANCH   5  10
ATOM     10  C   UNL     1      -9.947   6.559 131.025  0.00  0.00    +0.000 C 
ATOM     11  C   UNL     1     -11.477   6.660 131.111  0.00  0.00    +0.000 C 
ATOM     12  C   UNL     1     -11.816   6.985 129.688  0.00  0.00    +0.000 A 
ATOM     13  C   UNL     1     -13.005   6.735 129.029  0.00  0.00    +0.000 A 
ATOM     14  C   UNL     1     -13.060   6.988 127.658  0.00  0.00    +0.000 A 
ATOM     15  C   UNL     1     -11.938   7.474 126.967  0.00  0.00    +0.000 A 
ATOM     16  C   UNL     1     -10.737   7.714 127.636  0.00  0.00    +0.000 A 
ATOM     17  C   UNL     1     -10.695   7.471 128.998  0.00  0.00    +0.000 A 
ATOM     18  C   UNL     1      -9.506   7.542 129.905  0.00  0.00    +0.000 C 
ENDBRANCH   5  10
BRANCH   1  19
ATOM     19  CB  UNL     1      -6.632   2.111 129.820  0.00  0.00    +0.000 C 
BRANCH  19  21
ATOM     20  CD1 UNL     1      -5.692   0.067 128.514  0.00  0.00    +0.000 C 
ATOM     21  CG  UNL     1      -6.942   0.760 129.076  0.00  0.00    +0.000 C 
ATOM     22  CD2 UNL     1      -7.717  -0.284 129.865  0.00  0.00    +0.000 C 
ENDBRANCH  19  21
ENDBRANCH   1  19
BRANCH   8  23
ATOM     23  CA  UNL     1      -6.817   3.095 132.767  0.00  0.00    +0.000 C 
BRANCH  23  24
ATOM     24  C   UNL     1      -5.303   3.385 132.615  0.00  0.00    +0.000 A 
ATOM     25  C   UNL     1      -4.366   2.342 132.718  0.00  0.00    +0.000 A 
ATOM     26  C   UNL     1      -3.003   2.647 132.807  0.00  0.00    +0.000 A 
ATOM     27  C   UNL     1      -2.559   3.957 132.653  0.00  0.00    +0.000 A 
ATOM     28  F   UNL     1      -1.255   4.240 132.725  0.00  0.00    +0.000 F 
ATOM     29  C   UNL     1      -3.442   4.987 132.452  0.00  0.00    +0.000 A 
ATOM     30  C   UNL     1      -4.785   4.705 132.481  0.00  0.00    +0.000 A 
ATOM     31  F   UNL     1      -5.560   5.796 132.385  0.00  0.00    +0.000 F 
ENDBRANCH  23  24
BRANCH  23  32
ATOM     32  C   UNL     1      -6.843   1.552 132.941  0.00  0.00    +0.000 C 
BRANCH  32  33
ATOM     33  O   UNL     1      -8.036   0.873 133.218  0.00  0.00    +0.000 OA
ATOM     34  H   UNL     1      -8.198   0.160 132.594  0.00  0.00    +0.000 HD
ENDBRANCH  32  33
ENDBRANCH  23  32
ENDBRANCH   8  23
TORSDOF 7
ENDMDL
MODEL 7
REMARK VINA RESULT:      -7.5      3.313      4.826
REMARK  Name = CHEMBL209917
REMARK  9 active torsions:
REMARK  status: ('A' for Active; 'I' for Inactive)
REMARK    1  A    between atoms: CD1_1  and  CG_2
REMARK    2  A    between atoms: CG_2  and  CD2_3
REMARK    3  A    between atoms: CG_2  and  CB_4
REMARK    4  A    between atoms: CB_4  and  CA_5
REMARK    5  A    between atoms: CA_9  and  C_10
REMARK    6  A    between atoms: N_21  and  CA_22
REMARK    7  A    between atoms: CA_22  and  C_23
REMARK    8  A    between atoms: CA_22  and  C_25
REMARK    9  A    between atoms: C_23  and  O_24
REMARK                            x       y       z     vdW  Elec       q    Type
REMARK                         _______ _______ _______ _____ _____    ______ ____
ROOT
ATOM      1  CA  UNL     1      -7.578   2.802 128.676  0.00  0.00    +0.000 C 
ATOM      2  C   UNL     1      -8.095   4.108 128.032  0.00  0.00    +0.000 C 
ATOM      3  O   UNL     1      -8.203   4.332 126.851  0.00  0.00    +0.000 OA
ATOM      4  N   UNL     1      -8.485   5.036 128.946  0.00  0.00    +0.000 N 
ATOM      5  CA  UNL     1      -9.163   4.573 130.124  0.00  0.00    +0.000 C 
ATOM      6  C   UNL     1      -8.241   3.642 130.906  0.00  0.00    +0.000 C 
ATOM      7  O   UNL     1      -8.424   3.593 132.117  0.00  0.00    +0.000 OA
ATOM      8  N   UNL     1      -7.295   2.901 130.167  0.00  0.00    +0.000 N 
ATOM      9  H   UNL     1      -8.747   5.910 128.513  0.00  0.00    +0.000 HD
ENDROOT
BRANCH   5  10
ATOM     10  C   UNL     1      -9.575   5.722 131.077  0.00  0.00    +0.000 C 
ATOM     11  C   UNL     1     -11.100   5.782 131.250  0.00  0.00    +0.000 C 
ATOM     12  C   UNL     1     -11.471   6.712 130.135  0.00  0.00    +0.000 A 
ATOM     13  C   UNL     1     -12.682   6.791 129.475  0.00  0.00    +0.000 A 
ATOM     14  C   UNL     1     -12.770   7.633 128.365  0.00  0.00    +0.000 A 
ATOM     15  C   UNL     1     -11.657   8.371 127.928  0.00  0.00    +0.000 A 
ATOM     16  C   UNL     1     -10.434   8.279 128.594  0.00  0.00    +0.000 A 
ATOM     17  C   UNL     1     -10.360   7.451 129.700  0.00  0.00    +0.000 A 
ATOM     18  C   UNL     1      -9.145   7.100 130.503  0.00  0.00    +0.000 C 
ENDBRANCH   5  10
BRANCH   1  19
ATOM     19  CB  UNL     1      -6.403   2.340 127.802  0.00  0.00    +0.000 C 
BRANCH  19  21
ATOM     20  CD1 UNL     1      -5.534   0.275 126.481  0.00  0.00    +0.000 C 
ATOM     21  CG  UNL     1      -6.729   1.195 126.776  0.00  0.00    +0.000 C 
ATOM     22  CD2 UNL     1      -7.911   0.299 127.114  0.00  0.00    +0.000 C 
ENDBRANCH  19  21
ENDBRANCH   1  19
BRANCH   8  23
ATOM     23  CA  UNL     1      -6.321   1.953 130.889  0.00  0.00    +0.000 C 
BRANCH  23  24
ATOM     24  C   UNL     1      -6.570   0.445 130.632  0.00  0.00    +0.000 A 
ATOM     25  C   UNL     1      -5.536  -0.373 130.146  0.00  0.00    +0.000 A 
ATOM     26  C   UNL     1      -5.831  -1.668 129.704  0.00  0.00    +0.000 A 
ATOM     27  C   UNL     1      -7.106  -2.200 129.874  0.00  0.00    +0.000 A 
ATOM     28  F   UNL     1      -7.378  -3.442 129.463  0.00  0.00    +0.000 F 
ATOM     29  C   UNL     1      -8.115  -1.461 130.437  0.00  0.00    +0.000 A 
ATOM     30  C   UNL     1      -7.856  -0.153 130.762  0.00  0.00    +0.000 A 
ATOM     31  F   UNL     1      -8.937   0.510 131.202  0.00  0.00    +0.000 F 
ENDBRANCH  23  24
BRANCH  23  32
ATOM     32  C   UNL     1      -6.358   2.034 132.440  0.00  0.00    +0.000 C 
BRANCH  32  33
ATOM     33  O   UNL     1      -5.649   3.025 133.131  0.00  0.00    +0.000 OA
ATOM     34  H   UNL     1      -5.346   2.718 133.990  0.00  0.00    +0.000 HD
ENDBRANCH  32  33
ENDBRANCH  23  32
ENDBRANCH   8  23
TORSDOF 7
ENDMDL
MODEL 8
REMARK VINA RESULT:      -7.5      3.040      6.319
REMARK  Name = CHEMBL209917
REMARK  9 active torsions:
REMARK  status: ('A' for Active; 'I' for Inactive)
REMARK    1  A    between atoms: CD1_1  and  CG_2
REMARK    2  A    between atoms: CG_2  and  CD2_3
REMARK    3  A    between atoms: CG_2  and  CB_4
REMARK    4  A    between atoms: CB_4  and  CA_5
REMARK    5  A    between atoms: CA_9  and  C_10
REMARK    6  A    between atoms: N_21  and  CA_22
REMARK    7  A    between atoms: CA_22  and  C_23
REMARK    8  A    between atoms: CA_22  and  C_25
REMARK    9  A    between atoms: C_23  and  O_24
REMARK                            x       y       z     vdW  Elec       q    Type
REMARK                         _______ _______ _______ _____ _____    ______ ____
ROOT
ATOM      1  CA  UNL     1      -7.709   0.002 125.549  0.00  0.00    +0.000 C 
ATOM      2  C   UNL     1      -7.752  -1.142 126.587  0.00  0.00    +0.000 C 
ATOM      3  O   UNL     1      -8.031  -2.296 126.372  0.00  0.00    +0.000 OA
ATOM      4  N   UNL     1      -7.391  -0.744 127.836  0.00  0.00    +0.000 N 
ATOM      5  CA  UNL     1      -6.322   0.207 127.953  0.00  0.00    +0.000 C 
ATOM      6  C   UNL     1      -6.715   1.501 127.248  0.00  0.00    +0.000 C 
ATOM      7  O   UNL     1      -6.206   2.529 127.680  0.00  0.00    +0.000 OA
ATOM      8  N   UNL     1      -7.594   1.396 126.148  0.00  0.00    +0.000 N 
ATOM      9  H   UNL     1      -7.498  -1.483 128.517  0.00  0.00    +0.000 HD
ENDROOT
BRANCH   5  10
ATOM     10  C   UNL     1      -5.988   0.566 129.422  0.00  0.00    +0.000 C 
ATOM     11  C   UNL     1      -4.495   0.364 129.720  0.00  0.00    +0.000 C 
ATOM     12  C   UNL     1      -4.490  -1.063 130.175  0.00  0.00    +0.000 A 
ATOM     13  C   UNL     1      -3.438  -1.957 130.128  0.00  0.00    +0.000 A 
ATOM     14  C   UNL     1      -3.690  -3.286 130.472  0.00  0.00    +0.000 A 
ATOM     15  C   UNL     1      -4.978  -3.703 130.848  0.00  0.00    +0.000 A 
ATOM     16  C   UNL     1      -6.039  -2.796 130.884  0.00  0.00    +0.000 A 
ATOM     17  C   UNL     1      -5.777  -1.479 130.552  0.00  0.00    +0.000 A 
ATOM     18  C   UNL     1      -6.758  -0.357 130.407  0.00  0.00    +0.000 C 
ENDBRANCH   5  10
BRANCH   1  19
ATOM     19  CB  UNL     1      -8.910  -0.229 124.621  0.00  0.00    +0.000 C 
BRANCH  19  21
ATOM     20  CD1 UNL     1      -7.085  -0.999 122.935  0.00  0.00    +0.000 C 
ATOM     21  CG  UNL     1      -8.586  -0.940 123.256  0.00  0.00    +0.000 C 
ATOM     22  CD2 UNL     1      -9.139  -2.346 123.078  0.00  0.00    +0.000 C 
ENDBRANCH  19  21
ENDBRANCH   1  19
BRANCH   8  23
ATOM     23  CA  UNL     1      -8.047   2.660 125.397  0.00  0.00    +0.000 C 
BRANCH  23  24
ATOM     24  C   UNL     1      -7.161   3.049 124.186  0.00  0.00    +0.000 A 
ATOM     25  C   UNL     1      -5.926   3.687 124.386  0.00  0.00    +0.000 A 
ATOM     26  C   UNL     1      -5.248   4.234 123.290  0.00  0.00    +0.000 A 
ATOM     27  C   UNL     1      -5.714   4.028 121.995  0.00  0.00    +0.000 A 
ATOM     28  F   UNL     1      -5.054   4.541 120.952  0.00  0.00    +0.000 F 
ATOM     29  C   UNL     1      -6.866   3.323 121.758  0.00  0.00    +0.000 A 
ATOM     30  C   UNL     1      -7.592   2.887 122.838  0.00  0.00    +0.000 A 
ATOM     31  F   UNL     1      -8.754   2.307 122.498  0.00  0.00    +0.000 F 
ENDBRANCH  23  24
BRANCH  23  32
ATOM     32  C   UNL     1      -8.040   3.962 126.243  0.00  0.00    +0.000 C 
BRANCH  32  33
ATOM     33  O   UNL     1      -8.822   5.066 125.880  0.00  0.00    +0.000 OA
ATOM     34  H   UNL     1      -9.106   5.019 124.962  0.00  0.00    +0.000 HD
ENDBRANCH  32  33
ENDBRANCH  23  32
ENDBRANCH   8  23
TORSDOF 7
ENDMDL
MODEL 9
REMARK VINA RESULT:      -7.4      3.354      7.691
REMARK  Name = CHEMBL209917
REMARK  9 active torsions:
REMARK  status: ('A' for Active; 'I' for Inactive)
REMARK    1  A    between atoms: CD1_1  and  CG_2
REMARK    2  A    between atoms: CG_2  and  CD2_3
REMARK    3  A    between atoms: CG_2  and  CB_4
REMARK    4  A    between atoms: CB_4  and  CA_5
REMARK    5  A    between atoms: CA_9  and  C_10
REMARK    6  A    between atoms: N_21  and  CA_22
REMARK    7  A    between atoms: CA_22  and  C_23
REMARK    8  A    between atoms: CA_22  and  C_25
REMARK    9  A    between atoms: C_23  and  O_24
REMARK                            x       y       z     vdW  Elec       q    Type
REMARK                         _______ _______ _______ _____ _____    ______ ____
ROOT
ATOM      1  CA  UNL     1      -5.262   3.043 127.536  0.00  0.00    +0.000 C 
ATOM      2  C   UNL     1      -5.690   2.624 126.112  0.00  0.00    +0.000 C 
ATOM      3  O   UNL     1      -5.321   3.124 125.076  0.00  0.00    +0.000 OA
ATOM      4  N   UNL     1      -6.534   1.559 126.099  0.00  0.00    +0.000 N 
ATOM      5  CA  UNL     1      -6.301   0.508 127.048  0.00  0.00    +0.000 C 
ATOM      6  C   UNL     1      -6.425   1.065 128.462  0.00  0.00    +0.000 C 
ATOM      7  O   UNL     1      -6.778   0.272 129.327  0.00  0.00    +0.000 OA
ATOM      8  N   UNL     1      -6.089   2.423 128.652  0.00  0.00    +0.000 N 
ATOM      9  H   UNL     1      -6.865   1.347 125.168  0.00  0.00    +0.000 HD
ENDROOT
BRANCH   5  10
ATOM     10  C   UNL     1      -7.313  -0.658 126.921  0.00  0.00    +0.000 C 
ATOM     11  C   UNL     1      -6.594  -2.012 126.834  0.00  0.00    +0.000 C 
ATOM     12  C   UNL     1      -6.418  -2.141 125.352  0.00  0.00    +0.000 A 
ATOM     13  C   UNL     1      -5.455  -2.869 124.680  0.00  0.00    +0.000 A 
ATOM     14  C   UNL     1      -5.382  -2.735 123.292  0.00  0.00    +0.000 A 
ATOM     15  C   UNL     1      -6.255  -1.879 122.601  0.00  0.00    +0.000 A 
ATOM     16  C   UNL     1      -7.219  -1.139 123.288  0.00  0.00    +0.000 A 
ATOM     17  C   UNL     1      -7.292  -1.286 124.662  0.00  0.00    +0.000 A 
ATOM     18  C   UNL     1      -8.153  -0.525 125.621  0.00  0.00    +0.000 C 
ENDBRANCH   5  10
BRANCH   1  19
ATOM     19  CB  UNL     1      -5.202   4.577 127.523  0.00  0.00    +0.000 C 
BRANCH  19  21
ATOM     20  CD1 UNL     1      -3.577   6.446 128.317  0.00  0.00    +0.000 C 
ATOM     21  CG  UNL     1      -3.761   5.200 127.438  0.00  0.00    +0.000 C 
ATOM     22  CD2 UNL     1      -2.601   4.263 127.740  0.00  0.00    +0.000 C 
ENDBRANCH  19  21
ENDBRANCH   1  19
BRANCH   8  23
ATOM     23  CA  UNL     1      -6.204   3.059 130.049  0.00  0.00    +0.000 C 
BRANCH  23  24
ATOM     24  C   UNL     1      -7.120   4.307 130.122  0.00  0.00    +0.000 A 
ATOM     25  C   UNL     1      -6.650   5.500 130.697  0.00  0.00    +0.000 A 
ATOM     26  C   UNL     1      -7.551   6.538 130.963  0.00  0.00    +0.000 A 
ATOM     27  C   UNL     1      -8.873   6.454 130.535  0.00  0.00    +0.000 A 
ATOM     28  F   UNL     1      -9.725   7.455 130.779  0.00  0.00    +0.000 F 
ATOM     29  C   UNL     1      -9.339   5.343 129.881  0.00  0.00    +0.000 A 
ATOM     30  C   UNL     1      -8.487   4.278 129.725  0.00  0.00    +0.000 A 
ATOM     31  F   UNL     1      -9.074   3.204 129.174  0.00  0.00    +0.000 F 
ENDBRANCH  23  24
BRANCH  23  32
ATOM     32  C   UNL     1      -4.869   3.594 130.636  0.00  0.00    +0.000 C 
BRANCH  32  33
ATOM     33  O   UNL     1      -3.804   2.730 130.918  0.00  0.00    +0.000 OA
ATOM     34  H   UNL     1      -3.911   2.291 131.768  0.00  0.00    +0.000 HD
ENDBRANCH  32  33
ENDBRANCH  23  32
ENDBRANCH   8  23
TORSDOF 7
ENDMDL
