MODEL 1
REMARK VINA RESULT:      -9.1      0.000      0.000
REMARK  Name = CHEMBL196688
REMARK  12 active torsions:
REMARK  status: ('A' for Active; 'I' for Inactive)
REMARK    1  A    between atoms: CD1_1  and  CG_2
REMARK    2  A    between atoms: CG_2  and  CD2_3
REMARK    3  A    between atoms: CG_2  and  CB_4
REMARK    4  A    between atoms: CB_4  and  CA_5
REMARK    5  A    between atoms: C_9  and  C_10
REMARK    6  A    between atoms: N_21  and  C_22
REMARK    7  A    between atoms: C_22  and  C_23
REMARK    8  A    between atoms: C_22  and  C_29
REMARK    9  A    between atoms: N_25  and  C_26
REMARK   10  A    between atoms: C_26  and  C_27
REMARK   11  A    between atoms: C_26  and  C_28
REMARK   12  A    between atoms: C_32  and  C_33
REMARK                            x       y       z     vdW  Elec       q    Type
REMARK                         _______ _______ _______ _____ _____    ______ ____
ROOT
ATOM      1  CA  LEU A   2      -8.437   3.460 130.568  0.00  0.00    +0.000 C 
ATOM      2  C   LEU A   2      -8.621   4.150 129.233  0.00  0.00    +0.000 C 
ATOM      3  O   LEU A   2      -8.220   3.760 128.124  0.00  0.00    +0.000 OA
ATOM      4  N   UNK A   1      -9.392   5.247 129.339  0.00  0.00    +0.000 N 
ATOM      5  C   UNK A   1      -9.922   5.697 130.619  0.00  0.00    +0.000 C 
ATOM      6  C   UNK A   1      -8.821   5.545 131.714  0.00  0.00    +0.000 C 
ATOM      7  O   UNK A   1      -8.768   6.340 132.652  0.00  0.00    +0.000 OA
ATOM      8  N   LEU A   2      -7.975   4.428 131.585  0.00  0.00    +0.000 N 
ATOM      9  H   UNK A   1      -9.587   5.708 128.460  0.00  0.00    +0.000 HD
ENDROOT
BRANCH   5  10
ATOM     10  C   UNK A   1     -10.283   7.197 130.595  0.00  0.00    +0.000 C 
ATOM     11  C   UNK A   1     -11.791   7.471 130.724  0.00  0.00    +0.000 C 
ATOM     12  C   UNK A   1     -12.218   7.430 129.287  0.00  0.00    +0.000 A 
ATOM     13  C   UNK A   1     -13.471   7.143 128.783  0.00  0.00    +0.000 A 
ATOM     14  C   UNK A   1     -13.608   6.997 127.401  0.00  0.00    +0.000 A 
ATOM     15  C   UNK A   1     -12.499   7.123 126.549  0.00  0.00    +0.000 A 
ATOM     16  C   UNK A   1     -11.235   7.412 127.063  0.00  0.00    +0.000 A 
ATOM     17  C   UNK A   1     -11.115   7.588 128.431  0.00  0.00    +0.000 A 
ATOM     18  C   UNK A   1      -9.860   7.790 129.220  0.00  0.00    +0.000 C 
ENDBRANCH   5  10
BRANCH   1  19
ATOM     19  CB  LEU A   2      -7.557   2.300 130.381  0.00  0.00    +0.000 C 
BRANCH  19  21
ATOM     20  CD1 LEU A   2      -7.402  -0.033 130.788  0.00  0.00    +0.000 C 
ATOM     21  CG  LEU A   2      -8.402   1.029 130.645  0.00  0.00    +0.000 C 
ATOM     22  CD2 LEU A   2      -9.375   0.956 131.825  0.00  0.00    +0.000 C 
ENDBRANCH  19  21
ENDBRANCH   1  19
BRANCH   8  23
ATOM     23  C   UNK A   0      -6.836   4.202 132.608  0.00  0.00    +0.000 C 
BRANCH  23  24
ATOM     24  C   UNK A   0      -5.479   4.847 132.064  0.00  0.00    +0.000 A 
ATOM     25  C   UNK A   0      -5.252   6.232 131.868  0.00  0.00    +0.000 A 
ATOM     26  C   UNK A   0      -4.099   6.727 131.256  0.00  0.00    +0.000 A 
ATOM     27  C   UNK A   0      -3.037   5.868 131.005  0.00  0.00    +0.000 A 
ATOM     28  C   UNK A   0      -3.189   4.509 131.297  0.00  0.00    +0.000 A 
ATOM     29  C   UNK A   0      -4.401   4.006 131.778  0.00  0.00    +0.000 A 
BRANCH  27  30
ATOM     30  C   UNK A   0      -1.729   6.357 130.500  0.00  0.00    +0.000 C 
ATOM     31  N   UNK A   0      -0.702   6.510 131.388  0.00  0.00    +0.000 N 
ATOM     32  O   UNK A   0      -1.557   6.603 129.307  0.00  0.00    +0.000 OA
ATOM     33  H   UNK A   0      -0.751   6.309 132.374  0.00  0.00    +0.000 HD
ATOM     34  H   UNK A   0       0.185   6.826 131.019  0.00  0.00    +0.000 HD
ENDBRANCH  27  30
ENDBRANCH  23  24
BRANCH  23  35
ATOM     35  C   UNK A   0      -6.919   4.431 134.348  0.00  0.00    +0.000 C 
ATOM     36  O   UNK A   0      -6.640   3.527 135.150  0.00  0.00    +0.000 OA
ATOM     37  N   UNK A   0      -7.300   5.623 134.951  0.00  0.00    +0.000 N 
ATOM     38  H   UNK A   0      -7.817   6.302 134.405  0.00  0.00    +0.000 HD
BRANCH  37  39
ATOM     39  C   UNK A   0      -7.097   5.851 136.438  0.00  0.00    +0.000 C 
ATOM     40  C   UNK A   0      -5.784   6.491 136.914  0.00  0.00    +0.000 C 
ATOM     41  C   UNK A   0      -8.103   6.819 136.974  0.00  0.00    +0.000 C 
ENDBRANCH  37  39
ENDBRANCH  23  35
ENDBRANCH   8  23
TORSDOF 8
ENDMDL
MODEL 2
REMARK VINA RESULT:      -8.7      2.914      7.243
REMARK  Name = CHEMBL196688
REMARK  12 active torsions:
REMARK  status: ('A' for Active; 'I' for Inactive)
REMARK    1  A    between atoms: CD1_1  and  CG_2
REMARK    2  A    between atoms: CG_2  and  CD2_3
REMARK    3  A    between atoms: CG_2  and  CB_4
REMARK    4  A    between atoms: CB_4  and  CA_5
REMARK    5  A    between atoms: C_9  and  C_10
REMARK    6  A    between atoms: N_21  and  C_22
REMARK    7  A    between atoms: C_22  and  C_23
REMARK    8  A    between atoms: C_22  and  C_29
REMARK    9  A    between atoms: N_25  and  C_26
REMARK   10  A    between atoms: C_26  and  C_27
REMARK   11  A    between atoms: C_26  and  C_28
REMARK   12  A    between atoms: C_32  and  C_33
REMARK                            x       y       z     vdW  Elec       q    Type
REMARK                         _______ _______ _______ _____ _____    ______ ____
ROOT
ATOM      1  CA  LEU A   2      -7.329   1.737 131.917  0.00  0.00    +0.000 C 
ATOM      2  C   LEU A   2      -6.886   0.378 132.418  0.00  0.00    +0.000 C 
ATOM      3  O   LEU A   2      -6.897  -0.031 133.590  0.00  0.00    +0.000 OA
ATOM      4  N   UNK A   1      -6.550  -0.443 131.407  0.00  0.00    +0.000 N 
ATOM      5  C   UNK A   1      -6.581  -0.008 130.017  0.00  0.00    +0.000 C 
ATOM      6  C   UNK A   1      -6.015   1.443 129.919  0.00  0.00    +0.000 C 
ATOM      7  O   UNK A   1      -5.398   1.799 128.915  0.00  0.00    +0.000 OA
ATOM      8  N   LEU A   2      -6.318   2.297 130.996  0.00  0.00    +0.000 N 
ATOM      9  H   UNK A   1      -6.301  -1.380 131.693  0.00  0.00    +0.000 HD
ENDROOT
BRANCH   5  10
ATOM     10  C   UNK A   1      -5.668  -0.874 129.123  0.00  0.00    +0.000 C 
ATOM     11  C   UNK A   1      -6.048  -0.836 127.634  0.00  0.00    +0.000 C 
ATOM     12  C   UNK A   1      -7.043  -1.955 127.559  0.00  0.00    +0.000 A 
ATOM     13  C   UNK A   1      -8.062  -2.123 126.641  0.00  0.00    +0.000 A 
ATOM     14  C   UNK A   1      -8.980  -3.153 126.857  0.00  0.00    +0.000 A 
ATOM     15  C   UNK A   1      -8.877  -3.985 127.984  0.00  0.00    +0.000 A 
ATOM     16  C   UNK A   1      -7.846  -3.812 128.907  0.00  0.00    +0.000 A 
ATOM     17  C   UNK A   1      -6.923  -2.809 128.668  0.00  0.00    +0.000 A 
ATOM     18  C   UNK A   1      -5.809  -2.360 129.560  0.00  0.00    +0.000 C 
ENDBRANCH   5  10
BRANCH   1  19
ATOM     19  CB  LEU A   2      -7.642   2.585 133.073  0.00  0.00    +0.000 C 
BRANCH  19  21
ATOM     20  CD1 LEU A   2      -9.407   4.076 133.616  0.00  0.00    +0.000 C 
ATOM     21  CG  LEU A   2      -9.184   2.701 133.159  0.00  0.00    +0.000 C 
ATOM     22  CD2 LEU A   2     -10.068   2.435 131.937  0.00  0.00    +0.000 C 
ENDBRANCH  19  21
ENDBRANCH   1  19
BRANCH   8  23
ATOM     23  C   UNK A   0      -5.782   3.748 131.003  0.00  0.00    +0.000 C 
BRANCH  23  24
ATOM     24  C   UNK A   0      -6.976   4.771 130.719  0.00  0.00    +0.000 A 
ATOM     25  C   UNK A   0      -7.172   6.005 131.389  0.00  0.00    +0.000 A 
ATOM     26  C   UNK A   0      -8.310   6.791 131.200  0.00  0.00    +0.000 A 
ATOM     27  C   UNK A   0      -9.198   6.474 130.180  0.00  0.00    +0.000 A 
ATOM     28  C   UNK A   0      -8.967   5.322 129.422  0.00  0.00    +0.000 A 
ATOM     29  C   UNK A   0      -7.900   4.468 129.716  0.00  0.00    +0.000 A 
BRANCH  27  30
ATOM     30  C   UNK A   0     -10.342   7.353 129.828  0.00  0.00    +0.000 C 
ATOM     31  N   UNK A   0     -11.506   7.224 130.534  0.00  0.00    +0.000 N 
ATOM     32  O   UNK A   0     -10.251   8.195 128.937  0.00  0.00    +0.000 OA
ATOM     33  H   UNK A   0     -11.657   6.578 131.293  0.00  0.00    +0.000 HD
ATOM     34  H   UNK A   0     -12.265   7.845 130.291  0.00  0.00    +0.000 HD
ENDBRANCH  27  30
ENDBRANCH  23  24
BRANCH  23  35
ATOM     35  C   UNK A   0      -4.684   4.463 132.173  0.00  0.00    +0.000 C 
ATOM     36  O   UNK A   0      -4.779   4.246 133.391  0.00  0.00    +0.000 OA
ATOM     37  N   UNK A   0      -3.643   5.316 131.830  0.00  0.00    +0.000 N 
ATOM     38  H   UNK A   0      -3.666   5.777 130.929  0.00  0.00    +0.000 HD
BRANCH  37  39
ATOM     39  C   UNK A   0      -2.568   5.687 132.837  0.00  0.00    +0.000 C 
ATOM     40  C   UNK A   0      -1.095   5.572 132.419  0.00  0.00    +0.000 C 
ATOM     41  C   UNK A   0      -2.654   7.135 133.203  0.00  0.00    +0.000 C 
ENDBRANCH  37  39
ENDBRANCH  23  35
ENDBRANCH   8  23
TORSDOF 8
ENDMDL
MODEL 3
REMARK VINA RESULT:      -8.7      4.629      8.211
REMARK  Name = CHEMBL196688
REMARK  12 active torsions:
REMARK  status: ('A' for Active; 'I' for Inactive)
REMARK    1  A    between atoms: CD1_1  and  CG_2
REMARK    2  A    between atoms: CG_2  and  CD2_3
REMARK    3  A    between atoms: CG_2  and  CB_4
REMARK    4  A    between atoms: CB_4  and  CA_5
REMARK    5  A    between atoms: C_9  and  C_10
REMARK    6  A    between atoms: N_21  and  C_22
REMARK    7  A    between atoms: C_22  and  C_23
REMARK    8  A    between atoms: C_22  and  C_29
REMARK    9  A    between atoms: N_25  and  C_26
REMARK   10  A    between atoms: C_26  and  C_27
REMARK   11  A    between atoms: C_26  and  C_28
REMARK   12  A    between atoms: C_32  and  C_33
REMARK                            x       y       z     vdW  Elec       q    Type
REMARK                         _______ _______ _______ _____ _____    ______ ____
ROOT
ATOM      1  CA  LEU A   2      -4.770   2.859 126.910  0.00  0.00    +0.000 C 
ATOM      2  C   LEU A   2      -5.672   2.627 125.716  0.00  0.00    +0.000 C 
ATOM      3  O   LEU A   2      -5.966   3.442 124.827  0.00  0.00    +0.000 OA
ATOM      4  N   UNK A   1      -6.079   1.347 125.638  0.00  0.00    +0.000 N 
ATOM      5  C   UNK A   1      -5.705   0.356 126.637  0.00  0.00    +0.000 C 
ATOM      6  C   UNK A   1      -5.787   0.999 128.056  0.00  0.00    +0.000 C 
ATOM      7  O   UNK A   1      -6.105   0.313 129.028  0.00  0.00    +0.000 OA
ATOM      8  N   LEU A   2      -5.411   2.352 128.142  0.00  0.00    +0.000 N 
ATOM      9  H   UNK A   1      -6.640   1.135 124.823  0.00  0.00    +0.000 HD
ENDROOT
BRANCH   5  10
ATOM     10  C   UNK A   1      -6.686  -0.835 126.660  0.00  0.00    +0.000 C 
ATOM     11  C   UNK A   1      -5.993  -2.207 126.606  0.00  0.00    +0.000 C 
ATOM     12  C   UNK A   1      -5.894  -2.424 125.126  0.00  0.00    +0.000 A 
ATOM     13  C   UNK A   1      -4.988  -3.213 124.444  0.00  0.00    +0.000 A 
ATOM     14  C   UNK A   1      -4.969  -3.140 123.049  0.00  0.00    +0.000 A 
ATOM     15  C   UNK A   1      -5.837  -2.277 122.361  0.00  0.00    +0.000 A 
ATOM     16  C   UNK A   1      -6.750  -1.482 123.054  0.00  0.00    +0.000 A 
ATOM     17  C   UNK A   1      -6.783  -1.586 124.434  0.00  0.00    +0.000 A 
ATOM     18  C   UNK A   1      -7.586  -0.763 125.393  0.00  0.00    +0.000 C 
ENDBRANCH   5  10
BRANCH   1  19
ATOM     19  CB  LEU A   2      -4.399   4.278 126.951  0.00  0.00    +0.000 C 
BRANCH  19  21
ATOM     20  CD1 LEU A   2      -2.612   5.025 128.322  0.00  0.00    +0.000 C 
ATOM     21  CG  LEU A   2      -2.855   4.352 127.042  0.00  0.00    +0.000 C 
ATOM     22  CD2 LEU A   2      -1.996   3.085 126.977  0.00  0.00    +0.000 C 
ENDBRANCH  19  21
ENDBRANCH   1  19
BRANCH   8  23
ATOM     23  C   UNK A   0      -5.481   3.086 129.502  0.00  0.00    +0.000 C 
BRANCH  23  24
ATOM     24  C   UNK A   0      -6.977   3.570 129.784  0.00  0.00    +0.000 A 
ATOM     25  C   UNK A   0      -8.095   2.716 129.958  0.00  0.00    +0.000 A 
ATOM     26  C   UNK A   0      -9.401   3.196 130.060  0.00  0.00    +0.000 A 
ATOM     27  C   UNK A   0      -9.618   4.561 130.197  0.00  0.00    +0.000 A 
ATOM     28  C   UNK A   0      -8.520   5.424 130.146  0.00  0.00    +0.000 A 
ATOM     29  C   UNK A   0      -7.233   4.939 129.902  0.00  0.00    +0.000 A 
BRANCH  27  30
ATOM     30  C   UNK A   0     -10.967   5.123 130.462  0.00  0.00    +0.000 C 
ATOM     31  N   UNK A   0     -11.237   5.613 131.710  0.00  0.00    +0.000 N 
ATOM     32  O   UNK A   0     -11.825   5.169 129.582  0.00  0.00    +0.000 OA
ATOM     33  H   UNK A   0     -10.587   5.636 132.479  0.00  0.00    +0.000 HD
ATOM     34  H   UNK A   0     -12.155   6.008 131.862  0.00  0.00    +0.000 HD
ENDBRANCH  27  30
ENDBRANCH  23  24
BRANCH  23  35
ATOM     35  C   UNK A   0      -4.752   2.576 131.016  0.00  0.00    +0.000 C 
ATOM     36  O   UNK A   0      -3.943   3.284 131.636  0.00  0.00    +0.000 OA
ATOM     37  N   UNK A   0      -5.019   1.357 131.627  0.00  0.00    +0.000 N 
ATOM     38  H   UNK A   0      -5.418   0.610 131.072  0.00  0.00    +0.000 HD
BRANCH  37  39
ATOM     39  C   UNK A   0      -4.578   1.080 133.054  0.00  0.00    +0.000 C 
ATOM     40  C   UNK A   0      -5.615   0.554 134.057  0.00  0.00    +0.000 C 
ATOM     41  C   UNK A   0      -3.555  -0.010 133.096  0.00  0.00    +0.000 C 
ENDBRANCH  37  39
ENDBRANCH  23  35
ENDBRANCH   8  23
TORSDOF 8
ENDMDL
MODEL 4
REMARK VINA RESULT:      -8.7      4.971      8.973
REMARK  Name = CHEMBL196688
REMARK  12 active torsions:
REMARK  status: ('A' for Active; 'I' for Inactive)
REMARK    1  A    between atoms: CD1_1  and  CG_2
REMARK    2  A    between atoms: CG_2  and  CD2_3
REMARK    3  A    between atoms: CG_2  and  CB_4
REMARK    4  A    between atoms: CB_4  and  CA_5
REMARK    5  A    between atoms: C_9  and  C_10
REMARK    6  A    between atoms: N_21  and  C_22
REMARK    7  A    between atoms: C_22  and  C_23
REMARK    8  A    between atoms: C_22  and  C_29
REMARK    9  A    between atoms: N_25  and  C_26
REMARK   10  A    between atoms: C_26  and  C_27
REMARK   11  A    between atoms: C_26  and  C_28
REMARK   12  A    between atoms: C_32  and  C_33
REMARK                            x       y       z     vdW  Elec       q    Type
REMARK                         _______ _______ _______ _____ _____    ______ ____
ROOT
ATOM      1  CA  LEU A   2      -5.119   2.962 128.035  0.00  0.00    +0.000 C 
ATOM      2  C   LEU A   2      -5.605   2.332 129.324  0.00  0.00    +0.000 C 
ATOM      3  O   LEU A   2      -5.016   1.485 130.016  0.00  0.00    +0.000 OA
ATOM      4  N   UNK A   1      -6.763   2.873 129.740  0.00  0.00    +0.000 N 
ATOM      5  C   UNK A   1      -7.450   3.908 128.977  0.00  0.00    +0.000 C 
ATOM      6  C   UNK A   1      -7.381   3.558 127.458  0.00  0.00    +0.000 C 
ATOM      7  O   UNK A   1      -8.306   3.873 126.710  0.00  0.00    +0.000 OA
ATOM      8  N   LEU A   2      -6.193   2.944 127.021  0.00  0.00    +0.000 N 
ATOM      9  H   UNK A   1      -7.096   2.520 130.628  0.00  0.00    +0.000 HD
ENDROOT
BRANCH   5  10
ATOM     10  C   UNK A   1      -8.951   3.976 129.324  0.00  0.00    +0.000 C 
ATOM     11  C   UNK A   1      -9.395   5.339 129.882  0.00  0.00    +0.000 C 
ATOM     12  C   UNK A   1      -9.150   5.146 131.348  0.00  0.00    +0.000 A 
ATOM     13  C   UNK A   1      -8.909   6.115 132.302  0.00  0.00    +0.000 A 
ATOM     14  C   UNK A   1      -8.541   5.702 133.584  0.00  0.00    +0.000 A 
ATOM     15  C   UNK A   1      -8.404   4.338 133.890  0.00  0.00    +0.000 A 
ATOM     16  C   UNK A   1      -8.648   3.363 132.923  0.00  0.00    +0.000 A 
ATOM     17  C   UNK A   1      -9.044   3.781 131.665  0.00  0.00    +0.000 A 
ATOM     18  C   UNK A   1      -9.251   2.940 130.445  0.00  0.00    +0.000 C 
ENDBRANCH   5  10
BRANCH   1  19
ATOM     19  CB  LEU A   2      -3.877   2.296 127.626  0.00  0.00    +0.000 C 
BRANCH  19  21
ATOM     20  CD1 LEU A   2      -2.753   4.295 128.237  0.00  0.00    +0.000 C 
ATOM     21  CG  LEU A   2      -2.917   3.390 127.095  0.00  0.00    +0.000 C 
ATOM     22  CD2 LEU A   2      -1.534   3.031 126.543  0.00  0.00    +0.000 C 
ENDBRANCH  19  21
ENDBRANCH   1  19
BRANCH   8  23
ATOM     23  C   UNK A   0      -6.039   2.537 125.536  0.00  0.00    +0.000 C 
BRANCH  23  24
ATOM     24  C   UNK A   0      -6.830   1.176 125.259  0.00  0.00    +0.000 A 
ATOM     25  C   UNK A   0      -8.205   1.082 124.925  0.00  0.00    +0.000 A 
ATOM     26  C   UNK A   0      -8.875  -0.138 124.834  0.00  0.00    +0.000 A 
ATOM     27  C   UNK A   0      -8.149  -1.321 124.871  0.00  0.00    +0.000 A 
ATOM     28  C   UNK A   0      -6.769  -1.256 125.084  0.00  0.00    +0.000 A 
ATOM     29  C   UNK A   0      -6.132  -0.033 125.315  0.00  0.00    +0.000 A 
BRANCH  27  30
ATOM     30  C   UNK A   0      -8.780  -2.643 124.627  0.00  0.00    +0.000 C 
ATOM     31  N   UNK A   0      -8.239  -3.746 125.227  0.00  0.00    +0.000 N 
ATOM     32  O   UNK A   0      -9.780  -2.752 123.920  0.00  0.00    +0.000 OA
ATOM     33  H   UNK A   0      -7.439  -3.741 125.839  0.00  0.00    +0.000 HD
ATOM     34  H   UNK A   0      -8.697  -4.632 125.063  0.00  0.00    +0.000 HD
ENDBRANCH  27  30
ENDBRANCH  23  24
BRANCH  23  35
ATOM     35  C   UNK A   0      -6.192   3.581 124.132  0.00  0.00    +0.000 C 
ATOM     36  O   UNK A   0      -6.145   4.818 124.217  0.00  0.00    +0.000 OA
ATOM     37  N   UNK A   0      -6.380   3.111 122.839  0.00  0.00    +0.000 N 
ATOM     38  H   UNK A   0      -6.721   2.166 122.708  0.00  0.00    +0.000 HD
BRANCH  37  39
ATOM     39  C   UNK A   0      -6.237   4.031 121.640  0.00  0.00    +0.000 C 
ATOM     40  C   UNK A   0      -4.993   3.895 120.749  0.00  0.00    +0.000 C 
ATOM     41  C   UNK A   0      -7.332   3.794 120.648  0.00  0.00    +0.000 C 
ENDBRANCH  37  39
ENDBRANCH  23  35
ENDBRANCH   8  23
TORSDOF 8
ENDMDL
MODEL 5
REMARK VINA RESULT:      -8.7      2.429      8.202
REMARK  Name = CHEMBL196688
REMARK  12 active torsions:
REMARK  status: ('A' for Active; 'I' for Inactive)
REMARK    1  A    between atoms: CD1_1  and  CG_2
REMARK    2  A    between atoms: CG_2  and  CD2_3
REMARK    3  A    between atoms: CG_2  and  CB_4
REMARK    4  A    between atoms: CB_4  and  CA_5
REMARK    5  A    between atoms: C_9  and  C_10
REMARK    6  A    between atoms: N_21  and  C_22
REMARK    7  A    between atoms: C_22  and  C_23
REMARK    8  A    between atoms: C_22  and  C_29
REMARK    9  A    between atoms: N_25  and  C_26
REMARK   10  A    between atoms: C_26  and  C_27
REMARK   11  A    between atoms: C_26  and  C_28
REMARK   12  A    between atoms: C_32  and  C_33
REMARK                            x       y       z     vdW  Elec       q    Type
REMARK                         _______ _______ _______ _____ _____    ______ ____
ROOT
ATOM      1  CA  LEU A   2      -6.850   4.222 132.298  0.00  0.00    +0.000 C 
ATOM      2  C   LEU A   2      -6.339   5.474 132.980  0.00  0.00    +0.000 C 
ATOM      3  O   LEU A   2      -6.724   5.952 134.060  0.00  0.00    +0.000 OA
ATOM      4  N   UNK A   1      -5.294   6.009 132.325  0.00  0.00    +0.000 N 
ATOM      5  C   UNK A   1      -4.785   5.437 131.085  0.00  0.00    +0.000 C 
ATOM      6  C   UNK A   1      -5.986   5.002 130.189  0.00  0.00    +0.000 C 
ATOM      7  O   UNK A   1      -5.895   5.063 128.963  0.00  0.00    +0.000 OA
ATOM      8  N   LEU A   2      -7.106   4.487 130.867  0.00  0.00    +0.000 N 
ATOM      9  H   UNK A   1      -4.885   6.816 132.777  0.00  0.00    +0.000 HD
ENDROOT
BRANCH   5  10
ATOM     10  C   UNK A   1      -3.998   6.472 130.256  0.00  0.00    +0.000 C 
ATOM     11  C   UNK A   1      -2.519   6.104 130.052  0.00  0.00    +0.000 C 
ATOM     12  C   UNK A   1      -1.894   6.724 131.265  0.00  0.00    +0.000 A 
ATOM     13  C   UNK A   1      -0.717   6.364 131.891  0.00  0.00    +0.000 A 
ATOM     14  C   UNK A   1      -0.406   6.971 133.110  0.00  0.00    +0.000 A 
ATOM     15  C   UNK A   1      -1.274   7.910 133.690  0.00  0.00    +0.000 A 
ATOM     16  C   UNK A   1      -2.461   8.271 133.054  0.00  0.00    +0.000 A 
ATOM     17  C   UNK A   1      -2.746   7.688 131.831  0.00  0.00    +0.000 A 
ATOM     18  C   UNK A   1      -3.996   7.827 131.022  0.00  0.00    +0.000 C 
ENDBRANCH   5  10
BRANCH   1  19
ATOM     19  CB  LEU A   2      -8.009   3.719 133.046  0.00  0.00    +0.000 C 
BRANCH  19  21
ATOM     20  CD1 LEU A   2      -8.866   1.595 132.425  0.00  0.00    +0.000 C 
ATOM     21  CG  LEU A   2      -7.809   2.196 133.243  0.00  0.00    +0.000 C 
ATOM     22  CD2 LEU A   2      -6.476   1.522 132.904  0.00  0.00    +0.000 C 
ENDBRANCH  19  21
ENDBRANCH   1  19
BRANCH   8  23
ATOM     23  C   UNK A   0      -8.356   4.050 130.068  0.00  0.00    +0.000 C 
BRANCH  23  24
ATOM     24  C   UNK A   0      -9.384   5.268 129.955  0.00  0.00    +0.000 A 
ATOM     25  C   UNK A   0      -9.062   6.572 129.501  0.00  0.00    +0.000 A 
ATOM     26  C   UNK A   0      -9.966   7.634 129.558  0.00  0.00    +0.000 A 
ATOM     27  C   UNK A   0     -11.293   7.384 129.880  0.00  0.00    +0.000 A 
ATOM     28  C   UNK A   0     -11.668   6.081 130.221  0.00  0.00    +0.000 A 
ATOM     29  C   UNK A   0     -10.722   5.055 130.296  0.00  0.00    +0.000 A 
BRANCH  27  30
ATOM     30  C   UNK A   0     -12.334   8.441 129.809  0.00  0.00    +0.000 C 
ATOM     31  N   UNK A   0     -12.447   9.171 128.659  0.00  0.00    +0.000 N 
ATOM     32  O   UNK A   0     -13.097   8.651 130.751  0.00  0.00    +0.000 OA
ATOM     33  H   UNK A   0     -11.881   9.048 127.834  0.00  0.00    +0.000 HD
ATOM     34  H   UNK A   0     -13.175   9.872 128.626  0.00  0.00    +0.000 HD
ENDBRANCH  27  30
ENDBRANCH  23  24
BRANCH  23  35
ATOM     35  C   UNK A   0      -8.385   3.139 128.566  0.00  0.00    +0.000 C 
ATOM     36  O   UNK A   0      -9.071   2.115 128.424  0.00  0.00    +0.000 OA
ATOM     37  N   UNK A   0      -7.651   3.488 127.440  0.00  0.00    +0.000 N 
ATOM     38  H   UNK A   0      -6.860   4.111 127.546  0.00  0.00    +0.000 HD
BRANCH  37  39
ATOM     39  C   UNK A   0      -7.915   2.832 126.096  0.00  0.00    +0.000 C 
ATOM     40  C   UNK A   0      -8.127   3.728 124.867  0.00  0.00    +0.000 C 
ATOM     41  C   UNK A   0      -6.742   2.013 125.659  0.00  0.00    +0.000 C 
ENDBRANCH  37  39
ENDBRANCH  23  35
ENDBRANCH   8  23
TORSDOF 8
ENDMDL
MODEL 6
REMARK VINA RESULT:      -8.5      2.622      7.844
REMARK  Name = CHEMBL196688
REMARK  12 active torsions:
REMARK  status: ('A' for Active; 'I' for Inactive)
REMARK    1  A    between atoms: CD1_1  and  CG_2
REMARK    2  A    between atoms: CG_2  and  CD2_3
REMARK    3  A    between atoms: CG_2  and  CB_4
REMARK    4  A    between atoms: CB_4  and  CA_5
REMARK    5  A    between atoms: C_9  and  C_10
REMARK    6  A    between atoms: N_21  and  C_22
REMARK    7  A    between atoms: C_22  and  C_23
REMARK    8  A    between atoms: C_22  and  C_29
REMARK    9  A    between atoms: N_25  and  C_26
REMARK   10  A    between atoms: C_26  and  C_27
REMARK   11  A    between atoms: C_26  and  C_28
REMARK   12  A    between atoms: C_32  and  C_33
REMARK                            x       y       z     vdW  Elec       q    Type
REMARK                         _______ _______ _______ _____ _____    ______ ____
ROOT
ATOM      1  CA  LEU A   2      -7.062   2.756 130.123  0.00  0.00    +0.000 C 
ATOM      2  C   LEU A   2      -6.754   2.049 128.820  0.00  0.00    +0.000 C 
ATOM      3  O   LEU A   2      -6.358   2.564 127.761  0.00  0.00    +0.000 OA
ATOM      4  N   UNK A   1      -6.857   0.714 128.939  0.00  0.00    +0.000 N 
ATOM      5  C   UNK A   1      -7.266   0.078 130.184  0.00  0.00    +0.000 C 
ATOM      6  C   UNK A   1      -8.429   0.899 130.822  0.00  0.00    +0.000 C 
ATOM      7  O   UNK A   1      -9.304   0.328 131.473  0.00  0.00    +0.000 OA
ATOM      8  N   LEU A   2      -8.359   2.295 130.661  0.00  0.00    +0.000 N 
ATOM      9  H   UNK A   1      -6.605   0.198 128.105  0.00  0.00    +0.000 HD
ENDROOT
BRANCH   5  10
ATOM     10  C   UNK A   1      -7.832  -1.337 129.948  0.00  0.00    +0.000 C 
ATOM     11  C   UNK A   1      -7.423  -2.353 131.027  0.00  0.00    +0.000 C 
ATOM     12  C   UNK A   1      -6.131  -2.867 130.467  0.00  0.00    +0.000 A 
ATOM     13  C   UNK A   1      -5.073  -3.430 131.154  0.00  0.00    +0.000 A 
ATOM     14  C   UNK A   1      -3.894  -3.689 130.452  0.00  0.00    +0.000 A 
ATOM     15  C   UNK A   1      -3.782  -3.370 129.089  0.00  0.00    +0.000 A 
ATOM     16  C   UNK A   1      -4.853  -2.802 128.399  0.00  0.00    +0.000 A 
ATOM     17  C   UNK A   1      -6.028  -2.580 129.096  0.00  0.00    +0.000 A 
ATOM     18  C   UNK A   1      -7.261  -1.885 128.609  0.00  0.00    +0.000 C 
ENDBRANCH   5  10
BRANCH   1  19
ATOM     19  CB  LEU A   2      -6.966   4.204 129.907  0.00  0.00    +0.000 C 
BRANCH  19  21
ATOM     20  CD1 LEU A   2      -6.032   6.079 131.022  0.00  0.00    +0.000 C 
ATOM     21  CG  LEU A   2      -5.699   4.702 130.646  0.00  0.00    +0.000 C 
ATOM     22  CD2 LEU A   2      -5.161   3.968 131.877  0.00  0.00    +0.000 C 
ENDBRANCH  19  21
ENDBRANCH   1  19
BRANCH   8  23
ATOM     23  C   UNK A   0      -9.478   3.194 131.237  0.00  0.00    +0.000 C 
BRANCH  23  24
ATOM     24  C   UNK A   0      -8.948   3.962 132.534  0.00  0.00    +0.000 A 
ATOM     25  C   UNK A   0      -9.128   5.344 132.799  0.00  0.00    +0.000 A 
ATOM     26  C   UNK A   0      -8.520   5.989 133.877  0.00  0.00    +0.000 A 
ATOM     27  C   UNK A   0      -7.876   5.235 134.849  0.00  0.00    +0.000 A 
ATOM     28  C   UNK A   0      -7.782   3.852 134.674  0.00  0.00    +0.000 A 
ATOM     29  C   UNK A   0      -8.272   3.236 133.519  0.00  0.00    +0.000 A 
BRANCH  27  30
ATOM     30  C   UNK A   0      -7.344   5.844 136.095  0.00  0.00    +0.000 C 
ATOM     31  N   UNK A   0      -8.215   6.480 136.935  0.00  0.00    +0.000 N 
ATOM     32  O   UNK A   0      -6.151   5.766 136.385  0.00  0.00    +0.000 OA
ATOM     33  H   UNK A   0      -9.208   6.567 136.785  0.00  0.00    +0.000 HD
ATOM     34  H   UNK A   0      -7.835   6.870 137.786  0.00  0.00    +0.000 HD
ENDBRANCH  27  30
ENDBRANCH  23  24
BRANCH  23  35
ATOM     35  C   UNK A   0     -10.543   4.264 130.338  0.00  0.00    +0.000 C 
ATOM     36  O   UNK A   0     -11.720   3.968 130.083  0.00  0.00    +0.000 OA
ATOM     37  N   UNK A   0     -10.153   5.503 129.846  0.00  0.00    +0.000 N 
ATOM     38  H   UNK A   0      -9.165   5.699 129.744  0.00  0.00    +0.000 HD
BRANCH  37  39
ATOM     39  C   UNK A   0     -11.175   6.495 129.317  0.00  0.00    +0.000 C 
ATOM     40  C   UNK A   0     -11.912   7.398 130.317  0.00  0.00    +0.000 C 
ATOM     41  C   UNK A   0     -10.526   7.510 128.431  0.00  0.00    +0.000 C 
ENDBRANCH  37  39
ENDBRANCH  23  35
ENDBRANCH   8  23
TORSDOF 8
ENDMDL
MODEL 7
REMARK VINA RESULT:      -8.5      2.553      7.205
REMARK  Name = CHEMBL196688
REMARK  12 active torsions:
REMARK  status: ('A' for Active; 'I' for Inactive)
REMARK    1  A    between atoms: CD1_1  and  CG_2
REMARK    2  A    between atoms: CG_2  and  CD2_3
REMARK    3  A    between atoms: CG_2  and  CB_4
REMARK    4  A    between atoms: CB_4  and  CA_5
REMARK    5  A    between atoms: C_9  and  C_10
REMARK    6  A    between atoms: N_21  and  C_22
REMARK    7  A    between atoms: C_22  and  C_23
REMARK    8  A    between atoms: C_22  and  C_29
REMARK    9  A    between atoms: N_25  and  C_26
REMARK   10  A    between atoms: C_26  and  C_27
REMARK   11  A    between atoms: C_26  and  C_28
REMARK   12  A    between atoms: C_32  and  C_33
REMARK                            x       y       z     vdW  Elec       q    Type
REMARK                         _______ _______ _______ _____ _____    ______ ____
ROOT
ATOM      1  CA  LEU A   2      -5.414   3.069 130.459  0.00  0.00    +0.000 C 
ATOM      2  C   LEU A   2      -6.223   2.152 129.566  0.00  0.00    +0.000 C 
ATOM      3  O   LEU A   2      -6.358   2.230 128.334  0.00  0.00    +0.000 OA
ATOM      4  N   UNK A   1      -6.740   1.117 130.251  0.00  0.00    +0.000 N 
ATOM      5  C   UNK A   1      -6.552   0.970 131.688  0.00  0.00    +0.000 C 
ATOM      6  C   UNK A   1      -6.699   2.365 132.371  0.00  0.00    +0.000 C 
ATOM      7  O   UNK A   1      -7.167   2.450 133.507  0.00  0.00    +0.000 OA
ATOM      8  N   LEU A   2      -6.207   3.463 131.642  0.00  0.00    +0.000 N 
ATOM      9  H   UNK A   1      -7.243   0.448 129.682  0.00  0.00    +0.000 HD
ENDROOT
BRANCH   5  10
ATOM     10  C   UNK A   1      -7.639   0.077 132.321  0.00  0.00    +0.000 C 
ATOM     11  C   UNK A   1      -7.081  -1.184 133.003  0.00  0.00    +0.000 C 
ATOM     12  C   UNK A   1      -7.070  -2.153 131.859  0.00  0.00    +0.000 A 
ATOM     13  C   UNK A   1      -6.274  -3.271 131.703  0.00  0.00    +0.000 A 
ATOM     14  C   UNK A   1      -6.311  -3.940 130.478  0.00  0.00    +0.000 A 
ATOM     15  C   UNK A   1      -7.124  -3.480 129.429  0.00  0.00    +0.000 A 
ATOM     16  C   UNK A   1      -7.926  -2.351 129.592  0.00  0.00    +0.000 A 
ATOM     17  C   UNK A   1      -7.906  -1.713 130.820  0.00  0.00    +0.000 A 
ATOM     18  C   UNK A   1      -8.584  -0.432 131.195  0.00  0.00    +0.000 C 
ENDBRANCH   5  10
BRANCH   1  19
ATOM     19  CB  LEU A   2      -4.916   4.191 129.654  0.00  0.00    +0.000 C 
BRANCH  19  21
ATOM     20  CD1 LEU A   2      -2.894   4.767 128.552  0.00  0.00    +0.000 C 
ATOM     21  CG  LEU A   2      -3.378   4.245 129.833  0.00  0.00    +0.000 C 
ATOM     22  CD2 LEU A   2      -2.742   5.051 130.970  0.00  0.00    +0.000 C 
ENDBRANCH  19  21
ENDBRANCH   1  19
BRANCH   8  23
ATOM     23  C   UNK A   0      -6.329   4.891 132.225  0.00  0.00    +0.000 C 
BRANCH  23  24
ATOM     24  C   UNK A   0      -7.789   5.473 131.940  0.00  0.00    +0.000 A 
ATOM     25  C   UNK A   0      -8.968   5.104 132.635  0.00  0.00    +0.000 A 
ATOM     26  C   UNK A   0     -10.237   5.539 132.248  0.00  0.00    +0.000 A 
ATOM     27  C   UNK A   0     -10.355   6.524 131.278  0.00  0.00    +0.000 A 
ATOM     28  C   UNK A   0      -9.196   6.994 130.653  0.00  0.00    +0.000 A 
ATOM     29  C   UNK A   0      -7.945   6.448 130.950  0.00  0.00    +0.000 A 
BRANCH  27  30
ATOM     30  C   UNK A   0     -11.662   7.138 130.931  0.00  0.00    +0.000 C 
ATOM     31  N   UNK A   0     -11.737   7.932 129.821  0.00  0.00    +0.000 N 
ATOM     32  O   UNK A   0     -12.667   6.928 131.609  0.00  0.00    +0.000 OA
ATOM     33  H   UNK A   0     -10.971   8.136 129.199  0.00  0.00    +0.000 HD
ATOM     34  H   UNK A   0     -12.641   8.324 129.593  0.00  0.00    +0.000 HD
ENDBRANCH  27  30
ENDBRANCH  23  24
BRANCH  23  35
ATOM     35  C   UNK A   0      -5.798   5.434 133.809  0.00  0.00    +0.000 C 
ATOM     36  O   UNK A   0      -4.966   6.343 133.955  0.00  0.00    +0.000 OA
ATOM     37  N   UNK A   0      -6.260   4.895 135.003  0.00  0.00    +0.000 N 
ATOM     38  H   UNK A   0      -6.697   3.981 134.989  0.00  0.00    +0.000 HD
BRANCH  37  39
ATOM     39  C   UNK A   0      -5.978   5.573 136.332  0.00  0.00    +0.000 C 
ATOM     40  C   UNK A   0      -7.147   6.214 137.095  0.00  0.00    +0.000 C 
ATOM     41  C   UNK A   0      -5.478   4.588 137.341  0.00  0.00    +0.000 C 
ENDBRANCH  37  39
ENDBRANCH  23  35
ENDBRANCH   8  23
TORSDOF 8
ENDMDL
MODEL 8
REMARK VINA RESULT:      -8.4      3.847      6.712
REMARK  Name = CHEMBL196688
REMARK  12 active torsions:
REMARK  status: ('A' for Active; 'I' for Inactive)
REMARK    1  A    between atoms: CD1_1  and  CG_2
REMARK    2  A    between atoms: CG_2  and  CD2_3
REMARK    3  A    between atoms: CG_2  and  CB_4
REMARK    4  A    between atoms: CB_4  and  CA_5
REMARK    5  A    between atoms: C_9  and  C_10
REMARK    6  A    between atoms: N_21  and  C_22
REMARK    7  A    between atoms: C_22  and  C_23
REMARK    8  A    between atoms: C_22  and  C_29
REMARK    9  A    between atoms: N_25  and  C_26
REMARK   10  A    between atoms: C_26  and  C_27
REMARK   11  A    between atoms: C_26  and  C_28
REMARK   12  A    between atoms: C_32  and  C_33
REMARK                            x       y       z     vdW  Elec       q    Type
REMARK                         _______ _______ _______ _____ _____    ______ ____
ROOT
ATOM      1  CA  LEU A   2      -7.851   1.948 129.228  0.00  0.00    +0.000 C 
ATOM      2  C   LEU A   2      -6.976   1.009 128.423  0.00  0.00    +0.000 C 
ATOM      3  O   LEU A   2      -6.317   0.046 128.849  0.00  0.00    +0.000 OA
ATOM      4  N   UNK A   1      -7.054   1.260 127.105  0.00  0.00    +0.000 N 
ATOM      5  C   UNK A   1      -7.863   2.348 126.572  0.00  0.00    +0.000 C 
ATOM      6  C   UNK A   1      -7.700   3.604 127.485  0.00  0.00    +0.000 C 
ATOM      7  O   UNK A   1      -7.753   4.733 126.997  0.00  0.00    +0.000 OA
ATOM      8  N   LEU A   2      -7.567   3.351 128.862  0.00  0.00    +0.000 N 
ATOM      9  H   UNK A   1      -6.528   0.619 126.524  0.00  0.00    +0.000 HD
ENDROOT
BRANCH   5  10
ATOM     10  C   UNK A   1      -7.387   2.785 125.171  0.00  0.00    +0.000 C 
ATOM     11  C   UNK A   1      -8.537   3.052 124.185  0.00  0.00    +0.000 C 
ATOM     12  C   UNK A   1      -8.741   1.688 123.599  0.00  0.00    +0.000 A 
ATOM     13  C   UNK A   1      -9.888   1.175 123.026  0.00  0.00    +0.000 A 
ATOM     14  C   UNK A   1      -9.909  -0.182 122.694  0.00  0.00    +0.000 A 
ATOM     15  C   UNK A   1      -8.800  -1.004 122.951  0.00  0.00    +0.000 A 
ATOM     16  C   UNK A   1      -7.644  -0.481 123.530  0.00  0.00    +0.000 A 
ATOM     17  C   UNK A   1      -7.621   0.871 123.826  0.00  0.00    +0.000 A 
ATOM     18  C   UNK A   1      -6.552   1.631 124.546  0.00  0.00    +0.000 C 
ENDBRANCH   5  10
BRANCH   1  19
ATOM     19  CB  LEU A   2      -7.684   1.639 130.653  0.00  0.00    +0.000 C 
BRANCH  19  21
ATOM     20  CD1 LEU A   2      -8.532  -0.331 131.670  0.00  0.00    +0.000 C 
ATOM     21  CG  LEU A   2      -8.988   0.956 131.135  0.00  0.00    +0.000 C 
ATOM     22  CD2 LEU A   2      -9.899   1.627 132.168  0.00  0.00    +0.000 C 
ENDBRANCH  19  21
ENDBRANCH   1  19
BRANCH   8  23
ATOM     23  C   UNK A   0      -7.376   4.529 129.846  0.00  0.00    +0.000 C 
BRANCH  23  24
ATOM     24  C   UNK A   0      -8.776   5.252 130.109  0.00  0.00    +0.000 A 
ATOM     25  C   UNK A   0      -9.991   4.593 130.425  0.00  0.00    +0.000 A 
ATOM     26  C   UNK A   0     -11.213   5.264 130.504  0.00  0.00    +0.000 A 
ATOM     27  C   UNK A   0     -11.233   6.652 130.472  0.00  0.00    +0.000 A 
ATOM     28  C   UNK A   0     -10.031   7.337 130.278  0.00  0.00    +0.000 A 
ATOM     29  C   UNK A   0      -8.835   6.648 130.059  0.00  0.00    +0.000 A 
BRANCH  27  30
ATOM     30  C   UNK A   0     -12.478   7.428 130.704  0.00  0.00    +0.000 C 
ATOM     31  N   UNK A   0     -12.700   8.546 129.950  0.00  0.00    +0.000 N 
ATOM     32  O   UNK A   0     -13.307   7.071 131.539  0.00  0.00    +0.000 OA
ATOM     33  H   UNK A   0     -12.087   8.894 129.230  0.00  0.00    +0.000 HD
ATOM     34  H   UNK A   0     -13.563   9.048 130.111  0.00  0.00    +0.000 HD
ENDBRANCH  27  30
ENDBRANCH  23  24
BRANCH  23  35
ATOM     35  C   UNK A   0      -6.451   4.520 131.339  0.00  0.00    +0.000 C 
ATOM     36  O   UNK A   0      -6.987   4.407 132.453  0.00  0.00    +0.000 OA
ATOM     37  N   UNK A   0      -5.067   4.640 131.389  0.00  0.00    +0.000 N 
ATOM     38  H   UNK A   0      -4.582   5.024 130.587  0.00  0.00    +0.000 HD
BRANCH  37  39
ATOM     39  C   UNK A   0      -4.300   4.357 132.668  0.00  0.00    +0.000 C 
ATOM     40  C   UNK A   0      -2.980   3.576 132.579  0.00  0.00    +0.000 C 
ATOM     41  C   UNK A   0      -3.843   5.628 133.311  0.00  0.00    +0.000 C 
ENDBRANCH  37  39
ENDBRANCH  23  35
ENDBRANCH   8  23
TORSDOF 8
ENDMDL
MODEL 9
REMARK VINA RESULT:      -8.2      3.022      7.704
REMARK  Name = CHEMBL196688
REMARK  12 active torsions:
REMARK  status: ('A' for Active; 'I' for Inactive)
REMARK    1  A    between atoms: CD1_1  and  CG_2
REMARK    2  A    between atoms: CG_2  and  CD2_3
REMARK    3  A    between atoms: CG_2  and  CB_4
REMARK    4  A    between atoms: CB_4  and  CA_5
REMARK    5  A    between atoms: C_9  and  C_10
REMARK    6  A    between atoms: N_21  and  C_22
REMARK    7  A    between atoms: C_22  and  C_23
REMARK    8  A    between atoms: C_22  and  C_29
REMARK    9  A    between atoms: N_25  and  C_26
REMARK   10  A    between atoms: C_26  and  C_27
REMARK   11  A    between atoms: C_26  and  C_28
REMARK   12  A    between atoms: C_32  and  C_33
REMARK                            x       y       z     vdW  Elec       q    Type
REMARK                         _______ _______ _______ _____ _____    ______ ____
ROOT
ATOM      1  CA  LEU A   2      -4.970   2.436 128.699  0.00  0.00    +0.000 C 
ATOM      2  C   LEU A   2      -5.986   1.502 128.075  0.00  0.00    +0.000 C 
ATOM      3  O   LEU A   2      -6.288   1.414 126.873  0.00  0.00    +0.000 OA
ATOM      4  N   UNK A   1      -6.500   0.647 128.977  0.00  0.00    +0.000 N 
ATOM      5  C   UNK A   1      -6.124   0.691 130.384  0.00  0.00    +0.000 C 
ATOM      6  C   UNK A   1      -6.032   2.178 130.846  0.00  0.00    +0.000 C 
ATOM      7  O   UNK A   1      -6.322   2.484 132.003  0.00  0.00    +0.000 OA
ATOM      8  N   LEU A   2      -5.543   3.091 129.893  0.00  0.00    +0.000 N 
ATOM      9  H   UNK A   1      -7.143  -0.032 128.591  0.00  0.00    +0.000 HD
ENDROOT
BRANCH   5  10
ATOM     10  C   UNK A   1      -7.192   0.037 131.284  0.00  0.00    +0.000 C 
ATOM     11  C   UNK A   1      -6.603  -0.790 132.440  0.00  0.00    +0.000 C 
ATOM     12  C   UNK A   1      -6.451  -2.131 131.789  0.00  0.00    +0.000 A 
ATOM     13  C   UNK A   1      -5.576  -3.145 132.129  0.00  0.00    +0.000 A 
ATOM     14  C   UNK A   1      -5.486  -4.251 131.281  0.00  0.00    +0.000 A 
ATOM     15  C   UNK A   1      -6.252  -4.323 130.107  0.00  0.00    +0.000 A 
ATOM     16  C   UNK A   1      -7.134  -3.297 129.767  0.00  0.00    +0.000 A 
ATOM     17  C   UNK A   1      -7.240  -2.220 130.630  0.00  0.00    +0.000 A 
ATOM     18  C   UNK A   1      -8.023  -0.961 130.428  0.00  0.00    +0.000 C 
ENDBRANCH   5  10
BRANCH   1  19
ATOM     19  CB  LEU A   2      -4.484   3.359 127.667  0.00  0.00    +0.000 C 
BRANCH  19  21
ATOM     20  CD1 LEU A   2      -2.296   2.981 126.829  0.00  0.00    +0.000 C 
ATOM     21  CG  LEU A   2      -2.985   3.625 127.951  0.00  0.00    +0.000 C 
ATOM     22  CD2 LEU A   2      -2.449   5.051 128.108  0.00  0.00    +0.000 C 
ENDBRANCH  19  21
ENDBRANCH   1  19
BRANCH   8  23
ATOM     23  C   UNK A   0      -5.438   4.593 130.249  0.00  0.00    +0.000 C 
BRANCH  23  24
ATOM     24  C   UNK A   0      -6.899   5.221 130.399  0.00  0.00    +0.000 A 
ATOM     25  C   UNK A   0      -7.237   6.318 131.231  0.00  0.00    +0.000 A 
ATOM     26  C   UNK A   0      -8.554   6.733 131.431  0.00  0.00    +0.000 A 
ATOM     27  C   UNK A   0      -9.566   6.197 130.647  0.00  0.00    +0.000 A 
ATOM     28  C   UNK A   0      -9.245   5.191 129.731  0.00  0.00    +0.000 A 
ATOM     29  C   UNK A   0      -7.945   4.686 129.642  0.00  0.00    +0.000 A 
BRANCH  27  30
ATOM     30  C   UNK A   0     -10.961   6.704 130.703  0.00  0.00    +0.000 C 
ATOM     31  N   UNK A   0     -11.838   6.107 131.565  0.00  0.00    +0.000 N 
ATOM     32  O   UNK A   0     -11.325   7.652 130.009  0.00  0.00    +0.000 OA
ATOM     33  H   UNK A   0     -11.616   5.345 132.185  0.00  0.00    +0.000 HD
ATOM     34  H   UNK A   0     -12.777   6.481 131.602  0.00  0.00    +0.000 HD
ENDBRANCH  27  30
ENDBRANCH  23  24
BRANCH  23  35
ATOM     35  C   UNK A   0      -4.378   5.324 131.443  0.00  0.00    +0.000 C 
ATOM     36  O   UNK A   0      -4.259   4.871 132.592  0.00  0.00    +0.000 OA
ATOM     37  N   UNK A   0      -3.604   6.451 131.198  0.00  0.00    +0.000 N 
ATOM     38  H   UNK A   0      -3.848   7.051 130.419  0.00  0.00    +0.000 HD
BRANCH  37  39
ATOM     39  C   UNK A   0      -2.512   6.880 132.163  0.00  0.00    +0.000 C 
ATOM     40  C   UNK A   0      -1.046   6.660 131.763  0.00  0.00    +0.000 C 
ATOM     41  C   UNK A   0      -2.537   8.360 132.377  0.00  0.00    +0.000 C 
ENDBRANCH  37  39
ENDBRANCH  23  35
ENDBRANCH   8  23
TORSDOF 8
ENDMDL
