MODEL 1
REMARK VINA RESULT:      -8.7      0.000      0.000
REMARK  Name = CHEMBL285013
REMARK  7 active torsions:
REMARK  status: ('A' for Active; 'I' for Inactive)
REMARK    1  A    between atoms: C_1  and  S_2
REMARK    2  A    between atoms: S_2  and  N_5
REMARK    3  A    between atoms: N_5  and  C_6
REMARK    4  A    between atoms: C_6  and  C_7
REMARK    5  A    between atoms: C_7  and  N_8
REMARK    6  A    between atoms: C_13  and  C_14
REMARK    7  A    between atoms: C_19  and  N_20
REMARK                            x       y       z     vdW  Elec       q    Type
REMARK                         _______ _______ _______ _____ _____    ______ ____
ROOT
ATOM      1  C   UNL     1      -5.052   5.699 130.808  0.00  0.00    +0.000 C 
ATOM      2  O   UNL     1      -4.470   5.109 129.894  0.00  0.00    +0.000 OA
ATOM      3  N   UNL     1      -4.338   6.522 131.750  0.00  0.00    +0.000 N 
ATOM      4  C   UNL     1      -3.486   7.631 131.293  0.00  0.00    +0.000 C 
ATOM      5  C   UNL     1      -2.130   7.736 132.041  0.00  0.00    +0.000 C 
ATOM      6  C   UNL     1      -2.301   8.066 133.811  0.00  0.00    +0.000 C 
ATOM      7  C   UNL     1      -3.147   6.548 134.009  0.00  0.00    +0.000 C 
ATOM      8  C   UNL     1      -4.489   6.464 133.212  0.00  0.00    +0.000 C 
ENDROOT
BRANCH   6   9
ATOM      9  N   UNL     1      -2.043   9.663 134.765  0.00  0.00    +0.000 N 
ATOM     10  C   UNL     1      -0.690   9.228 134.711  0.00  0.00    +0.000 C 
ATOM     11  O   UNL     1      -0.183   8.120 135.065  0.00  0.00    +0.000 OA
ATOM     12  O   UNL     1       0.052   9.994 133.942  0.00  0.00    +0.000 OA
ATOM     13  C   UNL     1       0.670  10.700 134.940  0.00  0.00    +0.000 C 
ATOM     14  C   UNL     1      -0.230  11.844 134.852  0.00  0.00    +0.000 A 
ATOM     15  C   UNL     1       0.640  13.126 134.884  0.00  0.00    +0.000 A 
ATOM     16  C   UNL     1       0.343  14.336 135.430  0.00  0.00    +0.000 A 
ATOM     17  C   UNL     1      -0.904  14.222 135.986  0.00  0.00    +0.000 A 
ATOM     18  C   UNL     1      -1.875  12.846 135.829  0.00  0.00    +0.000 A 
ATOM     19  C   UNL     1      -1.588  11.465 135.062  0.00  0.00    +0.000 A 
ENDBRANCH   6   9
BRANCH   1  25
ATOM     20  N   UNL     1     -10.778   5.147 130.661  0.00  0.00    +0.000 N 
ATOM     21  C   UNL     1     -10.886   3.808 130.360  0.00  0.00    +0.000 A 
ATOM     22  C   UNL     1      -9.620   3.289 130.223  0.00  0.00    +0.000 A 
ATOM     23  C   UNL     1      -8.684   4.327 130.489  0.00  0.00    +0.000 A 
ATOM     24  C   UNL     1      -7.256   4.388 130.521  0.00  0.00    +0.000 A 
ATOM     25  C   UNL     1      -6.580   5.596 130.837  0.00  0.00    +0.000 A 
ATOM     26  C   UNL     1      -7.370   6.718 131.071  0.00  0.00    +0.000 A 
ATOM     27  C   UNL     1      -8.779   6.688 131.054  0.00  0.00    +0.000 A 
ATOM     28  C   UNL     1      -9.432   5.483 130.761  0.00  0.00    +0.000 A 
BRANCH  20  29
ATOM     29  C   UNL     1     -11.937   6.030 130.841  0.00  0.00    +0.000 C 
BRANCH  29  30
ATOM     30  C   UNL     1     -12.093   7.040 129.694  0.00  0.00    +0.000 C 
BRANCH  30  31
ATOM     31  N   UNL     1     -12.077   6.401 128.324  0.00  0.00    +0.000 NA
ATOM     32  H   UNL     1     -11.938   5.391 128.404  0.00  0.00    +0.000 HD
BRANCH  31  34
ATOM     33  C   UNL     1     -10.464   8.643 128.155  0.00  0.00    +0.000 C 
ATOM     34  S   UNL     1     -10.826   7.080 127.367  0.00  0.00    +0.000 S 
ATOM     35  O   UNL     1     -11.424   7.355 126.079  0.00  0.00    +0.000 OA
ATOM     36  O   UNL     1      -9.672   6.221 127.500  0.00  0.00    +0.000 OA
ENDBRANCH  31  34
ENDBRANCH  30  31
ENDBRANCH  29  30
ENDBRANCH  20  29
ENDBRANCH   1  25
TORSDOF 6
ENDMDL
MODEL 2
REMARK VINA RESULT:      -8.6      9.146     11.035
REMARK  Name = CHEMBL285013
REMARK  7 active torsions:
REMARK  status: ('A' for Active; 'I' for Inactive)
REMARK    1  A    between atoms: C_1  and  S_2
REMARK    2  A    between atoms: S_2  and  N_5
REMARK    3  A    between atoms: N_5  and  C_6
REMARK    4  A    between atoms: C_6  and  C_7
REMARK    5  A    between atoms: C_7  and  N_8
REMARK    6  A    between atoms: C_13  and  C_14
REMARK    7  A    between atoms: C_19  and  N_20
REMARK                            x       y       z     vdW  Elec       q    Type
REMARK                         _______ _______ _______ _____ _____    ______ ____
ROOT
ATOM      1  C   UNL     1      -8.203  -3.384 128.394  0.00  0.00    +0.000 C 
ATOM      2  O   UNL     1      -8.788  -4.466 128.294  0.00  0.00    +0.000 OA
ATOM      3  N   UNL     1      -7.389  -3.069 129.540  0.00  0.00    +0.000 N 
ATOM      4  C   UNL     1      -6.279  -3.946 129.945  0.00  0.00    +0.000 C 
ATOM      5  C   UNL     1      -6.184  -4.179 131.476  0.00  0.00    +0.000 C 
ATOM      6  C   UNL     1      -5.866  -2.671 132.421  0.00  0.00    +0.000 C 
ATOM      7  C   UNL     1      -7.383  -2.004 131.861  0.00  0.00    +0.000 C 
ATOM      8  C   UNL     1      -7.457  -1.818 130.311  0.00  0.00    +0.000 C 
ENDROOT
BRANCH   6   9
ATOM      9  N   UNL     1      -4.277  -2.066 133.219  0.00  0.00    +0.000 N 
ATOM     10  C   UNL     1      -4.644  -3.037 134.190  0.00  0.00    +0.000 C 
ATOM     11  O   UNL     1      -5.732  -3.170 134.828  0.00  0.00    +0.000 OA
ATOM     12  O   UNL     1      -3.827  -4.069 134.199  0.00  0.00    +0.000 OA
ATOM     13  C   UNL     1      -3.112  -3.715 135.313  0.00  0.00    +0.000 C 
ATOM     14  C   UNL     1      -2.011  -3.119 134.563  0.00  0.00    +0.000 A 
ATOM     15  C   UNL     1      -0.689  -3.622 135.195  0.00  0.00    +0.000 A 
ATOM     16  C   UNL     1       0.494  -2.962 135.317  0.00  0.00    +0.000 A 
ATOM     17  C   UNL     1       0.308  -1.717 134.776  0.00  0.00    +0.000 A 
ATOM     18  C   UNL     1      -1.110  -1.244 133.986  0.00  0.00    +0.000 A 
ATOM     19  C   UNL     1      -2.461  -2.068 133.713  0.00  0.00    +0.000 A 
ENDBRANCH   6   9
BRANCH   1  25
ATOM     20  N   UNL     1      -8.476  -0.028 123.727  0.00  0.00    +0.000 N 
ATOM     21  C   UNL     1      -9.078  -0.892 122.841  0.00  0.00    +0.000 A 
ATOM     22  C   UNL     1      -9.287  -2.094 123.477  0.00  0.00    +0.000 A 
ATOM     23  C   UNL     1      -8.838  -1.967 124.822  0.00  0.00    +0.000 A 
ATOM     24  C   UNL     1      -8.814  -2.851 125.944  0.00  0.00    +0.000 A 
ATOM     25  C   UNL     1      -8.301  -2.430 127.199  0.00  0.00    +0.000 A 
ATOM     26  C   UNL     1      -7.788  -1.138 127.269  0.00  0.00    +0.000 A 
ATOM     27  C   UNL     1      -7.804  -0.240 126.183  0.00  0.00    +0.000 A 
ATOM     28  C   UNL     1      -8.334  -0.664 124.956  0.00  0.00    +0.000 A 
BRANCH  20  29
ATOM     29  C   UNL     1      -8.073   1.339 123.374  0.00  0.00    +0.000 C 
BRANCH  29  30
ATOM     30  C   UNL     1      -8.989   2.403 123.998  0.00  0.00    +0.000 C 
BRANCH  30  31
ATOM     31  N   UNL     1      -8.374   3.783 124.027  0.00  0.00    +0.000 NA
ATOM     32  H   UNL     1      -7.500   3.796 123.496  0.00  0.00    +0.000 HD
BRANCH  31  34
ATOM     33  C   UNL     1      -6.308   4.552 125.698  0.00  0.00    +0.000 C 
ATOM     34  S   UNL     1      -8.070   4.265 125.645  0.00  0.00    +0.000 S 
ATOM     35  O   UNL     1      -8.361   3.105 126.460  0.00  0.00    +0.000 OA
ATOM     36  O   UNL     1      -8.747   5.524 125.851  0.00  0.00    +0.000 OA
ENDBRANCH  31  34
ENDBRANCH  30  31
ENDBRANCH  29  30
ENDBRANCH  20  29
ENDBRANCH   1  25
TORSDOF 6
ENDMDL
MODEL 3
REMARK VINA RESULT:      -8.6      4.863      6.541
REMARK  Name = CHEMBL285013
REMARK  7 active torsions:
REMARK  status: ('A' for Active; 'I' for Inactive)
REMARK    1  A    between atoms: C_1  and  S_2
REMARK    2  A    between atoms: S_2  and  N_5
REMARK    3  A    between atoms: N_5  and  C_6
REMARK    4  A    between atoms: C_6  and  C_7
REMARK    5  A    between atoms: C_7  and  N_8
REMARK    6  A    between atoms: C_13  and  C_14
REMARK    7  A    between atoms: C_19  and  N_20
REMARK                            x       y       z     vdW  Elec       q    Type
REMARK                         _______ _______ _______ _____ _____    ______ ____
ROOT
ATOM      1  C   UNL     1      -2.933   4.909 131.794  0.00  0.00    +0.000 C 
ATOM      2  O   UNL     1      -1.715   5.008 131.966  0.00  0.00    +0.000 OA
ATOM      3  N   UNL     1      -3.869   5.166 132.859  0.00  0.00    +0.000 N 
ATOM      4  C   UNL     1      -3.861   6.448 133.580  0.00  0.00    +0.000 C 
ATOM      5  C   UNL     1      -4.031   6.309 135.116  0.00  0.00    +0.000 C 
ATOM      6  C   UNL     1      -5.612   5.583 135.609  0.00  0.00    +0.000 C 
ATOM      7  C   UNL     1      -5.191   4.107 134.769  0.00  0.00    +0.000 C 
ATOM      8  C   UNL     1      -4.991   4.292 133.230  0.00  0.00    +0.000 C 
ENDROOT
BRANCH   6   9
ATOM      9  N   UNL     1      -7.144   6.407 136.316  0.00  0.00    +0.000 N 
ATOM     10  C   UNL     1      -6.453   6.165 137.535  0.00  0.00    +0.000 C 
ATOM     11  O   UNL     1      -5.977   5.082 137.992  0.00  0.00    +0.000 OA
ATOM     12  O   UNL     1      -6.038   7.276 138.104  0.00  0.00    +0.000 OA
ATOM     13  C   UNL     1      -7.013   7.357 139.063  0.00  0.00    +0.000 C 
ATOM     14  C   UNL     1      -7.838   8.298 138.313  0.00  0.00    +0.000 A 
ATOM     15  C   UNL     1      -8.291   9.408 139.296  0.00  0.00    +0.000 A 
ATOM     16  C   UNL     1      -9.463  10.097 139.312  0.00  0.00    +0.000 A 
ATOM     17  C   UNL     1     -10.218   9.612 138.276  0.00  0.00    +0.000 A 
ATOM     18  C   UNL     1      -9.648   8.487 137.150  0.00  0.00    +0.000 A 
ATOM     19  C   UNL     1      -8.212   7.776 137.041  0.00  0.00    +0.000 A 
ENDBRANCH   6   9
BRANCH   1  25
ATOM     20  N   UNL     1      -4.568   3.477 126.466  0.00  0.00    +0.000 N 
ATOM     21  C   UNL     1      -4.904   2.156 126.660  0.00  0.00    +0.000 A 
ATOM     22  C   UNL     1      -4.668   1.837 127.977  0.00  0.00    +0.000 A 
ATOM     23  C   UNL     1      -4.208   3.008 128.642  0.00  0.00    +0.000 A 
ATOM     24  C   UNL     1      -3.828   3.296 129.990  0.00  0.00    +0.000 A 
ATOM     25  C   UNL     1      -3.409   4.597 130.371  0.00  0.00    +0.000 A 
ATOM     26  C   UNL     1      -3.347   5.560 129.368  0.00  0.00    +0.000 A 
ATOM     27  C   UNL     1      -3.721   5.308 128.032  0.00  0.00    +0.000 A 
ATOM     28  C   UNL     1      -4.153   4.024 127.676  0.00  0.00    +0.000 A 
BRANCH  20  29
ATOM     29  C   UNL     1      -4.659   4.150 125.163  0.00  0.00    +0.000 C 
BRANCH  29  30
ATOM     30  C   UNL     1      -6.104   4.256 124.655  0.00  0.00    +0.000 C 
BRANCH  30  31
ATOM     31  N   UNL     1      -6.878   5.395 125.277  0.00  0.00    +0.000 NA
ATOM     32  H   UNL     1      -6.328   5.838 126.016  0.00  0.00    +0.000 HD
BRANCH  31  34
ATOM     33  C   UNL     1      -7.908   4.128 127.510  0.00  0.00    +0.000 C 
ATOM     34  S   UNL     1      -8.359   4.823 125.927  0.00  0.00    +0.000 S 
ATOM     35  O   UNL     1      -8.773   3.739 125.062  0.00  0.00    +0.000 OA
ATOM     36  O   UNL     1      -9.199   5.976 126.154  0.00  0.00    +0.000 OA
ENDBRANCH  31  34
ENDBRANCH  30  31
ENDBRANCH  29  30
ENDBRANCH  20  29
ENDBRANCH   1  25
TORSDOF 6
ENDMDL
MODEL 4
REMARK VINA RESULT:      -8.4      6.324      8.745
REMARK  Name = CHEMBL285013
REMARK  7 active torsions:
REMARK  status: ('A' for Active; 'I' for Inactive)
REMARK    1  A    between atoms: C_1  and  S_2
REMARK    2  A    between atoms: S_2  and  N_5
REMARK    3  A    between atoms: N_5  and  C_6
REMARK    4  A    between atoms: C_6  and  C_7
REMARK    5  A    between atoms: C_7  and  N_8
REMARK    6  A    between atoms: C_13  and  C_14
REMARK    7  A    between atoms: C_19  and  N_20
REMARK                            x       y       z     vdW  Elec       q    Type
REMARK                         _______ _______ _______ _____ _____    ______ ____
ROOT
ATOM      1  C   UNL     1      -7.461  -2.139 130.986  0.00  0.00    +0.000 C 
ATOM      2  O   UNL     1      -7.514  -3.098 131.761  0.00  0.00    +0.000 OA
ATOM      3  N   UNL     1      -7.298  -0.790 131.463  0.00  0.00    +0.000 N 
ATOM      4  C   UNL     1      -6.164  -0.425 132.327  0.00  0.00    +0.000 C 
ATOM      5  C   UNL     1      -6.544   0.506 133.508  0.00  0.00    +0.000 C 
ATOM      6  C   UNL     1      -7.184   2.115 132.987  0.00  0.00    +0.000 C 
ATOM      7  C   UNL     1      -8.529   1.322 132.200  0.00  0.00    +0.000 C 
ATOM      8  C   UNL     1      -8.107   0.363 131.041  0.00  0.00    +0.000 C 
ENDROOT
BRANCH   6   9
ATOM      9  N   UNL     1      -6.344   3.795 132.976  0.00  0.00    +0.000 N 
ATOM     10  C   UNL     1      -7.071   3.931 134.190  0.00  0.00    +0.000 C 
ATOM     11  O   UNL     1      -8.311   3.778 134.411  0.00  0.00    +0.000 OA
ATOM     12  O   UNL     1      -6.285   3.951 135.245  0.00  0.00    +0.000 OA
ATOM     13  C   UNL     1      -6.320   5.303 135.464  0.00  0.00    +0.000 C 
ATOM     14  C   UNL     1      -5.058   5.567 134.781  0.00  0.00    +0.000 A 
ATOM     15  C   UNL     1      -4.238   6.533 135.672  0.00  0.00    +0.000 A 
ATOM     16  C   UNL     1      -3.381   7.517 135.287  0.00  0.00    +0.000 A 
ATOM     17  C   UNL     1      -3.376   7.520 133.917  0.00  0.00    +0.000 A 
ATOM     18  C   UNL     1      -4.190   6.374 132.976  0.00  0.00    +0.000 A 
ATOM     19  C   UNL     1      -5.088   5.122 133.427  0.00  0.00    +0.000 A 
ENDBRANCH   6   9
BRANCH   1  25
ATOM     20  N   UNL     1      -7.424  -3.053 125.304  0.00  0.00    +0.000 N 
ATOM     21  C   UNL     1      -6.215  -2.485 124.973  0.00  0.00    +0.000 A 
ATOM     22  C   UNL     1      -5.646  -1.976 126.118  0.00  0.00    +0.000 A 
ATOM     23  C   UNL     1      -6.507  -2.272 127.211  0.00  0.00    +0.000 A 
ATOM     24  C   UNL     1      -6.444  -2.022 128.617  0.00  0.00    +0.000 A 
ATOM     25  C   UNL     1      -7.478  -2.458 129.487  0.00  0.00    +0.000 A 
ATOM     26  C   UNL     1      -8.566  -3.098 128.902  0.00  0.00    +0.000 A 
ATOM     27  C   UNL     1      -8.655  -3.366 127.521  0.00  0.00    +0.000 A 
ATOM     28  C   UNL     1      -7.616  -2.948 126.678  0.00  0.00    +0.000 A 
BRANCH  20  29
ATOM     29  C   UNL     1      -8.325  -3.664 124.318  0.00  0.00    +0.000 C 
BRANCH  29  30
ATOM     30  C   UNL     1      -8.535  -2.777 123.082  0.00  0.00    +0.000 C 
BRANCH  30  31
ATOM     31  N   UNL     1      -9.689  -1.812 123.223  0.00  0.00    +0.000 NA
ATOM     32  H   UNL     1     -10.178  -1.709 122.331  0.00  0.00    +0.000 HD
BRANCH  31  34
ATOM     33  C   UNL     1     -10.152   0.894 122.881  0.00  0.00    +0.000 C 
ATOM     34  S   UNL     1      -9.122  -0.281 123.748  0.00  0.00    +0.000 S 
ATOM     35  O   UNL     1      -7.776  -0.164 123.232  0.00  0.00    +0.000 OA
ATOM     36  O   UNL     1      -9.404  -0.183 125.162  0.00  0.00    +0.000 OA
ENDBRANCH  31  34
ENDBRANCH  30  31
ENDBRANCH  29  30
ENDBRANCH  20  29
ENDBRANCH   1  25
TORSDOF 6
ENDMDL
MODEL 5
REMARK VINA RESULT:      -8.3      7.342      9.991
REMARK  Name = CHEMBL285013
REMARK  7 active torsions:
REMARK  status: ('A' for Active; 'I' for Inactive)
REMARK    1  A    between atoms: C_1  and  S_2
REMARK    2  A    between atoms: S_2  and  N_5
REMARK    3  A    between atoms: N_5  and  C_6
REMARK    4  A    between atoms: C_6  and  C_7
REMARK    5  A    between atoms: C_7  and  N_8
REMARK    6  A    between atoms: C_13  and  C_14
REMARK    7  A    between atoms: C_19  and  N_20
REMARK                            x       y       z     vdW  Elec       q    Type
REMARK                         _______ _______ _______ _____ _____    ______ ____
ROOT
ATOM      1  C   UNL     1      -6.669  -0.061 130.480  0.00  0.00    +0.000 C 
ATOM      2  O   UNL     1      -5.771  -0.480 131.214  0.00  0.00    +0.000 OA
ATOM      3  N   UNL     1      -7.491   1.061 130.858  0.00  0.00    +0.000 N 
ATOM      4  C   UNL     1      -6.887   2.355 131.213  0.00  0.00    +0.000 C 
ATOM      5  C   UNL     1      -7.533   3.034 132.451  0.00  0.00    +0.000 C 
ATOM      6  C   UNL     1      -9.276   3.455 132.220  0.00  0.00    +0.000 C 
ATOM      7  C   UNL     1      -9.655   1.760 132.018  0.00  0.00    +0.000 C 
ATOM      8  C   UNL     1      -8.958   1.100 130.784  0.00  0.00    +0.000 C 
ENDROOT
BRANCH   6   9
ATOM      9  N   UNL     1     -10.074   5.122 131.885  0.00  0.00    +0.000 N 
ATOM     10  C   UNL     1      -9.386   4.965 130.650  0.00  0.00    +0.000 C 
ATOM     11  O   UNL     1      -8.158   4.730 130.434  0.00  0.00    +0.000 OA
ATOM     12  O   UNL     1     -10.207   4.777 129.640  0.00  0.00    +0.000 OA
ATOM     13  C   UNL     1     -10.147   6.046 129.127  0.00  0.00    +0.000 C 
ATOM     14  C   UNL     1     -11.378   6.492 129.770  0.00  0.00    +0.000 A 
ATOM     15  C   UNL     1     -12.205   7.264 128.711  0.00  0.00    +0.000 A 
ATOM     16  C   UNL     1     -13.025   8.333 128.893  0.00  0.00    +0.000 A 
ATOM     17  C   UNL     1     -12.983   8.638 130.228  0.00  0.00    +0.000 A 
ATOM     18  C   UNL     1     -12.166   7.703 131.375  0.00  0.00    +0.000 A 
ATOM     19  C   UNL     1     -11.313   6.355 131.187  0.00  0.00    +0.000 A 
ENDBRANCH   6   9
BRANCH   1  25
ATOM     20  N   UNL     1      -7.223  -2.816 125.459  0.00  0.00    +0.000 N 
ATOM     21  C   UNL     1      -8.288  -3.639 125.748  0.00  0.00    +0.000 A 
ATOM     22  C   UNL     1      -8.663  -3.422 127.053  0.00  0.00    +0.000 A 
ATOM     23  C   UNL     1      -7.833  -2.398 127.589  0.00  0.00    +0.000 A 
ATOM     24  C   UNL     1      -7.761  -1.746 128.859  0.00  0.00    +0.000 A 
ATOM     25  C   UNL     1      -6.808  -0.723 129.105  0.00  0.00    +0.000 A 
ATOM     26  C   UNL     1      -5.927  -0.420 128.071  0.00  0.00    +0.000 A 
ATOM     27  C   UNL     1      -5.977  -1.040 126.806  0.00  0.00    +0.000 A 
ATOM     28  C   UNL     1      -6.938  -2.033 126.572  0.00  0.00    +0.000 A 
BRANCH  20  29
ATOM     29  C   UNL     1      -6.540  -2.808 124.158  0.00  0.00    +0.000 C 
BRANCH  29  30
ATOM     30  C   UNL     1      -6.985  -1.640 123.266  0.00  0.00    +0.000 C 
BRANCH  30  31
ATOM     31  N   UNL     1      -8.454  -1.679 122.913  0.00  0.00    +0.000 NA
ATOM     32  H   UNL     1      -8.576  -1.784 121.903  0.00  0.00    +0.000 HD
BRANCH  31  34
ATOM     33  C   UNL     1      -7.951   1.002 123.374  0.00  0.00    +0.000 C 
ATOM     34  S   UNL     1      -9.231  -0.244 123.440  0.00  0.00    +0.000 S 
ATOM     35  O   UNL     1      -9.567  -0.468 124.829  0.00  0.00    +0.000 OA
ATOM     36  O   UNL     1     -10.240   0.081 122.459  0.00  0.00    +0.000 OA
ENDBRANCH  31  34
ENDBRANCH  30  31
ENDBRANCH  29  30
ENDBRANCH  20  29
ENDBRANCH   1  25
TORSDOF 6
ENDMDL
MODEL 6
REMARK VINA RESULT:      -8.3      5.169     12.448
REMARK  Name = CHEMBL285013
REMARK  7 active torsions:
REMARK  status: ('A' for Active; 'I' for Inactive)
REMARK    1  A    between atoms: C_1  and  S_2
REMARK    2  A    between atoms: S_2  and  N_5
REMARK    3  A    between atoms: N_5  and  C_6
REMARK    4  A    between atoms: C_6  and  C_7
REMARK    5  A    between atoms: C_7  and  N_8
REMARK    6  A    between atoms: C_13  and  C_14
REMARK    7  A    between atoms: C_19  and  N_20
REMARK                            x       y       z     vdW  Elec       q    Type
REMARK                         _______ _______ _______ _____ _____    ______ ____
ROOT
ATOM      1  C   UNL     1      -4.174   5.289 128.464  0.00  0.00    +0.000 C 
ATOM      2  O   UNL     1      -3.390   5.938 127.766  0.00  0.00    +0.000 OA
ATOM      3  N   UNL     1      -5.136   4.389 127.882  0.00  0.00    +0.000 N 
ATOM      4  C   UNL     1      -4.711   3.307 126.981  0.00  0.00    +0.000 C 
ATOM      5  C   UNL     1      -5.619   3.129 125.735  0.00  0.00    +0.000 C 
ATOM      6  C   UNL     1      -7.321   2.670 126.137  0.00  0.00    +0.000 C 
ATOM      7  C   UNL     1      -7.521   4.180 126.997  0.00  0.00    +0.000 C 
ATOM      8  C   UNL     1      -6.565   4.340 128.223  0.00  0.00    +0.000 C 
ENDROOT
BRANCH   6   9
ATOM      9  N   UNL     1      -8.177   1.003 126.010  0.00  0.00    +0.000 N 
ATOM     10  C   UNL     1      -8.706   1.603 124.833  0.00  0.00    +0.000 C 
ATOM     11  O   UNL     1      -9.315   2.706 124.693  0.00  0.00    +0.000 OA
ATOM     12  O   UNL     1      -8.246   1.041 123.736  0.00  0.00    +0.000 OA
ATOM     13  C   UNL     1      -9.354   0.289 123.446  0.00  0.00    +0.000 C 
ATOM     14  C   UNL     1      -8.826  -0.934 124.041  0.00  0.00    +0.000 A 
ATOM     15  C   UNL     1      -9.110  -2.094 123.053  0.00  0.00    +0.000 A 
ATOM     16  C   UNL     1      -9.399  -3.393 123.335  0.00  0.00    +0.000 A 
ATOM     17  C   UNL     1      -9.412  -3.506 124.700  0.00  0.00    +0.000 A 
ATOM     18  C   UNL     1      -8.979  -2.250 125.746  0.00  0.00    +0.000 A 
ATOM     19  C   UNL     1      -8.498  -0.753 125.416  0.00  0.00    +0.000 A 
ENDBRANCH   6   9
BRANCH   1  25
ATOM     20  N   UNL     1      -3.717   5.478 134.197  0.00  0.00    +0.000 N 
ATOM     21  C   UNL     1      -3.381   4.168 134.459  0.00  0.00    +0.000 A 
ATOM     22  C   UNL     1      -3.347   3.482 133.267  0.00  0.00    +0.000 A 
ATOM     23  C   UNL     1      -3.629   4.401 132.218  0.00  0.00    +0.000 A 
ATOM     24  C   UNL     1      -3.713   4.283 130.796  0.00  0.00    +0.000 A 
ATOM     25  C   UNL     1      -4.011   5.409 129.983  0.00  0.00    +0.000 A 
ATOM     26  C   UNL     1      -4.256   6.612 130.638  0.00  0.00    +0.000 A 
ATOM     27  C   UNL     1      -4.174   6.762 132.037  0.00  0.00    +0.000 A 
ATOM     28  C   UNL     1      -3.858   5.645 132.824  0.00  0.00    +0.000 A 
BRANCH  20  29
ATOM     29  C   UNL     1      -3.881   6.493 135.246  0.00  0.00    +0.000 C 
BRANCH  29  30
ATOM     30  C   UNL     1      -2.647   7.395 135.391  0.00  0.00    +0.000 C 
BRANCH  30  31
ATOM     31  N   UNL     1      -1.340   6.638 135.352  0.00  0.00    +0.000 NA
ATOM     32  H   UNL     1      -0.834   6.754 136.233  0.00  0.00    +0.000 HD
BRANCH  31  34
ATOM     33  C   UNL     1      -1.184   8.685 133.498  0.00  0.00    +0.000 C 
ATOM     34  S   UNL     1      -0.369   7.195 134.053  0.00  0.00    +0.000 S 
ATOM     35  O   UNL     1      -0.498   6.199 133.012  0.00  0.00    +0.000 OA
ATOM     36  O   UNL     1       0.918   7.553 134.604  0.00  0.00    +0.000 OA
ENDBRANCH  31  34
ENDBRANCH  30  31
ENDBRANCH  29  30
ENDBRANCH  20  29
ENDBRANCH   1  25
TORSDOF 6
ENDMDL
MODEL 7
REMARK VINA RESULT:      -8.2      7.358     10.940
REMARK  Name = CHEMBL285013
REMARK  7 active torsions:
REMARK  status: ('A' for Active; 'I' for Inactive)
REMARK    1  A    between atoms: C_1  and  S_2
REMARK    2  A    between atoms: S_2  and  N_5
REMARK    3  A    between atoms: N_5  and  C_6
REMARK    4  A    between atoms: C_6  and  C_7
REMARK    5  A    between atoms: C_7  and  N_8
REMARK    6  A    between atoms: C_13  and  C_14
REMARK    7  A    between atoms: C_19  and  N_20
REMARK                            x       y       z     vdW  Elec       q    Type
REMARK                         _______ _______ _______ _____ _____    ______ ____
ROOT
ATOM      1  C   UNL     1      -6.104  -0.818 131.983  0.00  0.00    +0.000 C 
ATOM      2  O   UNL     1      -5.278  -1.146 131.127  0.00  0.00    +0.000 OA
ATOM      3  N   UNL     1      -6.668   0.507 132.018  0.00  0.00    +0.000 N 
ATOM      4  C   UNL     1      -7.348   1.071 130.842  0.00  0.00    +0.000 C 
ATOM      5  C   UNL     1      -6.996   2.556 130.561  0.00  0.00    +0.000 C 
ATOM      6  C   UNL     1      -7.490   3.682 131.887  0.00  0.00    +0.000 C 
ATOM      7  C   UNL     1      -6.411   2.855 132.986  0.00  0.00    +0.000 C 
ATOM      8  C   UNL     1      -6.773   1.352 133.216  0.00  0.00    +0.000 C 
ENDROOT
BRANCH   6   9
ATOM      9  N   UNL     1      -8.941   4.872 131.974  0.00  0.00    +0.000 N 
ATOM     10  C   UNL     1      -7.989   5.743 131.376  0.00  0.00    +0.000 C 
ATOM     11  O   UNL     1      -6.819   6.048 131.760  0.00  0.00    +0.000 OA
ATOM     12  O   UNL     1      -8.293   6.036 130.130  0.00  0.00    +0.000 OA
ATOM     13  C   UNL     1      -8.795   7.290 130.362  0.00  0.00    +0.000 C 
ATOM     14  C   UNL     1     -10.188   6.859 130.379  0.00  0.00    +0.000 A 
ATOM     15  C   UNL     1     -11.000   7.868 129.527  0.00  0.00    +0.000 A 
ATOM     16  C   UNL     1     -12.279   8.292 129.708  0.00  0.00    +0.000 A 
ATOM     17  C   UNL     1     -12.747   7.661 130.831  0.00  0.00    +0.000 A 
ATOM     18  C   UNL     1     -11.878   6.475 131.668  0.00  0.00    +0.000 A 
ATOM     19  C   UNL     1     -10.421   5.866 131.374  0.00  0.00    +0.000 A 
ENDBRANCH   6   9
BRANCH   1  25
ATOM     20  N   UNL     1      -7.699  -5.123 135.451  0.00  0.00    +0.000 N 
ATOM     21  C   UNL     1      -6.476  -5.705 135.698  0.00  0.00    +0.000 A 
ATOM     22  C   UNL     1      -5.515  -5.010 134.999  0.00  0.00    +0.000 A 
ATOM     23  C   UNL     1      -6.152  -3.931 134.325  0.00  0.00    +0.000 A 
ATOM     24  C   UNL     1      -5.683  -2.878 133.479  0.00  0.00    +0.000 A 
ATOM     25  C   UNL     1      -6.576  -1.912 132.946  0.00  0.00    +0.000 A 
ATOM     26  C   UNL     1      -7.926  -2.065 133.250  0.00  0.00    +0.000 A 
ATOM     27  C   UNL     1      -8.418  -3.088 134.086  0.00  0.00    +0.000 A 
ATOM     28  C   UNL     1      -7.520  -4.021 134.622  0.00  0.00    +0.000 A 
BRANCH  20  29
ATOM     29  C   UNL     1      -8.960  -5.630 136.009  0.00  0.00    +0.000 C 
BRANCH  29  30
ATOM     30  C   UNL     1      -9.305  -4.991 137.362  0.00  0.00    +0.000 C 
BRANCH  30  31
ATOM     31  N   UNL     1     -10.123  -3.726 137.238  0.00  0.00    +0.000 NA
ATOM     32  H   UNL     1     -10.192  -3.441 136.259  0.00  0.00    +0.000 HD
BRANCH  31  34
ATOM     33  C   UNL     1      -9.047  -3.218 139.736  0.00  0.00    +0.000 C 
ATOM     34  S   UNL     1      -9.410  -2.465 138.156  0.00  0.00    +0.000 S 
ATOM     35  O   UNL     1     -10.457  -1.486 138.355  0.00  0.00    +0.000 OA
ATOM     36  O   UNL     1      -8.163  -2.122 137.514  0.00  0.00    +0.000 OA
ENDBRANCH  31  34
ENDBRANCH  30  31
ENDBRANCH  29  30
ENDBRANCH  20  29
ENDBRANCH   1  25
TORSDOF 6
ENDMDL
MODEL 8
REMARK VINA RESULT:      -8.2     10.900     13.078
REMARK  Name = CHEMBL285013
REMARK  7 active torsions:
REMARK  status: ('A' for Active; 'I' for Inactive)
REMARK    1  A    between atoms: C_1  and  S_2
REMARK    2  A    between atoms: S_2  and  N_5
REMARK    3  A    between atoms: N_5  and  C_6
REMARK    4  A    between atoms: C_6  and  C_7
REMARK    5  A    between atoms: C_7  and  N_8
REMARK    6  A    between atoms: C_13  and  C_14
REMARK    7  A    between atoms: C_19  and  N_20
REMARK                            x       y       z     vdW  Elec       q    Type
REMARK                         _______ _______ _______ _____ _____    ______ ____
ROOT
ATOM      1  C   UNL     1      -5.413  -1.881 129.593  0.00  0.00    +0.000 C 
ATOM      2  O   UNL     1      -4.633  -0.929 129.684  0.00  0.00    +0.000 OA
ATOM      3  N   UNL     1      -5.787  -2.663 130.743  0.00  0.00    +0.000 N 
ATOM      4  C   UNL     1      -6.370  -2.026 131.934  0.00  0.00    +0.000 C 
ATOM      5  C   UNL     1      -5.811  -2.567 133.277  0.00  0.00    +0.000 C 
ATOM      6  C   UNL     1      -6.156  -4.321 133.553  0.00  0.00    +0.000 C 
ATOM      7  C   UNL     1      -5.214  -4.725 132.136  0.00  0.00    +0.000 C 
ATOM      8  C   UNL     1      -5.785  -4.132 130.807  0.00  0.00    +0.000 C 
ENDROOT
BRANCH   6   9
ATOM      9  N   UNL     1      -7.427  -5.134 134.671  0.00  0.00    +0.000 N 
ATOM     10  C   UNL     1      -6.372  -4.995 135.615  0.00  0.00    +0.000 C 
ATOM     11  O   UNL     1      -5.166  -5.382 135.542  0.00  0.00    +0.000 OA
ATOM     12  O   UNL     1      -6.650  -4.113 136.550  0.00  0.00    +0.000 OA
ATOM     13  C   UNL     1      -6.970  -5.002 137.542  0.00  0.00    +0.000 C 
ATOM     14  C   UNL     1      -8.410  -4.911 137.323  0.00  0.00    +0.000 A 
ATOM     15  C   UNL     1      -9.085  -4.777 138.712  0.00  0.00    +0.000 A 
ATOM     16  C   UNL     1     -10.291  -5.259 139.115  0.00  0.00    +0.000 A 
ATOM     17  C   UNL     1     -10.826  -5.927 138.045  0.00  0.00    +0.000 A 
ATOM     18  C   UNL     1     -10.118  -5.951 136.510  0.00  0.00    +0.000 A 
ATOM     19  C   UNL     1      -8.764  -5.263 135.988  0.00  0.00    +0.000 A 
ENDBRANCH   6   9
BRANCH   1  25
ATOM     20  N   UNL     1      -7.572  -2.636 124.312  0.00  0.00    +0.000 N 
ATOM     21  C   UNL     1      -6.409  -2.804 123.595  0.00  0.00    +0.000 A 
ATOM     22  C   UNL     1      -5.345  -2.688 124.458  0.00  0.00    +0.000 A 
ATOM     23  C   UNL     1      -5.858  -2.482 125.769  0.00  0.00    +0.000 A 
ATOM     24  C   UNL     1      -5.253  -2.314 127.054  0.00  0.00    +0.000 A 
ATOM     25  C   UNL     1      -6.044  -2.132 128.219  0.00  0.00    +0.000 A 
ATOM     26  C   UNL     1      -7.423  -2.083 128.043  0.00  0.00    +0.000 A 
ATOM     27  C   UNL     1      -8.050  -2.253 126.792  0.00  0.00    +0.000 A 
ATOM     28  C   UNL     1      -7.256  -2.453 125.654  0.00  0.00    +0.000 A 
BRANCH  20  29
ATOM     29  C   UNL     1      -8.908  -2.661 123.702  0.00  0.00    +0.000 C 
BRANCH  29  30
ATOM     30  C   UNL     1      -9.211  -1.389 122.896  0.00  0.00    +0.000 C 
BRANCH  30  31
ATOM     31  N   UNL     1      -8.710  -0.125 123.555  0.00  0.00    +0.000 NA
ATOM     32  H   UNL     1      -8.505  -0.296 124.542  0.00  0.00    +0.000 HD
BRANCH  31  34
ATOM     33  C   UNL     1      -9.028   2.435 122.557  0.00  0.00    +0.000 C 
ATOM     34  S   UNL     1      -9.880   1.121 123.417  0.00  0.00    +0.000 S 
ATOM     35  O   UNL     1     -10.139   1.565 124.770  0.00  0.00    +0.000 OA
ATOM     36  O   UNL     1     -10.936   0.624 122.567  0.00  0.00    +0.000 OA
ENDBRANCH  31  34
ENDBRANCH  30  31
ENDBRANCH  29  30
ENDBRANCH  20  29
ENDBRANCH   1  25
TORSDOF 6
ENDMDL
MODEL 9
REMARK VINA RESULT:      -8.2      6.067      7.959
REMARK  Name = CHEMBL285013
REMARK  7 active torsions:
REMARK  status: ('A' for Active; 'I' for Inactive)
REMARK    1  A    between atoms: C_1  and  S_2
REMARK    2  A    between atoms: S_2  and  N_5
REMARK    3  A    between atoms: N_5  and  C_6
REMARK    4  A    between atoms: C_6  and  C_7
REMARK    5  A    between atoms: C_7  and  N_8
REMARK    6  A    between atoms: C_13  and  C_14
REMARK    7  A    between atoms: C_19  and  N_20
REMARK                            x       y       z     vdW  Elec       q    Type
REMARK                         _______ _______ _______ _____ _____    ______ ____
ROOT
ATOM      1  C   UNL     1      -5.965  -1.532 130.487  0.00  0.00    +0.000 C 
ATOM      2  O   UNL     1      -6.002  -2.489 131.265  0.00  0.00    +0.000 OA
ATOM      3  N   UNL     1      -5.505  -0.234 130.909  0.00  0.00    +0.000 N 
ATOM      4  C   UNL     1      -4.177  -0.062 131.518  0.00  0.00    +0.000 C 
ATOM      5  C   UNL     1      -4.164   0.889 132.744  0.00  0.00    +0.000 C 
ATOM      6  C   UNL     1      -4.645   2.587 132.351  0.00  0.00    +0.000 C 
ATOM      7  C   UNL     1      -6.227   2.021 131.864  0.00  0.00    +0.000 C 
ATOM      8  C   UNL     1      -6.200   1.036 130.651  0.00  0.00    +0.000 C 
ENDROOT
BRANCH   6   9
ATOM      9  N   UNL     1      -3.582   4.122 132.152  0.00  0.00    +0.000 N 
ATOM     10  C   UNL     1      -4.199   4.452 133.390  0.00  0.00    +0.000 C 
ATOM     11  O   UNL     1      -5.430   4.497 133.692  0.00  0.00    +0.000 OA
ATOM     12  O   UNL     1      -3.348   4.436 134.393  0.00  0.00    +0.000 OA
ATOM     13  C   UNL     1      -3.179   5.791 134.501  0.00  0.00    +0.000 C 
ATOM     14  C   UNL     1      -1.942   5.818 133.728  0.00  0.00    +0.000 A 
ATOM     15  C   UNL     1      -0.935   6.720 134.488  0.00  0.00    +0.000 A 
ATOM     16  C   UNL     1       0.022   7.537 133.975  0.00  0.00    +0.000 A 
ATOM     17  C   UNL     1      -0.066   7.439 132.611  0.00  0.00    +0.000 A 
ATOM     18  C   UNL     1      -1.093   6.356 131.816  0.00  0.00    +0.000 A 
ATOM     19  C   UNL     1      -2.125   5.283 132.420  0.00  0.00    +0.000 A 
ENDBRANCH   6   9
BRANCH   1  25
ATOM     20  N   UNL     1      -7.473  -2.847 125.092  0.00  0.00    +0.000 N 
ATOM     21  C   UNL     1      -8.748  -3.321 125.303  0.00  0.00    +0.000 A 
ATOM     22  C   UNL     1      -9.013  -3.271 126.653  0.00  0.00    +0.000 A 
ATOM     23  C   UNL     1      -7.881  -2.708 127.305  0.00  0.00    +0.000 A 
ATOM     24  C   UNL     1      -7.578  -2.394 128.667  0.00  0.00    +0.000 A 
ATOM     25  C   UNL     1      -6.334  -1.812 129.027  0.00  0.00    +0.000 A 
ATOM     26  C   UNL     1      -5.416  -1.603 128.002  0.00  0.00    +0.000 A 
ATOM     27  C   UNL     1      -5.687  -1.895 126.650  0.00  0.00    +0.000 A 
ATOM     28  C   UNL     1      -6.928  -2.450 126.308  0.00  0.00    +0.000 A 
BRANCH  20  29
ATOM     29  C   UNL     1      -6.843  -2.791 123.766  0.00  0.00    +0.000 C 
BRANCH  29  30
ATOM     30  C   UNL     1      -7.469  -1.719 122.861  0.00  0.00    +0.000 C 
BRANCH  30  31
ATOM     31  N   UNL     1      -7.494  -0.344 123.486  0.00  0.00    +0.000 NA
ATOM     32  H   UNL     1      -7.076  -0.369 124.419  0.00  0.00    +0.000 HD
BRANCH  31  34
ATOM     33  C   UNL     1      -9.422   0.338 125.349  0.00  0.00    +0.000 C 
ATOM     34  S   UNL     1      -9.106   0.232 123.594  0.00  0.00    +0.000 S 
ATOM     35  O   UNL     1      -9.935  -0.824 123.052  0.00  0.00    +0.000 OA
ATOM     36  O   UNL     1      -9.121   1.567 123.042  0.00  0.00    +0.000 OA
ENDBRANCH  31  34
ENDBRANCH  30  31
ENDBRANCH  29  30
ENDBRANCH  20  29
ENDBRANCH   1  25
TORSDOF 6
ENDMDL
