MODEL 1
REMARK VINA RESULT:     -11.7      0.000      0.000
REMARK  Name = CHEMBL3307200
REMARK  6 active torsions:
REMARK  status: ('A' for Active; 'I' for Inactive)
REMARK    1  A    between atoms: C_1  and  C_2
REMARK    2  A    between atoms: C_6  and  C_7
REMARK    3  A    between atoms: N_9  and  C_10
REMARK    4  A    between atoms: C_13  and  C_14
REMARK    5  A    between atoms: C_23  and  C_24
REMARK    6  A    between atoms: C_29  and  N_30
REMARK                            x       y       z     vdW  Elec       q    Type
REMARK                         _______ _______ _______ _____ _____    ______ ____
ROOT
ATOM      1  C   UNL     1      -7.446  -0.221 132.379  0.00  0.00    +0.000 C 
ATOM      2  O   UNL     1      -7.739   0.656 133.380  0.00  0.00    +0.000 OA
ATOM      3  N   UNL     1      -7.159  -2.097 132.935  0.00  0.00    +0.000 N 
ATOM      4  C   UNL     1      -6.464  -1.036 133.542  0.00  0.00    +0.000 C 
ATOM      5  C   UNL     1      -5.498  -1.462 132.609  0.00  0.00    +0.000 C 
ATOM      6  C   UNL     1      -4.999  -2.330 133.681  0.00  0.00    +0.000 C 
ATOM      7  F   UNL     1      -4.310  -1.947 134.731  0.00  0.00    +0.000 F 
ATOM      8  F   UNL     1      -6.285  -2.715 134.647  0.00  0.00    +0.000 F 
ATOM      9  C   UNL     1      -4.330  -3.244 132.603  0.00  0.00    +0.000 C 
ATOM     10  C   UNL     1      -4.117  -3.502 131.290  0.00  0.00    +0.000 C 
ATOM     11  C   UNL     1      -4.598  -4.415 133.184  0.00  0.00    +0.000 A 
ATOM     12  C   UNL     1      -3.070  -5.335 133.374  0.00  0.00    +0.000 A 
ATOM     13  C   UNL     1      -2.864  -6.557 133.931  0.00  0.00    +0.000 A 
ATOM     14  C   UNL     1      -4.104  -6.624 134.523  0.00  0.00    +0.000 A 
ATOM     15  C   UNL     1      -5.556  -5.437 134.246  0.00  0.00    +0.000 A 
ATOM     16  C   UNL     1      -6.222  -3.997 133.252  0.00  0.00    +0.000 A 
ENDROOT
BRANCH  10  17
ATOM     17  C   UNL     1      -4.499  -2.452 130.335  0.00  0.00    +0.000 C 
ATOM     18  O   UNL     1      -4.118  -1.306 130.140  0.00  0.00    +0.000 OA
ATOM     19  N   UNL     1      -5.277  -2.753 129.341  0.00  0.00    +0.000 N 
ATOM     20  C   UNL     1      -4.908  -2.024 128.142  0.00  0.00    +0.000 C 
ATOM     21  C   UNL     1      -5.932  -1.010 127.712  0.00  0.00    +0.000 C 
ATOM     22  C   UNL     1      -7.351  -1.589 127.751  0.00  0.00    +0.000 C 
ATOM     23  C   UNL     1      -7.631  -2.179 129.149  0.00  0.00    +0.000 C 
ATOM     24  C   UNL     1      -6.592  -3.175 129.622  0.00  0.00    +0.000 C 
BRANCH  22  25
ATOM     25  N   UNL     1      -7.604  -2.588 126.680  0.00  0.00    +0.000 NA
ATOM     26  C   UNL     1      -9.002  -2.549 126.258  0.00  0.00    +0.000 C 
ATOM     27  C   UNL     1      -9.227  -3.549 125.136  0.00  0.00    +0.000 C 
ATOM     28  C   UNL     1      -8.334  -3.290 123.924  0.00  0.00    +0.000 C 
ATOM     29  C   UNL     1      -6.898  -3.265 124.339  0.00  0.00    +0.000 C 
ATOM     30  C   UNL     1      -6.814  -2.352 125.490  0.00  0.00    +0.000 C 
ENDBRANCH  22  25
ENDBRANCH  10  17
BRANCH   1  34
ATOM     31  C   UNL     1      -8.989   4.762 130.044  0.00  0.00    +0.000 A 
ATOM     32  C   UNL     1      -7.763   4.699 130.670  0.00  0.00    +0.000 A 
ATOM     33  C   UNL     1      -7.153   3.197 131.261  0.00  0.00    +0.000 A 
ATOM     34  C   UNL     1      -7.826   1.587 131.485  0.00  0.00    +0.000 A 
ATOM     35  C   UNL     1      -8.884   2.017 130.576  0.00  0.00    +0.000 A 
ATOM     36  C   UNL     1      -9.469   3.454 129.954  0.00  0.00    +0.000 A 
BRANCH  31  39
ATOM     37  C   UNL     1     -10.997   6.272 129.928  0.00  0.00    +0.000 C 
ATOM     38  O   UNL     1     -11.560   5.670 130.842  0.00  0.00    +0.000 OA
ATOM     39  N   UNL     1      -9.700   5.908 129.490  0.00  0.00    +0.000 N 
ATOM     40  H   UNL     1      -9.244   6.464 128.776  0.00  0.00    +0.000 HD
BRANCH  37  46
ATOM     41  C   UNL     1     -11.148   7.350 126.771  0.00  0.00    +0.000 C 
ATOM     42  C   UNL     1     -11.750   7.861 128.013  0.00  0.00    +0.000 A 
ATOM     43  O   UNL     1     -12.526   8.983 127.889  0.00  0.00    +0.000 OA
ATOM     44  C   UNL     1     -12.979   9.295 129.127  0.00  0.00    +0.000 A 
ATOM     45  C   UNL     1     -12.508   8.382 130.036  0.00  0.00    +0.000 A 
ATOM     46  C   UNL     1     -11.697   7.426 129.326  0.00  0.00    +0.000 A 
ENDBRANCH  37  46
ENDBRANCH  31  39
ENDBRANCH   1  34
TORSDOF 5
ENDMDL
MODEL 2
REMARK VINA RESULT:     -11.6      4.852     11.058
REMARK  Name = CHEMBL3307200
REMARK  6 active torsions:
REMARK  status: ('A' for Active; 'I' for Inactive)
REMARK    1  A    between atoms: C_1  and  C_2
REMARK    2  A    between atoms: C_6  and  C_7
REMARK    3  A    between atoms: N_9  and  C_10
REMARK    4  A    between atoms: C_13  and  C_14
REMARK    5  A    between atoms: C_23  and  C_24
REMARK    6  A    between atoms: C_29  and  N_30
REMARK                            x       y       z     vdW  Elec       q    Type
REMARK                         _______ _______ _______ _____ _____    ______ ____
ROOT
ATOM      1  C   UNL     1      -8.335  -0.011 126.210  0.00  0.00    +0.000 C 
ATOM      2  O   UNL     1      -8.682  -1.315 126.015  0.00  0.00    +0.000 OA
ATOM      3  N   UNL     1      -8.763   1.224 124.727  0.00  0.00    +0.000 N 
ATOM      4  C   UNL     1      -8.037   0.040 124.510  0.00  0.00    +0.000 C 
ATOM      5  C   UNL     1      -6.978   0.965 124.599  0.00  0.00    +0.000 C 
ATOM      6  C   UNL     1      -7.104   1.090 123.143  0.00  0.00    +0.000 C 
ATOM      7  F   UNL     1      -6.711   0.209 122.253  0.00  0.00    +0.000 F 
ATOM      8  F   UNL     1      -8.685   0.797 122.755  0.00  0.00    +0.000 F 
ATOM      9  C   UNL     1      -6.402   2.484 123.221  0.00  0.00    +0.000 C 
ATOM     10  C   UNL     1      -5.859   3.453 123.997  0.00  0.00    +0.000 C 
ATOM     11  C   UNL     1      -7.149   3.102 122.305  0.00  0.00    +0.000 A 
ATOM     12  C   UNL     1      -6.074   3.819 121.060  0.00  0.00    +0.000 A 
ATOM     13  C   UNL     1      -6.397   4.514 119.939  0.00  0.00    +0.000 A 
ATOM     14  C   UNL     1      -7.730   4.175 119.975  0.00  0.00    +0.000 A 
ATOM     15  C   UNL     1      -8.636   3.292 121.387  0.00  0.00    +0.000 A 
ATOM     16  C   UNL     1      -8.531   2.646 123.141  0.00  0.00    +0.000 A 
ENDROOT
BRANCH  10  17
ATOM     17  C   UNL     1      -5.614   3.118 125.407  0.00  0.00    +0.000 C 
ATOM     18  O   UNL     1      -4.843   2.357 125.974  0.00  0.00    +0.000 OA
ATOM     19  N   UNL     1      -6.161   3.843 126.334  0.00  0.00    +0.000 N 
ATOM     20  C   UNL     1      -5.276   4.000 127.472  0.00  0.00    +0.000 C 
ATOM     21  C   UNL     1      -5.762   3.309 128.717  0.00  0.00    +0.000 C 
ATOM     22  C   UNL     1      -7.251   3.578 128.965  0.00  0.00    +0.000 C 
ATOM     23  C   UNL     1      -8.062   3.205 127.707  0.00  0.00    +0.000 C 
ATOM     24  C   UNL     1      -7.567   3.858 126.433  0.00  0.00    +0.000 C 
BRANCH  22  25
ATOM     25  N   UNL     1      -7.529   4.974 129.395  0.00  0.00    +0.000 NA
ATOM     26  C   UNL     1      -8.954   5.159 129.660  0.00  0.00    +0.000 C 
ATOM     27  C   UNL     1      -9.207   6.579 130.135  0.00  0.00    +0.000 C 
ATOM     28  C   UNL     1      -8.419   6.931 131.396  0.00  0.00    +0.000 C 
ATOM     29  C   UNL     1      -6.960   6.693 131.172  0.00  0.00    +0.000 C 
ATOM     30  C   UNL     1      -6.840   5.336 130.616  0.00  0.00    +0.000 C 
ENDBRANCH  22  25
ENDBRANCH  10  17
BRANCH   1  34
ATOM     31  C   UNL     1      -7.487  -2.488 131.290  0.00  0.00    +0.000 A 
ATOM     32  C   UNL     1      -7.449  -3.291 130.170  0.00  0.00    +0.000 A 
ATOM     33  C   UNL     1      -7.537  -2.602 128.591  0.00  0.00    +0.000 A 
ATOM     34  C   UNL     1      -7.902  -1.004 127.954  0.00  0.00    +0.000 A 
ATOM     35  C   UNL     1      -7.645  -0.521 129.306  0.00  0.00    +0.000 A 
ATOM     36  C   UNL     1      -7.511  -1.166 130.843  0.00  0.00    +0.000 A 
BRANCH  31  39
ATOM     37  C   UNL     1      -6.223  -3.074 133.384  0.00  0.00    +0.000 C 
ATOM     38  O   UNL     1      -5.137  -2.915 132.827  0.00  0.00    +0.000 OA
ATOM     39  N   UNL     1      -7.444  -2.849 132.702  0.00  0.00    +0.000 N 
ATOM     40  H   UNL     1      -8.317  -2.931 133.209  0.00  0.00    +0.000 HD
BRANCH  37  46
ATOM     41  C   UNL     1      -5.339  -5.923 134.885  0.00  0.00    +0.000 C 
ATOM     42  C   UNL     1      -5.849  -4.649 135.417  0.00  0.00    +0.000 A 
ATOM     43  O   UNL     1      -5.997  -4.581 136.778  0.00  0.00    +0.000 OA
ATOM     44  C   UNL     1      -6.475  -3.348 137.068  0.00  0.00    +0.000 A 
ATOM     45  C   UNL     1      -6.627  -2.626 135.911  0.00  0.00    +0.000 A 
ATOM     46  C   UNL     1      -6.219  -3.462 134.810  0.00  0.00    +0.000 A 
ENDBRANCH  37  46
ENDBRANCH  31  39
ENDBRANCH   1  34
TORSDOF 5
ENDMDL
MODEL 3
REMARK VINA RESULT:     -11.5      4.650     11.408
REMARK  Name = CHEMBL3307200
REMARK  6 active torsions:
REMARK  status: ('A' for Active; 'I' for Inactive)
REMARK    1  A    between atoms: C_1  and  C_2
REMARK    2  A    between atoms: C_6  and  C_7
REMARK    3  A    between atoms: N_9  and  C_10
REMARK    4  A    between atoms: C_13  and  C_14
REMARK    5  A    between atoms: C_23  and  C_24
REMARK    6  A    between atoms: C_29  and  N_30
REMARK                            x       y       z     vdW  Elec       q    Type
REMARK                         _______ _______ _______ _____ _____    ______ ____
ROOT
ATOM      1  C   UNL     1      -8.165  -0.537 126.467  0.00  0.00    +0.000 C 
ATOM      2  O   UNL     1      -8.450  -1.850 126.237  0.00  0.00    +0.000 OA
ATOM      3  N   UNL     1      -8.727   0.725 125.053  0.00  0.00    +0.000 N 
ATOM      4  C   UNL     1      -7.951  -0.409 124.758  0.00  0.00    +0.000 C 
ATOM      5  C   UNL     1      -6.939   0.570 124.835  0.00  0.00    +0.000 C 
ATOM      6  C   UNL     1      -7.140   0.739 123.391  0.00  0.00    +0.000 C 
ATOM      7  F   UNL     1      -6.743  -0.086 122.451  0.00  0.00    +0.000 F 
ATOM      8  F   UNL     1      -8.720   0.374 123.064  0.00  0.00    +0.000 F 
ATOM      9  C   UNL     1      -6.510   2.166 123.492  0.00  0.00    +0.000 C 
ATOM     10  C   UNL     1      -5.984   3.135 124.278  0.00  0.00    +0.000 C 
ATOM     11  C   UNL     1      -7.332   2.775 122.635  0.00  0.00    +0.000 A 
ATOM     12  C   UNL     1      -6.357   3.594 121.371  0.00  0.00    +0.000 A 
ATOM     13  C   UNL     1      -6.769   4.310 120.293  0.00  0.00    +0.000 A 
ATOM     14  C   UNL     1      -8.079   3.898 120.376  0.00  0.00    +0.000 A 
ATOM     15  C   UNL     1      -8.869   2.916 121.793  0.00  0.00    +0.000 A 
ATOM     16  C   UNL     1      -8.647   2.214 123.514  0.00  0.00    +0.000 A 
ENDROOT
BRANCH  10  17
ATOM     17  C   UNL     1      -5.655   2.764 125.662  0.00  0.00    +0.000 C 
ATOM     18  O   UNL     1      -4.863   1.976 126.161  0.00  0.00    +0.000 OA
ATOM     19  N   UNL     1      -6.127   3.476 126.638  0.00  0.00    +0.000 N 
ATOM     20  C   UNL     1      -5.168   3.592 127.720  0.00  0.00    +0.000 C 
ATOM     21  C   UNL     1      -5.586   2.881 128.978  0.00  0.00    +0.000 C 
ATOM     22  C   UNL     1      -7.051   3.170 129.328  0.00  0.00    +0.000 C 
ATOM     23  C   UNL     1      -7.948   2.840 128.117  0.00  0.00    +0.000 C 
ATOM     24  C   UNL     1      -7.523   3.514 126.829  0.00  0.00    +0.000 C 
BRANCH  22  25
ATOM     25  N   UNL     1      -7.274   4.560 129.806  0.00  0.00    +0.000 NA
ATOM     26  C   UNL     1      -8.684   4.778 130.117  0.00  0.00    +0.000 C 
ATOM     27  C   UNL     1      -8.881   6.191 130.641  0.00  0.00    +0.000 C 
ATOM     28  C   UNL     1      -8.047   6.483 131.886  0.00  0.00    +0.000 C 
ATOM     29  C   UNL     1      -6.602   6.209 131.613  0.00  0.00    +0.000 C 
ATOM     30  C   UNL     1      -6.539   4.866 131.015  0.00  0.00    +0.000 C 
ENDBRANCH  22  25
ENDBRANCH  10  17
BRANCH   1  34
ATOM     31  C   UNL     1      -6.196  -3.073 131.194  0.00  0.00    +0.000 A 
ATOM     32  C   UNL     1      -7.561  -2.953 131.052  0.00  0.00    +0.000 A 
ATOM     33  C   UNL     1      -8.243  -2.345 129.588  0.00  0.00    +0.000 A 
ATOM     34  C   UNL     1      -7.597  -1.567 128.149  0.00  0.00    +0.000 A 
ATOM     35  C   UNL     1      -6.301  -2.080 128.580  0.00  0.00    +0.000 A 
ATOM     36  C   UNL     1      -5.625  -2.714 129.973  0.00  0.00    +0.000 A 
BRANCH  31  39
ATOM     37  C   UNL     1      -5.042  -4.899 132.483  0.00  0.00    +0.000 C 
ATOM     38  O   UNL     1      -5.316  -5.739 131.626  0.00  0.00    +0.000 OA
ATOM     39  N   UNL     1      -5.411  -3.540 132.331  0.00  0.00    +0.000 N 
ATOM     40  H   UNL     1      -5.116  -2.866 133.028  0.00  0.00    +0.000 HD
BRANCH  37  46
ATOM     41  C   UNL     1      -6.026  -5.982 135.484  0.00  0.00    +0.000 C 
ATOM     42  C   UNL     1      -4.690  -5.787 134.900  0.00  0.00    +0.000 A 
ATOM     43  O   UNL     1      -3.628  -6.103 135.707  0.00  0.00    +0.000 OA
ATOM     44  C   UNL     1      -2.500  -5.854 135.000  0.00  0.00    +0.000 A 
ATOM     45  C   UNL     1      -2.828  -5.392 133.751  0.00  0.00    +0.000 A 
ATOM     46  C   UNL     1      -4.265  -5.341 133.660  0.00  0.00    +0.000 A 
ENDBRANCH  37  46
ENDBRANCH  31  39
ENDBRANCH   1  34
TORSDOF 5
ENDMDL
MODEL 4
REMARK VINA RESULT:     -11.1      4.712      8.595
REMARK  Name = CHEMBL3307200
REMARK  6 active torsions:
REMARK  status: ('A' for Active; 'I' for Inactive)
REMARK    1  A    between atoms: C_1  and  C_2
REMARK    2  A    between atoms: C_6  and  C_7
REMARK    3  A    between atoms: N_9  and  C_10
REMARK    4  A    between atoms: C_13  and  C_14
REMARK    5  A    between atoms: C_23  and  C_24
REMARK    6  A    between atoms: C_29  and  N_30
REMARK                            x       y       z     vdW  Elec       q    Type
REMARK                         _______ _______ _______ _____ _____    ______ ____
ROOT
ATOM      1  C   UNL     1      -5.667  -0.121 130.004  0.00  0.00    +0.000 C 
ATOM      2  O   UNL     1      -4.707  -0.861 130.628  0.00  0.00    +0.000 OA
ATOM      3  N   UNL     1      -6.998  -1.144 128.959  0.00  0.00    +0.000 N 
ATOM      4  C   UNL     1      -5.617  -1.322 128.764  0.00  0.00    +0.000 C 
ATOM      5  C   UNL     1      -5.901  -0.425 127.714  0.00  0.00    +0.000 C 
ATOM      6  C   UNL     1      -6.116  -1.621 126.892  0.00  0.00    +0.000 C 
ATOM      7  F   UNL     1      -5.183  -2.414 126.418  0.00  0.00    +0.000 F 
ATOM      8  F   UNL     1      -6.648  -2.824 127.895  0.00  0.00    +0.000 F 
ATOM      9  C   UNL     1      -6.984  -0.767 125.912  0.00  0.00    +0.000 C 
ATOM     10  C   UNL     1      -7.538   0.434 125.620  0.00  0.00    +0.000 C 
ATOM     11  C   UNL     1      -7.917  -1.688 125.665  0.00  0.00    +0.000 A 
ATOM     12  C   UNL     1      -8.052  -1.922 123.891  0.00  0.00    +0.000 A 
ATOM     13  C   UNL     1      -8.850  -2.769 123.192  0.00  0.00    +0.000 A 
ATOM     14  C   UNL     1      -9.207  -3.520 124.288  0.00  0.00    +0.000 A 
ATOM     15  C   UNL     1      -8.839  -3.119 126.104  0.00  0.00    +0.000 A 
ATOM     16  C   UNL     1      -8.171  -1.857 127.315  0.00  0.00    +0.000 A 
ENDROOT
BRANCH  10  17
ATOM     17  C   UNL     1      -7.083   1.587 126.410  0.00  0.00    +0.000 C 
ATOM     18  O   UNL     1      -6.014   2.172 126.515  0.00  0.00    +0.000 OA
ATOM     19  N   UNL     1      -7.959   2.311 127.036  0.00  0.00    +0.000 N 
ATOM     20  C   UNL     1      -7.595   3.715 127.017  0.00  0.00    +0.000 C 
ATOM     21  C   UNL     1      -7.226   4.263 128.368  0.00  0.00    +0.000 C 
ATOM     22  C   UNL     1      -8.229   3.831 129.444  0.00  0.00    +0.000 C 
ATOM     23  C   UNL     1      -8.373   2.294 129.431  0.00  0.00    +0.000 C 
ATOM     24  C   UNL     1      -8.707   1.715 128.071  0.00  0.00    +0.000 C 
BRANCH  22  25
ATOM     25  N   UNL     1      -9.549   4.501 129.316  0.00  0.00    +0.000 NA
ATOM     26  C   UNL     1     -10.415   4.156 130.441  0.00  0.00    +0.000 C 
ATOM     27  C   UNL     1     -11.742   4.884 130.309  0.00  0.00    +0.000 C 
ATOM     28  C   UNL     1     -11.582   6.402 130.253  0.00  0.00    +0.000 C 
ATOM     29  C   UNL     1     -10.651   6.780 129.145  0.00  0.00    +0.000 C 
ATOM     30  C   UNL     1      -9.449   5.946 129.308  0.00  0.00    +0.000 C 
ENDBRANCH  22  25
ENDBRANCH  10  17
BRANCH   1  34
ATOM     31  C   UNL     1      -2.897   3.868 133.018  0.00  0.00    +0.000 A 
ATOM     32  C   UNL     1      -2.821   2.564 133.457  0.00  0.00    +0.000 A 
ATOM     33  C   UNL     1      -3.493   1.280 132.520  0.00  0.00    +0.000 A 
ATOM     34  C   UNL     1      -4.536   1.190 131.107  0.00  0.00    +0.000 A 
ATOM     35  C   UNL     1      -4.180   2.587 130.886  0.00  0.00    +0.000 A 
ATOM     36  C   UNL     1      -3.491   3.839 131.755  0.00  0.00    +0.000 A 
BRANCH  31  39
ATOM     37  C   UNL     1      -1.322   5.825 133.126  0.00  0.00    +0.000 C 
ATOM     38  O   UNL     1      -0.757   5.486 132.086  0.00  0.00    +0.000 OA
ATOM     39  N   UNL     1      -2.420   5.096 133.644  0.00  0.00    +0.000 N 
ATOM     40  H   UNL     1      -2.898   5.438 134.469  0.00  0.00    +0.000 HD
BRANCH  37  46
ATOM     41  C   UNL     1      -2.262   9.012 132.796  0.00  0.00    +0.000 C 
ATOM     42  C   UNL     1      -1.251   8.369 133.652  0.00  0.00    +0.000 A 
ATOM     43  O   UNL     1      -0.549   9.202 134.483  0.00  0.00    +0.000 OA
ATOM     44  C   UNL     1       0.325   8.432 135.175  0.00  0.00    +0.000 A 
ATOM     45  C   UNL     1       0.183   7.120 134.802  0.00  0.00    +0.000 A 
ATOM     46  C   UNL     1      -0.850   7.053 133.800  0.00  0.00    +0.000 A 
ENDBRANCH  37  46
ENDBRANCH  31  39
ENDBRANCH   1  34
TORSDOF 5
ENDMDL
MODEL 5
REMARK VINA RESULT:     -11.0      5.065      8.154
REMARK  Name = CHEMBL3307200
REMARK  6 active torsions:
REMARK  status: ('A' for Active; 'I' for Inactive)
REMARK    1  A    between atoms: C_1  and  C_2
REMARK    2  A    between atoms: C_6  and  C_7
REMARK    3  A    between atoms: N_9  and  C_10
REMARK    4  A    between atoms: C_13  and  C_14
REMARK    5  A    between atoms: C_23  and  C_24
REMARK    6  A    between atoms: C_29  and  N_30
REMARK                            x       y       z     vdW  Elec       q    Type
REMARK                         _______ _______ _______ _____ _____    ______ ____
ROOT
ATOM      1  C   UNL     1      -4.811   1.219 131.453  0.00  0.00    +0.000 C 
ATOM      2  O   UNL     1      -3.632   0.784 131.984  0.00  0.00    +0.000 OA
ATOM      3  N   UNL     1      -6.168  -0.178 131.114  0.00  0.00    +0.000 N 
ATOM      4  C   UNL     1      -4.856  -0.295 130.623  0.00  0.00    +0.000 C 
ATOM      5  C   UNL     1      -5.505   0.213 129.479  0.00  0.00    +0.000 C 
ATOM      6  C   UNL     1      -5.712  -1.189 129.103  0.00  0.00    +0.000 C 
ATOM      7  F   UNL     1      -4.798  -2.010 128.639  0.00  0.00    +0.000 F 
ATOM      8  F   UNL     1      -5.812  -2.069 130.500  0.00  0.00    +0.000 F 
ATOM      9  C   UNL     1      -6.899  -0.748 128.187  0.00  0.00    +0.000 C 
ATOM     10  C   UNL     1      -7.684   0.257 127.731  0.00  0.00    +0.000 C 
ATOM     11  C   UNL     1      -7.710  -1.773 128.455  0.00  0.00    +0.000 A 
ATOM     12  C   UNL     1      -8.203  -2.546 126.912  0.00  0.00    +0.000 A 
ATOM     13  C   UNL     1      -8.997  -3.629 126.707  0.00  0.00    +0.000 A 
ATOM     14  C   UNL     1      -8.978  -4.036 128.020  0.00  0.00    +0.000 A 
ATOM     15  C   UNL     1      -8.277  -3.072 129.494  0.00  0.00    +0.000 A 
ATOM     16  C   UNL     1      -7.557  -1.451 130.095  0.00  0.00    +0.000 A 
ENDROOT
BRANCH  10  17
ATOM     17  C   UNL     1      -7.246   1.630 128.026  0.00  0.00    +0.000 C 
ATOM     18  O   UNL     1      -6.240   2.272 127.762  0.00  0.00    +0.000 OA
ATOM     19  N   UNL     1      -8.098   2.472 128.525  0.00  0.00    +0.000 N 
ATOM     20  C   UNL     1      -7.888   3.808 128.000  0.00  0.00    +0.000 C 
ATOM     21  C   UNL     1      -7.395   4.790 129.027  0.00  0.00    +0.000 C 
ATOM     22  C   UNL     1      -8.189   4.685 130.335  0.00  0.00    +0.000 C 
ATOM     23  C   UNL     1      -8.173   3.225 130.835  0.00  0.00    +0.000 C 
ATOM     24  C   UNL     1      -8.629   2.213 129.805  0.00  0.00    +0.000 C 
BRANCH  22  25
ATOM     25  N   UNL     1      -9.577   5.205 130.219  0.00  0.00    +0.000 NA
ATOM     26  C   UNL     1     -10.137   5.479 131.540  0.00  0.00    +0.000 C 
ATOM     27  C   UNL     1     -11.539   6.045 131.395  0.00  0.00    +0.000 C 
ATOM     28  C   UNL     1     -11.577   7.326 130.564  0.00  0.00    +0.000 C 
ATOM     29  C   UNL     1     -10.954   7.089 129.225  0.00  0.00    +0.000 C 
ATOM     30  C   UNL     1      -9.655   6.446 129.479  0.00  0.00    +0.000 C 
ENDBRANCH  22  25
ENDBRANCH  10  17
BRANCH   1  34
ATOM     31  C   UNL     1      -2.047   6.150 132.293  0.00  0.00    +0.000 A 
ATOM     32  C   UNL     1      -1.910   5.166 133.249  0.00  0.00    +0.000 A 
ATOM     33  C   UNL     1      -2.579   3.596 132.997  0.00  0.00    +0.000 A 
ATOM     34  C   UNL     1      -3.677   2.890 131.819  0.00  0.00    +0.000 A 
ATOM     35  C   UNL     1      -3.377   4.057 130.996  0.00  0.00    +0.000 A 
ATOM     36  C   UNL     1      -2.693   5.570 131.201  0.00  0.00    +0.000 A 
BRANCH  31  39
ATOM     37  C   UNL     1      -2.095   8.492 133.209  0.00  0.00    +0.000 C 
ATOM     38  O   UNL     1      -2.910   8.184 134.078  0.00  0.00    +0.000 OA
ATOM     39  N   UNL     1      -1.584   7.533 132.300  0.00  0.00    +0.000 N 
ATOM     40  H   UNL     1      -0.870   7.810 131.638  0.00  0.00    +0.000 HD
BRANCH  37  46
ATOM     41  C   UNL     1       0.669   9.908 134.436  0.00  0.00    +0.000 C 
ATOM     42  C   UNL     1      -0.469  10.463 133.686  0.00  0.00    +0.000 A 
ATOM     43  O   UNL     1      -0.418  11.806 133.420  0.00  0.00    +0.000 OA
ATOM     44  C   UNL     1      -1.543  12.122 132.737  0.00  0.00    +0.000 A 
ATOM     45  C   UNL     1      -2.307  10.997 132.556  0.00  0.00    +0.000 A 
ATOM     46  C   UNL     1      -1.620   9.891 133.172  0.00  0.00    +0.000 A 
ENDBRANCH  37  46
ENDBRANCH  31  39
ENDBRANCH   1  34
TORSDOF 5
ENDMDL
MODEL 6
REMARK VINA RESULT:     -10.9      4.647     10.973
REMARK  Name = CHEMBL3307200
REMARK  6 active torsions:
REMARK  status: ('A' for Active; 'I' for Inactive)
REMARK    1  A    between atoms: C_1  and  C_2
REMARK    2  A    between atoms: C_6  and  C_7
REMARK    3  A    between atoms: N_9  and  C_10
REMARK    4  A    between atoms: C_13  and  C_14
REMARK    5  A    between atoms: C_23  and  C_24
REMARK    6  A    between atoms: C_29  and  N_30
REMARK                            x       y       z     vdW  Elec       q    Type
REMARK                         _______ _______ _______ _____ _____    ______ ____
ROOT
ATOM      1  C   UNL     1      -8.044  -0.532 126.543  0.00  0.00    +0.000 C 
ATOM      2  O   UNL     1      -8.292  -1.857 126.337  0.00  0.00    +0.000 OA
ATOM      3  N   UNL     1      -8.662   0.690 125.116  0.00  0.00    +0.000 N 
ATOM      4  C   UNL     1      -7.854  -0.425 124.829  0.00  0.00    +0.000 C 
ATOM      5  C   UNL     1      -6.872   0.585 124.878  0.00  0.00    +0.000 C 
ATOM      6  C   UNL     1      -7.096   0.725 123.435  0.00  0.00    +0.000 C 
ATOM      7  F   UNL     1      -6.685  -0.103 122.503  0.00  0.00    +0.000 F 
ATOM      8  F   UNL     1      -8.668   0.307 123.133  0.00  0.00    +0.000 F 
ATOM      9  C   UNL     1      -6.509   2.173 123.505  0.00  0.00    +0.000 C 
ATOM     10  C   UNL     1      -6.003   3.169 124.270  0.00  0.00    +0.000 C 
ATOM     11  C   UNL     1      -7.359   2.742 122.649  0.00  0.00    +0.000 A 
ATOM     12  C   UNL     1      -6.424   3.570 121.361  0.00  0.00    +0.000 A 
ATOM     13  C   UNL     1      -6.871   4.256 120.277  0.00  0.00    +0.000 A 
ATOM     14  C   UNL     1      -8.167   3.805 120.383  0.00  0.00    +0.000 A 
ATOM     15  C   UNL     1      -8.909   2.823 121.824  0.00  0.00    +0.000 A 
ATOM     16  C   UNL     1      -8.645   2.155 123.554  0.00  0.00    +0.000 A 
ENDROOT
BRANCH  10  17
ATOM     17  C   UNL     1      -5.646   2.831 125.656  0.00  0.00    +0.000 C 
ATOM     18  O   UNL     1      -4.821   2.080 126.157  0.00  0.00    +0.000 OA
ATOM     19  N   UNL     1      -6.135   3.539 126.627  0.00  0.00    +0.000 N 
ATOM     20  C   UNL     1      -5.170   3.706 127.696  0.00  0.00    +0.000 C 
ATOM     21  C   UNL     1      -5.549   2.998 128.968  0.00  0.00    +0.000 C 
ATOM     22  C   UNL     1      -7.019   3.237 129.330  0.00  0.00    +0.000 C 
ATOM     23  C   UNL     1      -7.916   2.856 128.133  0.00  0.00    +0.000 C 
ATOM     24  C   UNL     1      -7.530   3.527 126.831  0.00  0.00    +0.000 C 
BRANCH  22  25
ATOM     25  N   UNL     1      -7.290   4.625 129.791  0.00  0.00    +0.000 NA
ATOM     26  C   UNL     1      -8.715   4.814 130.050  0.00  0.00    +0.000 C 
ATOM     27  C   UNL     1      -8.961   6.225 130.557  0.00  0.00    +0.000 C 
ATOM     28  C   UNL     1      -8.178   6.542 131.830  0.00  0.00    +0.000 C 
ATOM     29  C   UNL     1      -6.719   6.298 131.610  0.00  0.00    +0.000 C 
ATOM     30  C   UNL     1      -6.605   4.953 131.024  0.00  0.00    +0.000 C 
ENDBRANCH  22  25
ENDBRANCH  10  17
BRANCH   1  34
ATOM     31  C   UNL     1      -5.993  -2.888 131.329  0.00  0.00    +0.000 A 
ATOM     32  C   UNL     1      -7.349  -2.979 131.098  0.00  0.00    +0.000 A 
ATOM     33  C   UNL     1      -8.026  -2.437 129.607  0.00  0.00    +0.000 A 
ATOM     34  C   UNL     1      -7.425  -1.517 128.234  0.00  0.00    +0.000 A 
ATOM     35  C   UNL     1      -6.093  -1.834 128.738  0.00  0.00    +0.000 A 
ATOM     36  C   UNL     1      -5.412  -2.400 130.157  0.00  0.00    +0.000 A 
BRANCH  31  39
ATOM     37  C   UNL     1      -4.709  -2.299 133.410  0.00  0.00    +0.000 C 
ATOM     38  O   UNL     1      -4.955  -1.100 133.277  0.00  0.00    +0.000 OA
ATOM     39  N   UNL     1      -5.216  -3.263 132.504  0.00  0.00    +0.000 N 
ATOM     40  H   UNL     1      -5.043  -4.246 132.679  0.00  0.00    +0.000 HD
BRANCH  37  46
ATOM     41  C   UNL     1      -1.569  -1.575 134.285  0.00  0.00    +0.000 C 
ATOM     42  C   UNL     1      -2.602  -2.405 134.927  0.00  0.00    +0.000 A 
ATOM     43  O   UNL     1      -2.246  -3.003 136.107  0.00  0.00    +0.000 OA
ATOM     44  C   UNL     1      -3.315  -3.718 136.532  0.00  0.00    +0.000 A 
ATOM     45  C   UNL     1      -4.350  -3.576 135.643  0.00  0.00    +0.000 A 
ATOM     46  C   UNL     1      -3.905  -2.714 134.578  0.00  0.00    +0.000 A 
ENDBRANCH  37  46
ENDBRANCH  31  39
ENDBRANCH   1  34
TORSDOF 5
ENDMDL
MODEL 7
REMARK VINA RESULT:     -10.9      5.348     10.031
REMARK  Name = CHEMBL3307200
REMARK  6 active torsions:
REMARK  status: ('A' for Active; 'I' for Inactive)
REMARK    1  A    between atoms: C_1  and  C_2
REMARK    2  A    between atoms: C_6  and  C_7
REMARK    3  A    between atoms: N_9  and  C_10
REMARK    4  A    between atoms: C_13  and  C_14
REMARK    5  A    between atoms: C_23  and  C_24
REMARK    6  A    between atoms: C_29  and  N_30
REMARK                            x       y       z     vdW  Elec       q    Type
REMARK                         _______ _______ _______ _____ _____    ______ ____
ROOT
ATOM      1  C   UNL     1      -3.778   5.334 128.843  0.00  0.00    +0.000 C 
ATOM      2  O   UNL     1      -2.744   4.979 128.028  0.00  0.00    +0.000 OA
ATOM      3  N   UNL     1      -3.385   6.756 130.160  0.00  0.00    +0.000 N 
ATOM      4  C   UNL     1      -2.574   5.613 130.049  0.00  0.00    +0.000 C 
ATOM      5  C   UNL     1      -3.393   5.230 131.130  0.00  0.00    +0.000 C 
ATOM      6  C   UNL     1      -2.356   5.816 131.987  0.00  0.00    +0.000 C 
ATOM      7  F   UNL     1      -1.181   5.293 132.249  0.00  0.00    +0.000 F 
ATOM      8  F   UNL     1      -1.637   7.036 131.132  0.00  0.00    +0.000 F 
ATOM      9  C   UNL     1      -3.413   5.969 133.128  0.00  0.00    +0.000 C 
ATOM     10  C   UNL     1      -4.700   5.824 133.527  0.00  0.00    +0.000 C 
ATOM     11  C   UNL     1      -3.005   7.157 133.579  0.00  0.00    +0.000 A 
ATOM     12  C   UNL     1      -2.688   7.035 135.341  0.00  0.00    +0.000 A 
ATOM     13  C   UNL     1      -2.239   7.983 136.203  0.00  0.00    +0.000 A 
ATOM     14  C   UNL     1      -1.847   8.859 135.216  0.00  0.00    +0.000 A 
ATOM     15  C   UNL     1      -2.210   8.709 133.362  0.00  0.00    +0.000 A 
ATOM     16  C   UNL     1      -3.135   7.779 132.025  0.00  0.00    +0.000 A 
ENDROOT
BRANCH  10  17
ATOM     17  C   UNL     1      -5.586   5.045 132.650  0.00  0.00    +0.000 C 
ATOM     18  O   UNL     1      -5.608   3.876 132.293  0.00  0.00    +0.000 OA
ATOM     19  N   UNL     1      -6.702   5.572 132.248  0.00  0.00    +0.000 N 
ATOM     20  C   UNL     1      -7.758   4.581 132.178  0.00  0.00    +0.000 C 
ATOM     21  C   UNL     1      -8.217   4.285 130.776  0.00  0.00    +0.000 C 
ATOM     22  C   UNL     1      -8.430   5.571 129.969  0.00  0.00    +0.000 C 
ATOM     23  C   UNL     1      -7.151   6.432 130.020  0.00  0.00    +0.000 C 
ATOM     24  C   UNL     1      -6.647   6.712 131.420  0.00  0.00    +0.000 C 
BRANCH  22  25
ATOM     25  N   UNL     1      -9.623   6.343 130.406  0.00  0.00    +0.000 NA
ATOM     26  C   UNL     1     -10.122   7.181 129.318  0.00  0.00    +0.000 C 
ATOM     27  C   UNL     1     -11.362   7.930 129.775  0.00  0.00    +0.000 C 
ATOM     28  C   UNL     1     -12.481   6.997 130.236  0.00  0.00    +0.000 C 
ATOM     29  C   UNL     1     -11.979   6.085 131.311  0.00  0.00    +0.000 C 
ATOM     30  C   UNL     1     -10.728   5.498 130.806  0.00  0.00    +0.000 C 
ENDBRANCH  22  25
ENDBRANCH  10  17
BRANCH   1  34
ATOM     31  C   UNL     1      -6.062   1.273 125.535  0.00  0.00    +0.000 A 
ATOM     32  C   UNL     1      -6.074   2.567 125.062  0.00  0.00    +0.000 A 
ATOM     33  C   UNL     1      -5.266   3.825 125.923  0.00  0.00    +0.000 A 
ATOM     34  C   UNL     1      -4.522   3.962 127.511  0.00  0.00    +0.000 A 
ATOM     35  C   UNL     1      -4.520   2.503 127.519  0.00  0.00    +0.000 A 
ATOM     36  C   UNL     1      -5.254   1.261 126.673  0.00  0.00    +0.000 A 
BRANCH  31  39
ATOM     37  C   UNL     1      -8.004  -0.311 125.322  0.00  0.00    +0.000 C 
ATOM     38  O   UNL     1      -8.713   0.391 126.044  0.00  0.00    +0.000 OA
ATOM     39  N   UNL     1      -6.682   0.071 124.988  0.00  0.00    +0.000 N 
ATOM     40  H   UNL     1      -6.149  -0.501 124.345  0.00  0.00    +0.000 HD
BRANCH  37  46
ATOM     41  C   UNL     1      -8.919  -3.162 126.800  0.00  0.00    +0.000 C 
ATOM     42  C   UNL     1      -8.966  -2.724 125.396  0.00  0.00    +0.000 A 
ATOM     43  O   UNL     1      -9.479  -3.626 124.501  0.00  0.00    +0.000 OA
ATOM     44  C   UNL     1      -9.433  -3.047 123.278  0.00  0.00    +0.000 A 
ATOM     45  C   UNL     1      -8.906  -1.784 123.382  0.00  0.00    +0.000 A 
ATOM     46  C   UNL     1      -8.592  -1.548 124.769  0.00  0.00    +0.000 A 
ENDBRANCH  37  46
ENDBRANCH  31  39
ENDBRANCH   1  34
TORSDOF 5
ENDMDL
MODEL 8
REMARK VINA RESULT:     -10.4      4.975      7.948
REMARK  Name = CHEMBL3307200
REMARK  6 active torsions:
REMARK  status: ('A' for Active; 'I' for Inactive)
REMARK    1  A    between atoms: C_1  and  C_2
REMARK    2  A    between atoms: C_6  and  C_7
REMARK    3  A    between atoms: N_9  and  C_10
REMARK    4  A    between atoms: C_13  and  C_14
REMARK    5  A    between atoms: C_23  and  C_24
REMARK    6  A    between atoms: C_29  and  N_30
REMARK                            x       y       z     vdW  Elec       q    Type
REMARK                         _______ _______ _______ _____ _____    ______ ____
ROOT
ATOM      1  C   UNL     1      -7.222   1.628 133.334  0.00  0.00    +0.000 C 
ATOM      2  O   UNL     1      -6.569   1.163 134.437  0.00  0.00    +0.000 OA
ATOM      3  N   UNL     1      -7.936   0.247 132.112  0.00  0.00    +0.000 N 
ATOM      4  C   UNL     1      -6.592   0.239 132.524  0.00  0.00    +0.000 C 
ATOM      5  C   UNL     1      -6.464   0.877 131.273  0.00  0.00    +0.000 C 
ATOM      6  C   UNL     1      -6.248  -0.469 130.729  0.00  0.00    +0.000 C 
ATOM      7  F   UNL     1      -5.159  -1.190 130.855  0.00  0.00    +0.000 F 
ATOM      8  F   UNL     1      -7.080  -1.531 131.686  0.00  0.00    +0.000 F 
ATOM      9  C   UNL     1      -6.676   0.055 129.319  0.00  0.00    +0.000 C 
ATOM     10  C   UNL     1      -7.126   1.087 128.567  0.00  0.00    +0.000 C 
ATOM     11  C   UNL     1      -7.367  -1.022 128.941  0.00  0.00    +0.000 A 
ATOM     12  C   UNL     1      -6.737  -1.596 127.362  0.00  0.00    +0.000 A 
ATOM     13  C   UNL     1      -7.122  -2.665 126.618  0.00  0.00    +0.000 A 
ATOM     14  C   UNL     1      -7.860  -3.245 127.624  0.00  0.00    +0.000 A 
ATOM     15  C   UNL     1      -8.305  -2.466 129.294  0.00  0.00    +0.000 A 
ATOM     16  C   UNL     1      -8.276  -0.919 130.349  0.00  0.00    +0.000 A 
ENDROOT
BRANCH  10  17
ATOM     17  C   UNL     1      -7.107   2.420 129.187  0.00  0.00    +0.000 C 
ATOM     18  O   UNL     1      -6.238   3.092 129.725  0.00  0.00    +0.000 OA
ATOM     19  N   UNL     1      -8.135   3.200 129.042  0.00  0.00    +0.000 N 
ATOM     20  C   UNL     1      -7.730   4.586 128.905  0.00  0.00    +0.000 C 
ATOM     21  C   UNL     1      -8.132   5.451 130.068  0.00  0.00    +0.000 C 
ATOM     22  C   UNL     1      -9.587   5.201 130.480  0.00  0.00    +0.000 C 
ATOM     23  C   UNL     1      -9.800   3.695 130.742  0.00  0.00    +0.000 C 
ATOM     24  C   UNL     1      -9.366   2.800 129.600  0.00  0.00    +0.000 C 
BRANCH  22  25
ATOM     25  N   UNL     1     -10.572   5.724 129.497  0.00  0.00    +0.000 NA
ATOM     26  C   UNL     1     -11.880   5.906 130.123  0.00  0.00    +0.000 C 
ATOM     27  C   UNL     1     -12.858   6.479 129.111  0.00  0.00    +0.000 C 
ATOM     28  C   UNL     1     -12.395   7.814 128.531  0.00  0.00    +0.000 C 
ATOM     29  C   UNL     1     -11.030   7.671 127.936  0.00  0.00    +0.000 C 
ATOM     30  C   UNL     1     -10.198   7.015 128.957  0.00  0.00    +0.000 C 
ENDBRANCH  22  25
ENDBRANCH  10  17
BRANCH   1  34
ATOM     31  C   UNL     1      -6.334   6.196 136.653  0.00  0.00    +0.000 A 
ATOM     32  C   UNL     1      -5.327   5.260 136.566  0.00  0.00    +0.000 A 
ATOM     33  C   UNL     1      -5.448   3.935 135.467  0.00  0.00    +0.000 A 
ATOM     34  C   UNL     1      -6.730   3.270 134.464  0.00  0.00    +0.000 A 
ATOM     35  C   UNL     1      -7.403   4.550 134.657  0.00  0.00    +0.000 A 
ATOM     36  C   UNL     1      -7.280   5.868 135.680  0.00  0.00    +0.000 A 
BRANCH  31  39
ATOM     37  C   UNL     1      -7.569   7.576 138.354  0.00  0.00    +0.000 C 
ATOM     38  O   UNL     1      -8.467   6.740 138.448  0.00  0.00    +0.000 OA
ATOM     39  N   UNL     1      -6.451   7.370 137.510  0.00  0.00    +0.000 N 
ATOM     40  H   UNL     1      -5.702   8.053 137.503  0.00  0.00    +0.000 HD
BRANCH  37  46
ATOM     41  C   UNL     1      -9.992   9.855 138.653  0.00  0.00    +0.000 C 
ATOM     42  C   UNL     1      -8.678   9.726 139.304  0.00  0.00    +0.000 A 
ATOM     43  O   UNL     1      -8.357  10.703 140.210  0.00  0.00    +0.000 OA
ATOM     44  C   UNL     1      -7.124  10.415 140.689  0.00  0.00    +0.000 A 
ATOM     45  C   UNL     1      -6.658   9.263 140.107  0.00  0.00    +0.000 A 
ATOM     46  C   UNL     1      -7.665   8.790 139.191  0.00  0.00    +0.000 A 
ENDBRANCH  37  46
ENDBRANCH  31  39
ENDBRANCH   1  34
TORSDOF 5
ENDMDL
MODEL 9
REMARK VINA RESULT:     -10.3      4.077      7.716
REMARK  Name = CHEMBL3307200
REMARK  6 active torsions:
REMARK  status: ('A' for Active; 'I' for Inactive)
REMARK    1  A    between atoms: C_1  and  C_2
REMARK    2  A    between atoms: C_6  and  C_7
REMARK    3  A    between atoms: N_9  and  C_10
REMARK    4  A    between atoms: C_13  and  C_14
REMARK    5  A    between atoms: C_23  and  C_24
REMARK    6  A    between atoms: C_29  and  N_30
REMARK                            x       y       z     vdW  Elec       q    Type
REMARK                         _______ _______ _______ _____ _____    ______ ____
ROOT
ATOM      1  C   UNL     1      -7.972   2.185 128.589  0.00  0.00    +0.000 C 
ATOM      2  O   UNL     1      -9.263   2.621 128.544  0.00  0.00    +0.000 OA
ATOM      3  N   UNL     1      -7.234   1.506 126.885  0.00  0.00    +0.000 N 
ATOM      4  C   UNL     1      -8.449   1.025 127.402  0.00  0.00    +0.000 C 
ATOM      5  C   UNL     1      -7.572   0.019 127.855  0.00  0.00    +0.000 C 
ATOM      6  C   UNL     1      -7.892  -0.677 126.604  0.00  0.00    +0.000 C 
ATOM      7  F   UNL     1      -9.013  -1.302 126.331  0.00  0.00    +0.000 F 
ATOM      8  F   UNL     1      -8.243   0.476 125.471  0.00  0.00    +0.000 F 
ATOM      9  C   UNL     1      -6.561  -1.486 126.737  0.00  0.00    +0.000 C 
ATOM     10  C   UNL     1      -5.419  -1.709 127.429  0.00  0.00    +0.000 C 
ATOM     11  C   UNL     1      -6.229  -1.479 125.445  0.00  0.00    +0.000 A 
ATOM     12  C   UNL     1      -5.957  -3.167 124.902  0.00  0.00    +0.000 A 
ATOM     13  C   UNL     1      -5.626  -3.633 123.670  0.00  0.00    +0.000 A 
ATOM     14  C   UNL     1      -5.899  -2.450 123.023  0.00  0.00    +0.000 A 
ATOM     15  C   UNL     1      -6.283  -0.780 123.833  0.00  0.00    +0.000 A 
ATOM     16  C   UNL     1      -6.369   0.194 125.430  0.00  0.00    +0.000 A 
ENDROOT
BRANCH  10  17
ATOM     17  C   UNL     1      -5.316  -1.095 128.761  0.00  0.00    +0.000 C 
ATOM     18  O   UNL     1      -5.112   0.045 129.154  0.00  0.00    +0.000 OA
ATOM     19  N   UNL     1      -5.660  -1.786 129.805  0.00  0.00    +0.000 N 
ATOM     20  C   UNL     1      -6.308  -0.952 130.799  0.00  0.00    +0.000 C 
ATOM     21  C   UNL     1      -5.504  -0.779 132.059  0.00  0.00    +0.000 C 
ATOM     22  C   UNL     1      -4.933  -2.113 132.552  0.00  0.00    +0.000 C 
ATOM     23  C   UNL     1      -4.139  -2.789 131.414  0.00  0.00    +0.000 C 
ATOM     24  C   UNL     1      -4.915  -2.940 130.122  0.00  0.00    +0.000 C 
BRANCH  22  25
ATOM     25  N   UNL     1      -5.969  -3.024 133.105  0.00  0.00    +0.000 NA
ATOM     26  C   UNL     1      -5.352  -4.202 133.709  0.00  0.00    +0.000 C 
ATOM     27  C   UNL     1      -6.427  -5.098 134.302  0.00  0.00    +0.000 C 
ATOM     28  C   UNL     1      -7.275  -4.387 135.355  0.00  0.00    +0.000 C 
ATOM     29  C   UNL     1      -7.872  -3.142 134.780  0.00  0.00    +0.000 C 
ATOM     30  C   UNL     1      -6.767  -2.406 134.144  0.00  0.00    +0.000 C 
ENDBRANCH  22  25
ENDBRANCH  10  17
BRANCH   1  34
ATOM     31  C   UNL     1      -8.660   4.324 133.844  0.00  0.00    +0.000 A 
ATOM     32  C   UNL     1      -9.480   4.801 132.844  0.00  0.00    +0.000 A 
ATOM     33  C   UNL     1      -9.447   4.098 131.268  0.00  0.00    +0.000 A 
ATOM     34  C   UNL     1      -8.400   2.950 130.445  0.00  0.00    +0.000 A 
ATOM     35  C   UNL     1      -7.926   2.587 131.776  0.00  0.00    +0.000 A 
ATOM     36  C   UNL     1      -7.980   3.222 133.322  0.00  0.00    +0.000 A 
BRANCH  31  39
ATOM     37  C   UNL     1      -7.428   5.584 135.638  0.00  0.00    +0.000 C 
ATOM     38  O   UNL     1      -6.596   6.005 134.834  0.00  0.00    +0.000 OA
ATOM     39  N   UNL     1      -8.511   4.769 135.224  0.00  0.00    +0.000 N 
ATOM     40  H   UNL     1      -9.209   4.491 135.903  0.00  0.00    +0.000 HD
BRANCH  37  46
ATOM     41  C   UNL     1      -4.999   5.047 137.865  0.00  0.00    +0.000 C 
ATOM     42  C   UNL     1      -6.280   5.766 137.962  0.00  0.00    +0.000 A 
ATOM     43  O   UNL     1      -6.559   6.337 139.176  0.00  0.00    +0.000 OA
ATOM     44  C   UNL     1      -7.768   6.938 139.067  0.00  0.00    +0.000 A 
ATOM     45  C   UNL     1      -8.259   6.766 137.798  0.00  0.00    +0.000 A 
ATOM     46  C   UNL     1      -7.295   5.997 137.051  0.00  0.00    +0.000 A 
ENDBRANCH  37  46
ENDBRANCH  31  39
ENDBRANCH   1  34
TORSDOF 5
ENDMDL
