MODEL 1
REMARK VINA RESULT:     -10.4      0.000      0.000
REMARK  Name = CHEMBL31823
REMARK  6 active torsions:
REMARK  status: ('A' for Active; 'I' for Inactive)
REMARK    1  A    between atoms: C_1  and  C_2
REMARK    2  A    between atoms: N_4  and  C_5
REMARK    3  A    between atoms: C_5  and  C_6
REMARK    4  A    between atoms: C_6  and  N_7
REMARK    5  A    between atoms: C_12  and  C_13
REMARK    6  A    between atoms: C_18  and  N_19
REMARK                            x       y       z     vdW  Elec       q    Type
REMARK                         _______ _______ _______ _____ _____    ______ ____
ROOT
ATOM      1  C   UNL     1      -6.968   1.141 130.061  0.00  0.00    +0.000 C 
ATOM      2  O   UNL     1      -5.797   1.039 130.433  0.00  0.00    +0.000 OA
ATOM      3  N   UNL     1      -7.769   2.253 130.429  0.00  0.00    +0.000 N 
ATOM      4  C   UNL     1      -7.265   3.612 130.220  0.00  0.00    +0.000 C 
ATOM      5  C   UNL     1      -7.409   4.510 131.438  0.00  0.00    +0.000 C 
ATOM      6  C   UNL     1      -9.102   4.845 131.672  0.00  0.00    +0.000 C 
ATOM      7  C   UNL     1      -9.354   3.174 132.110  0.00  0.00    +0.000 C 
ATOM      8  C   UNL     1      -9.133   2.179 130.970  0.00  0.00    +0.000 C 
ENDROOT
BRANCH   6   9
ATOM      9  N   UNL     1      -9.733   6.237 130.620  0.00  0.00    +0.000 N 
ATOM     10  C   UNL     1     -10.710   6.318 131.677  0.00  0.00    +0.000 C 
ATOM     11  O   UNL     1     -10.505   6.463 132.927  0.00  0.00    +0.000 OA
ATOM     12  O   UNL     1     -11.955   6.016 131.363  0.00  0.00    +0.000 OA
ATOM     13  C   UNL     1     -12.368   7.308 131.122  0.00  0.00    +0.000 C 
ATOM     14  C   UNL     1     -12.160   7.127 129.695  0.00  0.00    +0.000 A 
ATOM     15  C   UNL     1     -13.267   6.917 128.800  0.00  0.00    +0.000 A 
ATOM     16  C   UNL     1     -13.276   7.229 127.455  0.00  0.00    +0.000 A 
ATOM     17  C   UNL     1     -12.209   8.015 127.124  0.00  0.00    +0.000 A 
ATOM     18  C   UNL     1     -10.968   7.979 128.102  0.00  0.00    +0.000 A 
ATOM     19  C   UNL     1     -10.838   6.986 129.326  0.00  0.00    +0.000 A 
ENDBRANCH   6   9
BRANCH   1  25
ATOM     20  N   UNL     1      -8.700  -2.934 126.439  0.00  0.00    +0.000 N 
ATOM     21  C   UNL     1      -8.637  -4.038 127.255  0.00  0.00    +0.000 A 
ATOM     22  C   UNL     1      -8.217  -3.625 128.501  0.00  0.00    +0.000 A 
ATOM     23  C   UNL     1      -8.012  -2.217 128.456  0.00  0.00    +0.000 A 
ATOM     24  C   UNL     1      -7.598  -1.248 129.415  0.00  0.00    +0.000 A 
ATOM     25  C   UNL     1      -7.491   0.119 129.064  0.00  0.00    +0.000 A 
ATOM     26  C   UNL     1      -7.770   0.468 127.744  0.00  0.00    +0.000 A 
ATOM     27  C   UNL     1      -8.194  -0.463 126.779  0.00  0.00    +0.000 A 
ATOM     28  C   UNL     1      -8.311  -1.809 127.150  0.00  0.00    +0.000 A 
BRANCH  20  29
ATOM     29  C   UNL     1      -9.123  -2.991 125.041  0.00  0.00    +0.000 C 
BRANCH  29  30
ATOM     30  C   UNL     1      -7.996  -2.639 124.068  0.00  0.00    +0.000 C 
BRANCH  30  34
ATOM     31  C   UNL     1      -4.612  -4.412 123.972  0.00  0.00    +0.000 C 
ATOM     32  C   UNL     1      -5.616  -3.287 124.081  0.00  0.00    +0.000 C 
ATOM     33  O   UNL     1      -5.260  -2.126 124.258  0.00  0.00    +0.000 OA
ATOM     34  N   UNL     1      -6.944  -3.654 123.972  0.00  0.00    +0.000 N 
ATOM     35  H   UNL     1      -7.183  -4.625 123.815  0.00  0.00    +0.000 HD
ENDBRANCH  30  34
ENDBRANCH  29  30
ENDBRANCH  20  29
ENDBRANCH   1  25
TORSDOF 5
ENDMDL
MODEL 2
REMARK VINA RESULT:     -10.2      1.397      1.809
REMARK  Name = CHEMBL31823
REMARK  6 active torsions:
REMARK  status: ('A' for Active; 'I' for Inactive)
REMARK    1  A    between atoms: C_1  and  C_2
REMARK    2  A    between atoms: N_4  and  C_5
REMARK    3  A    between atoms: C_5  and  C_6
REMARK    4  A    between atoms: C_6  and  N_7
REMARK    5  A    between atoms: C_12  and  C_13
REMARK    6  A    between atoms: C_18  and  N_19
REMARK                            x       y       z     vdW  Elec       q    Type
REMARK                         _______ _______ _______ _____ _____    ______ ____
ROOT
ATOM      1  C   UNL     1      -6.761   1.068 130.469  0.00  0.00    +0.000 C 
ATOM      2  O   UNL     1      -5.643   0.980 130.983  0.00  0.00    +0.000 OA
ATOM      3  N   UNL     1      -7.604   2.183 130.713  0.00  0.00    +0.000 N 
ATOM      4  C   UNL     1      -7.083   3.540 130.535  0.00  0.00    +0.000 C 
ATOM      5  C   UNL     1      -7.377   4.463 131.707  0.00  0.00    +0.000 C 
ATOM      6  C   UNL     1      -9.087   4.793 131.727  0.00  0.00    +0.000 C 
ATOM      7  C   UNL     1      -9.384   3.131 132.169  0.00  0.00    +0.000 C 
ATOM      8  C   UNL     1      -9.023   2.113 131.086  0.00  0.00    +0.000 C 
ENDROOT
BRANCH   6   9
ATOM      9  N   UNL     1      -9.590   6.158 130.575  0.00  0.00    +0.000 N 
ATOM     10  C   UNL     1     -10.660   6.291 131.532  0.00  0.00    +0.000 C 
ATOM     11  O   UNL     1     -10.570   6.476 132.790  0.00  0.00    +0.000 OA
ATOM     12  O   UNL     1     -11.875   5.999 131.112  0.00  0.00    +0.000 OA
ATOM     13  C   UNL     1     -12.239   7.288 130.792  0.00  0.00    +0.000 C 
ATOM     14  C   UNL     1     -11.903   7.054 129.398  0.00  0.00    +0.000 A 
ATOM     15  C   UNL     1     -12.925   6.832 128.410  0.00  0.00    +0.000 A 
ATOM     16  C   UNL     1     -12.802   7.097 127.060  0.00  0.00    +0.000 A 
ATOM     17  C   UNL     1     -11.694   7.854 126.805  0.00  0.00    +0.000 A 
ATOM     18  C   UNL     1     -10.551   7.832 127.896  0.00  0.00    +0.000 A 
ATOM     19  C   UNL     1     -10.555   6.879 129.159  0.00  0.00    +0.000 A 
ENDBRANCH   6   9
BRANCH   1  25
ATOM     20  N   UNL     1      -8.149  -3.120 126.827  0.00  0.00    +0.000 N 
ATOM     21  C   UNL     1      -8.697  -4.034 127.695  0.00  0.00    +0.000 A 
ATOM     22  C   UNL     1      -8.653  -3.499 128.964  0.00  0.00    +0.000 A 
ATOM     23  C   UNL     1      -8.059  -2.208 128.881  0.00  0.00    +0.000 A 
ATOM     24  C   UNL     1      -7.762  -1.195 129.838  0.00  0.00    +0.000 A 
ATOM     25  C   UNL     1      -7.157   0.021 129.440  0.00  0.00    +0.000 A 
ATOM     26  C   UNL     1      -6.833   0.168 128.093  0.00  0.00    +0.000 A 
ATOM     27  C   UNL     1      -7.125  -0.808 127.124  0.00  0.00    +0.000 A 
ATOM     28  C   UNL     1      -7.741  -1.998 127.534  0.00  0.00    +0.000 A 
BRANCH  20  29
ATOM     29  C   UNL     1      -8.040  -3.342 125.387  0.00  0.00    +0.000 C 
BRANCH  29  30
ATOM     30  C   UNL     1      -9.135  -2.627 124.594  0.00  0.00    +0.000 C 
BRANCH  30  34
ATOM     31  C   UNL     1      -8.561   0.928 123.314  0.00  0.00    +0.000 C 
ATOM     32  C   UNL     1      -9.108  -0.198 124.160  0.00  0.00    +0.000 C 
ATOM     33  O   UNL     1      -9.893   0.014 125.080  0.00  0.00    +0.000 OA
ATOM     34  N   UNL     1      -8.667  -1.466 123.832  0.00  0.00    +0.000 N 
ATOM     35  H   UNL     1      -8.028  -1.588 123.056  0.00  0.00    +0.000 HD
ENDBRANCH  30  34
ENDBRANCH  29  30
ENDBRANCH  20  29
ENDBRANCH   1  25
TORSDOF 5
ENDMDL
MODEL 3
REMARK VINA RESULT:     -10.1      1.905      2.890
REMARK  Name = CHEMBL31823
REMARK  6 active torsions:
REMARK  status: ('A' for Active; 'I' for Inactive)
REMARK    1  A    between atoms: C_1  and  C_2
REMARK    2  A    between atoms: N_4  and  C_5
REMARK    3  A    between atoms: C_5  and  C_6
REMARK    4  A    between atoms: C_6  and  N_7
REMARK    5  A    between atoms: C_12  and  C_13
REMARK    6  A    between atoms: C_18  and  N_19
REMARK                            x       y       z     vdW  Elec       q    Type
REMARK                         _______ _______ _______ _____ _____    ______ ____
ROOT
ATOM      1  C   UNL     1      -5.462   2.274 128.816  0.00  0.00    +0.000 C 
ATOM      2  O   UNL     1      -4.311   2.329 129.255  0.00  0.00    +0.000 OA
ATOM      3  N   UNL     1      -6.508   3.052 129.377  0.00  0.00    +0.000 N 
ATOM      4  C   UNL     1      -6.324   4.494 129.559  0.00  0.00    +0.000 C 
ATOM      5  C   UNL     1      -6.709   4.987 130.945  0.00  0.00    +0.000 C 
ATOM      6  C   UNL     1      -8.440   4.879 131.101  0.00  0.00    +0.000 C 
ATOM      7  C   UNL     1      -8.315   3.137 131.083  0.00  0.00    +0.000 C 
ATOM      8  C   UNL     1      -7.835   2.549 129.756  0.00  0.00    +0.000 C 
ENDROOT
BRANCH   6   9
ATOM      9  N   UNL     1      -9.340   6.331 130.376  0.00  0.00    +0.000 N 
ATOM     10  C   UNL     1     -10.120   6.185 131.580  0.00  0.00    +0.000 C 
ATOM     11  O   UNL     1      -9.709   6.186 132.787  0.00  0.00    +0.000 OA
ATOM     12  O   UNL     1     -11.376   5.814 131.435  0.00  0.00    +0.000 OA
ATOM     13  C   UNL     1     -11.912   7.082 131.453  0.00  0.00    +0.000 C 
ATOM     14  C   UNL     1     -11.947   7.106 130.001  0.00  0.00    +0.000 A 
ATOM     15  C   UNL     1     -13.176   6.913 129.279  0.00  0.00    +0.000 A 
ATOM     16  C   UNL     1     -13.443   7.393 128.012  0.00  0.00    +0.000 A 
ATOM     17  C   UNL     1     -12.507   8.310 127.625  0.00  0.00    +0.000 A 
ATOM     18  C   UNL     1     -11.114   8.262 128.371  0.00  0.00    +0.000 A 
ATOM     19  C   UNL     1     -10.703   7.136 129.402  0.00  0.00    +0.000 A 
ENDBRANCH   6   9
BRANCH   1  25
ATOM     20  N   UNL     1      -6.677  -0.593 124.017  0.00  0.00    +0.000 N 
ATOM     21  C   UNL     1      -7.175   0.423 123.238  0.00  0.00    +0.000 A 
ATOM     22  C   UNL     1      -7.123   1.589 123.971  0.00  0.00    +0.000 A 
ATOM     23  C   UNL     1      -6.572   1.286 125.248  0.00  0.00    +0.000 A 
ATOM     24  C   UNL     1      -6.270   2.064 126.403  0.00  0.00    +0.000 A 
ATOM     25  C   UNL     1      -5.705   1.463 127.553  0.00  0.00    +0.000 A 
ATOM     26  C   UNL     1      -5.494   0.086 127.522  0.00  0.00    +0.000 A 
ATOM     27  C   UNL     1      -5.769  -0.705 126.393  0.00  0.00    +0.000 A 
ATOM     28  C   UNL     1      -6.311  -0.090 125.257  0.00  0.00    +0.000 A 
BRANCH  20  29
ATOM     29  C   UNL     1      -6.566  -1.977 123.560  0.00  0.00    +0.000 C 
BRANCH  29  30
ATOM     30  C   UNL     1      -7.848  -2.779 123.789  0.00  0.00    +0.000 C 
BRANCH  30  34
ATOM     31  C   UNL     1      -8.917  -3.679 127.346  0.00  0.00    +0.000 C 
ATOM     32  C   UNL     1      -8.902  -2.969 126.012  0.00  0.00    +0.000 C 
ATOM     33  O   UNL     1      -9.698  -2.071 125.754  0.00  0.00    +0.000 OA
ATOM     34  N   UNL     1      -7.944  -3.399 125.113  0.00  0.00    +0.000 N 
ATOM     35  H   UNL     1      -7.304  -4.137 125.379  0.00  0.00    +0.000 HD
ENDBRANCH  30  34
ENDBRANCH  29  30
ENDBRANCH  20  29
ENDBRANCH   1  25
TORSDOF 5
ENDMDL
MODEL 4
REMARK VINA RESULT:      -9.8      1.988      2.475
REMARK  Name = CHEMBL31823
REMARK  6 active torsions:
REMARK  status: ('A' for Active; 'I' for Inactive)
REMARK    1  A    between atoms: C_1  and  C_2
REMARK    2  A    between atoms: N_4  and  C_5
REMARK    3  A    between atoms: C_5  and  C_6
REMARK    4  A    between atoms: C_6  and  N_7
REMARK    5  A    between atoms: C_12  and  C_13
REMARK    6  A    between atoms: C_18  and  N_19
REMARK                            x       y       z     vdW  Elec       q    Type
REMARK                         _______ _______ _______ _____ _____    ______ ____
ROOT
ATOM      1  C   UNL     1      -5.016   2.884 129.728  0.00  0.00    +0.000 C 
ATOM      2  O   UNL     1      -3.855   3.105 130.078  0.00  0.00    +0.000 OA
ATOM      3  N   UNL     1      -6.098   3.667 130.208  0.00  0.00    +0.000 N 
ATOM      4  C   UNL     1      -6.030   5.128 130.123  0.00  0.00    +0.000 C 
ATOM      5  C   UNL     1      -6.390   5.830 131.423  0.00  0.00    +0.000 C 
ATOM      6  C   UNL     1      -8.096   5.620 131.703  0.00  0.00    +0.000 C 
ATOM      7  C   UNL     1      -7.822   3.918 131.982  0.00  0.00    +0.000 C 
ATOM      8  C   UNL     1      -7.357   3.140 130.751  0.00  0.00    +0.000 C 
ENDROOT
BRANCH   6   9
ATOM      9  N   UNL     1      -9.151   6.846 130.794  0.00  0.00    +0.000 N 
ATOM     10  C   UNL     1     -10.116   6.438 131.784  0.00  0.00    +0.000 C 
ATOM     11  O   UNL     1      -9.999   6.466 133.053  0.00  0.00    +0.000 OA
ATOM     12  O   UNL     1     -11.171   5.776 131.352  0.00  0.00    +0.000 OA
ATOM     13  C   UNL     1     -12.003   6.869 131.248  0.00  0.00    +0.000 C 
ATOM     14  C   UNL     1     -11.718   6.973 129.827  0.00  0.00    +0.000 A 
ATOM     15  C   UNL     1     -12.664   6.525 128.840  0.00  0.00    +0.000 A 
ATOM     16  C   UNL     1     -12.755   7.001 127.547  0.00  0.00    +0.000 A 
ATOM     17  C   UNL     1     -12.022   8.143 127.390  0.00  0.00    +0.000 A 
ATOM     18  C   UNL     1     -10.866   8.397 128.437  0.00  0.00    +0.000 A 
ATOM     19  C   UNL     1     -10.422   7.346 129.533  0.00  0.00    +0.000 A 
ENDBRANCH   6   9
BRANCH   1  25
ATOM     20  N   UNL     1      -5.704  -1.259 125.843  0.00  0.00    +0.000 N 
ATOM     21  C   UNL     1      -5.901  -2.342 126.665  0.00  0.00    +0.000 A 
ATOM     22  C   UNL     1      -5.852  -1.904 127.970  0.00  0.00    +0.000 A 
ATOM     23  C   UNL     1      -5.616  -0.500 127.958  0.00  0.00    +0.000 A 
ATOM     24  C   UNL     1      -5.479   0.488 128.976  0.00  0.00    +0.000 A 
ATOM     25  C   UNL     1      -5.249   1.843 128.643  0.00  0.00    +0.000 A 
ATOM     26  C   UNL     1      -5.126   2.163 127.292  0.00  0.00    +0.000 A 
ATOM     27  C   UNL     1      -5.270   1.213 126.265  0.00  0.00    +0.000 A 
ATOM     28  C   UNL     1      -5.515  -0.121 126.613  0.00  0.00    +0.000 A 
BRANCH  20  29
ATOM     29  C   UNL     1      -5.704  -1.345 124.384  0.00  0.00    +0.000 C 
BRANCH  29  30
ATOM     30  C   UNL     1      -7.013  -0.852 123.764  0.00  0.00    +0.000 C 
BRANCH  30  34
ATOM     31  C   UNL     1      -9.774  -3.466 123.387  0.00  0.00    +0.000 C 
ATOM     32  C   UNL     1      -8.943  -2.368 124.009  0.00  0.00    +0.000 C 
ATOM     33  O   UNL     1      -9.211  -1.911 125.116  0.00  0.00    +0.000 OA
ATOM     34  N   UNL     1      -7.878  -1.918 123.252  0.00  0.00    +0.000 N 
ATOM     35  H   UNL     1      -7.694  -2.336 122.349  0.00  0.00    +0.000 HD
ENDBRANCH  30  34
ENDBRANCH  29  30
ENDBRANCH  20  29
ENDBRANCH   1  25
TORSDOF 5
ENDMDL
MODEL 5
REMARK VINA RESULT:      -9.6      2.771     10.217
REMARK  Name = CHEMBL31823
REMARK  6 active torsions:
REMARK  status: ('A' for Active; 'I' for Inactive)
REMARK    1  A    between atoms: C_1  and  C_2
REMARK    2  A    between atoms: N_4  and  C_5
REMARK    3  A    between atoms: C_5  and  C_6
REMARK    4  A    between atoms: C_6  and  N_7
REMARK    5  A    between atoms: C_12  and  C_13
REMARK    6  A    between atoms: C_18  and  N_19
REMARK                            x       y       z     vdW  Elec       q    Type
REMARK                         _______ _______ _______ _____ _____    ______ ____
ROOT
ATOM      1  C   UNL     1      -7.321   3.679 133.004  0.00  0.00    +0.000 C 
ATOM      2  O   UNL     1      -7.229   3.889 134.216  0.00  0.00    +0.000 OA
ATOM      3  N   UNL     1      -6.725   2.541 132.401  0.00  0.00    +0.000 N 
ATOM      4  C   UNL     1      -6.975   1.209 132.958  0.00  0.00    +0.000 C 
ATOM      5  C   UNL     1      -5.712   0.388 133.163  0.00  0.00    +0.000 C 
ATOM      6  C   UNL     1      -5.085  -0.048 131.599  0.00  0.00    +0.000 C 
ATOM      7  C   UNL     1      -4.686   1.627 131.311  0.00  0.00    +0.000 C 
ATOM      8  C   UNL     1      -5.895   2.555 131.190  0.00  0.00    +0.000 C 
ENDROOT
BRANCH   6   9
ATOM      9  N   UNL     1      -5.896  -1.550 130.869  0.00  0.00    +0.000 N 
ATOM     10  C   UNL     1      -4.725  -1.519 130.029  0.00  0.00    +0.000 C 
ATOM     11  O   UNL     1      -3.501  -1.526 130.387  0.00  0.00    +0.000 OA
ATOM     12  O   UNL     1      -4.915  -1.259 128.751  0.00  0.00    +0.000 OA
ATOM     13  C   UNL     1      -4.962  -2.571 128.334  0.00  0.00    +0.000 C 
ATOM     14  C   UNL     1      -6.415  -2.545 128.364  0.00  0.00    +0.000 A 
ATOM     15  C   UNL     1      -7.185  -2.439 127.153  0.00  0.00    +0.000 A 
ATOM     16  C   UNL     1      -8.477  -2.895 126.986  0.00  0.00    +0.000 A 
ATOM     17  C   UNL     1      -8.851  -3.708 128.019  0.00  0.00    +0.000 A 
ATOM     18  C   UNL     1      -8.042  -3.561 129.369  0.00  0.00    +0.000 A 
ATOM     19  C   UNL     1      -6.957  -2.439 129.629  0.00  0.00    +0.000 A 
ENDBRANCH   6   9
BRANCH   1  25
ATOM     20  N   UNL     1     -10.812   6.831 129.747  0.00  0.00    +0.000 N 
ATOM     21  C   UNL     1     -11.875   5.970 129.614  0.00  0.00    +0.000 A 
ATOM     22  C   UNL     1     -11.586   4.822 130.320  0.00  0.00    +0.000 A 
ATOM     23  C   UNL     1     -10.300   4.976 130.911  0.00  0.00    +0.000 A 
ATOM     24  C   UNL     1      -9.490   4.149 131.743  0.00  0.00    +0.000 A 
ATOM     25  C   UNL     1      -8.223   4.592 132.189  0.00  0.00    +0.000 A 
ATOM     26  C   UNL     1      -7.789   5.843 131.754  0.00  0.00    +0.000 A 
ATOM     27  C   UNL     1      -8.570   6.686 130.945  0.00  0.00    +0.000 A 
ATOM     28  C   UNL     1      -9.831   6.238 130.528  0.00  0.00    +0.000 A 
BRANCH  20  29
ATOM     29  C   UNL     1     -10.772   8.159 129.140  0.00  0.00    +0.000 C 
BRANCH  29  30
ATOM     30  C   UNL     1     -12.049   8.495 128.367  0.00  0.00    +0.000 C 
BRANCH  30  34
ATOM     31  C   UNL     1     -13.675  11.468 130.132  0.00  0.00    +0.000 C 
ATOM     32  C   UNL     1     -13.128  10.075 129.924  0.00  0.00    +0.000 C 
ATOM     33  O   UNL     1     -13.147   9.238 130.821  0.00  0.00    +0.000 OA
ATOM     34  N   UNL     1     -12.608   9.814 128.670  0.00  0.00    +0.000 N 
ATOM     35  H   UNL     1     -12.626  10.537 127.961  0.00  0.00    +0.000 HD
ENDBRANCH  30  34
ENDBRANCH  29  30
ENDBRANCH  20  29
ENDBRANCH   1  25
TORSDOF 5
ENDMDL
MODEL 6
REMARK VINA RESULT:      -9.3      4.567      5.354
REMARK  Name = CHEMBL31823
REMARK  6 active torsions:
REMARK  status: ('A' for Active; 'I' for Inactive)
REMARK    1  A    between atoms: C_1  and  C_2
REMARK    2  A    between atoms: N_4  and  C_5
REMARK    3  A    between atoms: C_5  and  C_6
REMARK    4  A    between atoms: C_6  and  N_7
REMARK    5  A    between atoms: C_12  and  C_13
REMARK    6  A    between atoms: C_18  and  N_19
REMARK                            x       y       z     vdW  Elec       q    Type
REMARK                         _______ _______ _______ _____ _____    ______ ____
ROOT
ATOM      1  C   UNL     1      -6.335   4.350 128.606  0.00  0.00    +0.000 C 
ATOM      2  O   UNL     1      -5.230   4.696 129.028  0.00  0.00    +0.000 OA
ATOM      3  N   UNL     1      -7.494   4.409 129.424  0.00  0.00    +0.000 N 
ATOM      4  C   UNL     1      -7.817   5.647 130.137  0.00  0.00    +0.000 C 
ATOM      5  C   UNL     1      -8.139   5.436 131.607  0.00  0.00    +0.000 C 
ATOM      6  C   UNL     1      -9.669   4.612 131.719  0.00  0.00    +0.000 C 
ATOM      7  C   UNL     1      -8.928   3.183 131.044  0.00  0.00    +0.000 C 
ATOM      8  C   UNL     1      -8.475   3.329 129.590  0.00  0.00    +0.000 C 
ENDROOT
BRANCH   6   9
ATOM      9  N   UNL     1     -11.131   5.749 131.601  0.00  0.00    +0.000 N 
ATOM     10  C   UNL     1     -11.372   4.978 130.407  0.00  0.00    +0.000 C 
ATOM     11  O   UNL     1     -11.495   3.714 130.299  0.00  0.00    +0.000 OA
ATOM     12  O   UNL     1     -11.263   5.612 129.256  0.00  0.00    +0.000 OA
ATOM     13  C   UNL     1     -12.600   5.911 129.120  0.00  0.00    +0.000 C 
ATOM     14  C   UNL     1     -12.376   7.240 129.662  0.00  0.00    +0.000 A 
ATOM     15  C   UNL     1     -12.330   8.397 128.807  0.00  0.00    +0.000 A 
ATOM     16  C   UNL     1     -12.627   9.689 129.195  0.00  0.00    +0.000 A 
ATOM     17  C   UNL     1     -13.235   9.709 130.418  0.00  0.00    +0.000 A 
ATOM     18  C   UNL     1     -13.019   8.445 131.342  0.00  0.00    +0.000 A 
ATOM     19  C   UNL     1     -12.029   7.260 130.997  0.00  0.00    +0.000 A 
ENDBRANCH   6   9
BRANCH   1  25
ATOM     20  N   UNL     1      -7.036   2.790 123.146  0.00  0.00    +0.000 N 
ATOM     21  C   UNL     1      -8.394   2.584 123.118  0.00  0.00    +0.000 A 
ATOM     22  C   UNL     1      -8.895   2.860 124.371  0.00  0.00    +0.000 A 
ATOM     23  C   UNL     1      -7.811   3.252 125.206  0.00  0.00    +0.000 A 
ATOM     24  C   UNL     1      -7.710   3.657 126.569  0.00  0.00    +0.000 A 
ATOM     25  C   UNL     1      -6.458   4.001 127.131  0.00  0.00    +0.000 A 
ATOM     26  C   UNL     1      -5.334   3.892 126.314  0.00  0.00    +0.000 A 
ATOM     27  C   UNL     1      -5.404   3.509 124.963  0.00  0.00    +0.000 A 
ATOM     28  C   UNL     1      -6.654   3.189 124.419  0.00  0.00    +0.000 A 
BRANCH  20  29
ATOM     29  C   UNL     1      -6.169   2.607 121.984  0.00  0.00    +0.000 C 
BRANCH  29  30
ATOM     30  C   UNL     1      -5.538   3.916 121.505  0.00  0.00    +0.000 C 
BRANCH  30  34
ATOM     31  C   UNL     1      -5.951   5.832 118.225  0.00  0.00    +0.000 C 
ATOM     32  C   UNL     1      -5.470   5.505 119.620  0.00  0.00    +0.000 C 
ATOM     33  O   UNL     1      -4.700   6.247 120.223  0.00  0.00    +0.000 OA
ATOM     34  N   UNL     1      -5.948   4.326 120.160  0.00  0.00    +0.000 N 
ATOM     35  H   UNL     1      -6.590   3.755 119.625  0.00  0.00    +0.000 HD
ENDBRANCH  30  34
ENDBRANCH  29  30
ENDBRANCH  20  29
ENDBRANCH   1  25
TORSDOF 5
ENDMDL
MODEL 7
REMARK VINA RESULT:      -9.0      4.389     10.382
REMARK  Name = CHEMBL31823
REMARK  6 active torsions:
REMARK  status: ('A' for Active; 'I' for Inactive)
REMARK    1  A    between atoms: C_1  and  C_2
REMARK    2  A    between atoms: N_4  and  C_5
REMARK    3  A    between atoms: C_5  and  C_6
REMARK    4  A    between atoms: C_6  and  N_7
REMARK    5  A    between atoms: C_12  and  C_13
REMARK    6  A    between atoms: C_18  and  N_19
REMARK                            x       y       z     vdW  Elec       q    Type
REMARK                         _______ _______ _______ _____ _____    ______ ____
ROOT
ATOM      1  C   UNL     1      -6.300   4.961 125.545  0.00  0.00    +0.000 C 
ATOM      2  O   UNL     1      -6.272   6.023 124.920  0.00  0.00    +0.000 OA
ATOM      3  N   UNL     1      -6.873   3.788 124.988  0.00  0.00    +0.000 N 
ATOM      4  C   UNL     1      -6.465   3.343 123.653  0.00  0.00    +0.000 C 
ATOM      5  C   UNL     1      -7.633   3.017 122.737  0.00  0.00    +0.000 C 
ATOM      6  C   UNL     1      -8.397   1.565 123.322  0.00  0.00    +0.000 C 
ATOM      7  C   UNL     1      -8.948   2.442 124.727  0.00  0.00    +0.000 C 
ATOM      8  C   UNL     1      -7.832   2.904 125.664  0.00  0.00    +0.000 C 
ENDROOT
BRANCH   6   9
ATOM      9  N   UNL     1      -7.563   0.009 122.750  0.00  0.00    +0.000 N 
ATOM     10  C   UNL     1      -8.799  -0.576 123.207  0.00  0.00    +0.000 C 
ATOM     11  O   UNL     1      -9.987  -0.281 122.849  0.00  0.00    +0.000 OA
ATOM     12  O   UNL     1      -8.731  -1.371 124.256  0.00  0.00    +0.000 OA
ATOM     13  C   UNL     1      -8.642  -2.549 123.547  0.00  0.00    +0.000 C 
ATOM     14  C   UNL     1      -7.196  -2.545 123.688  0.00  0.00    +0.000 A 
ATOM     15  C   UNL     1      -6.535  -3.405 124.634  0.00  0.00    +0.000 A 
ATOM     16  C   UNL     1      -5.237  -3.862 124.526  0.00  0.00    +0.000 A 
ATOM     17  C   UNL     1      -4.733  -3.628 123.278  0.00  0.00    +0.000 A 
ATOM     18  C   UNL     1      -5.436  -2.495 122.428  0.00  0.00    +0.000 A 
ATOM     19  C   UNL     1      -6.559  -1.536 122.995  0.00  0.00    +0.000 A 
ENDBRANCH   6   9
BRANCH   1  25
ATOM     20  N   UNL     1      -3.226   4.704 130.363  0.00  0.00    +0.000 N 
ATOM     21  C   UNL     1      -2.175   5.525 130.034  0.00  0.00    +0.000 A 
ATOM     22  C   UNL     1      -2.385   5.996 128.756  0.00  0.00    +0.000 A 
ATOM     23  C   UNL     1      -3.609   5.449 128.277  0.00  0.00    +0.000 A 
ATOM     24  C   UNL     1      -4.338   5.577 127.059  0.00  0.00    +0.000 A 
ATOM     25  C   UNL     1      -5.564   4.895 126.874  0.00  0.00    +0.000 A 
ATOM     26  C   UNL     1      -6.005   4.072 127.908  0.00  0.00    +0.000 A 
ATOM     27  C   UNL     1      -5.315   3.936 129.126  0.00  0.00    +0.000 A 
ATOM     28  C   UNL     1      -4.112   4.633 129.298  0.00  0.00    +0.000 A 
BRANCH  20  29
ATOM     29  C   UNL     1      -3.348   4.032 131.655  0.00  0.00    +0.000 C 
BRANCH  29  30
ATOM     30  C   UNL     1      -3.923   4.942 132.743  0.00  0.00    +0.000 C 
BRANCH  30  34
ATOM     31  C   UNL     1      -7.502   6.141 132.145  0.00  0.00    +0.000 C 
ATOM     32  C   UNL     1      -5.991   6.127 132.107  0.00  0.00    +0.000 C 
ATOM     33  O   UNL     1      -5.356   7.019 131.553  0.00  0.00    +0.000 OA
ATOM     34  N   UNL     1      -5.384   5.052 132.728  0.00  0.00    +0.000 N 
ATOM     35  H   UNL     1      -5.954   4.348 133.180  0.00  0.00    +0.000 HD
ENDBRANCH  30  34
ENDBRANCH  29  30
ENDBRANCH  20  29
ENDBRANCH   1  25
TORSDOF 5
ENDMDL
MODEL 8
REMARK VINA RESULT:      -8.9      4.002      5.043
REMARK  Name = CHEMBL31823
REMARK  6 active torsions:
REMARK  status: ('A' for Active; 'I' for Inactive)
REMARK    1  A    between atoms: C_1  and  C_2
REMARK    2  A    between atoms: N_4  and  C_5
REMARK    3  A    between atoms: C_5  and  C_6
REMARK    4  A    between atoms: C_6  and  N_7
REMARK    5  A    between atoms: C_12  and  C_13
REMARK    6  A    between atoms: C_18  and  N_19
REMARK                            x       y       z     vdW  Elec       q    Type
REMARK                         _______ _______ _______ _____ _____    ______ ____
ROOT
ATOM      1  C   UNL     1      -7.338  -2.102 130.264  0.00  0.00    +0.000 C 
ATOM      2  O   UNL     1      -7.241  -3.136 130.928  0.00  0.00    +0.000 OA
ATOM      3  N   UNL     1      -7.329  -0.822 130.876  0.00  0.00    +0.000 N 
ATOM      4  C   UNL     1      -6.263  -0.476 131.819  0.00  0.00    +0.000 C 
ATOM      5  C   UNL     1      -6.771   0.126 133.119  0.00  0.00    +0.000 C 
ATOM      6  C   UNL     1      -7.402   1.713 132.776  0.00  0.00    +0.000 C 
ATOM      7  C   UNL     1      -8.714   0.979 131.887  0.00  0.00    +0.000 C 
ATOM      8  C   UNL     1      -8.288   0.258 130.608  0.00  0.00    +0.000 C 
ENDROOT
BRANCH   6   9
ATOM      9  N   UNL     1      -6.097   3.031 132.720  0.00  0.00    +0.000 N 
ATOM     10  C   UNL     1      -7.090   3.755 133.474  0.00  0.00    +0.000 C 
ATOM     11  O   UNL     1      -7.650   3.413 134.567  0.00  0.00    +0.000 OA
ATOM     12  O   UNL     1      -7.638   4.801 132.888  0.00  0.00    +0.000 OA
ATOM     13  C   UNL     1      -6.794   5.742 133.435  0.00  0.00    +0.000 C 
ATOM     14  C   UNL     1      -5.977   5.730 132.233  0.00  0.00    +0.000 A 
ATOM     15  C   UNL     1      -6.057   6.792 131.265  0.00  0.00    +0.000 A 
ATOM     16  C   UNL     1      -5.047   7.162 130.400  0.00  0.00    +0.000 A 
ATOM     17  C   UNL     1      -3.859   6.586 130.753  0.00  0.00    +0.000 A 
ATOM     18  C   UNL     1      -3.938   5.289 131.654  0.00  0.00    +0.000 A 
ATOM     19  C   UNL     1      -5.288   4.553 132.024  0.00  0.00    +0.000 A 
ENDBRANCH   6   9
BRANCH   1  25
ATOM     20  N   UNL     1      -7.110  -2.233 124.549  0.00  0.00    +0.000 N 
ATOM     21  C   UNL     1      -5.910  -1.600 124.332  0.00  0.00    +0.000 A 
ATOM     22  C   UNL     1      -5.371  -1.274 125.557  0.00  0.00    +0.000 A 
ATOM     23  C   UNL     1      -6.267  -1.720 126.569  0.00  0.00    +0.000 A 
ATOM     24  C   UNL     1      -6.250  -1.676 127.994  0.00  0.00    +0.000 A 
ATOM     25  C   UNL     1      -7.314  -2.224 128.748  0.00  0.00    +0.000 A 
ATOM     26  C   UNL     1      -8.386  -2.770 128.046  0.00  0.00    +0.000 A 
ATOM     27  C   UNL     1      -8.426  -2.839 126.642  0.00  0.00    +0.000 A 
ATOM     28  C   UNL     1      -7.355  -2.307 125.912  0.00  0.00    +0.000 A 
BRANCH  20  29
ATOM     29  C   UNL     1      -7.961  -2.736 123.472  0.00  0.00    +0.000 C 
BRANCH  29  30
ATOM     30  C   UNL     1      -9.134  -1.804 123.162  0.00  0.00    +0.000 C 
BRANCH  30  34
ATOM     31  C   UNL     1      -9.316   2.009 122.997  0.00  0.00    +0.000 C 
ATOM     32  C   UNL     1      -9.756   0.567 122.890  0.00  0.00    +0.000 C 
ATOM     33  O   UNL     1     -10.890   0.269 122.527  0.00  0.00    +0.000 OA
ATOM     34  N   UNL     1      -8.806  -0.378 123.228  0.00  0.00    +0.000 N 
ATOM     35  H   UNL     1      -7.882  -0.079 123.511  0.00  0.00    +0.000 HD
ENDBRANCH  30  34
ENDBRANCH  29  30
ENDBRANCH  20  29
ENDBRANCH   1  25
TORSDOF 5
ENDMDL
MODEL 9
REMARK VINA RESULT:      -8.9      2.136      2.775
REMARK  Name = CHEMBL31823
REMARK  6 active torsions:
REMARK  status: ('A' for Active; 'I' for Inactive)
REMARK    1  A    between atoms: C_1  and  C_2
REMARK    2  A    between atoms: N_4  and  C_5
REMARK    3  A    between atoms: C_5  and  C_6
REMARK    4  A    between atoms: C_6  and  N_7
REMARK    5  A    between atoms: C_12  and  C_13
REMARK    6  A    between atoms: C_18  and  N_19
REMARK                            x       y       z     vdW  Elec       q    Type
REMARK                         _______ _______ _______ _____ _____    ______ ____
ROOT
ATOM      1  C   UNL     1      -5.669   0.344 129.411  0.00  0.00    +0.000 C 
ATOM      2  O   UNL     1      -4.488   0.112 129.677  0.00  0.00    +0.000 OA
ATOM      3  N   UNL     1      -6.401   1.348 130.095  0.00  0.00    +0.000 N 
ATOM      4  C   UNL     1      -5.846   2.699 130.211  0.00  0.00    +0.000 C 
ATOM      5  C   UNL     1      -5.893   3.257 131.625  0.00  0.00    +0.000 C 
ATOM      6  C   UNL     1      -7.556   3.574 132.032  0.00  0.00    +0.000 C 
ATOM      7  C   UNL     1      -7.863   1.856 132.042  0.00  0.00    +0.000 C 
ATOM      8  C   UNL     1      -7.740   1.182 130.675  0.00  0.00    +0.000 C 
ENDROOT
BRANCH   6   9
ATOM      9  N   UNL     1      -8.172   5.210 131.407  0.00  0.00    +0.000 N 
ATOM     10  C   UNL     1      -9.007   5.109 132.578  0.00  0.00    +0.000 C 
ATOM     11  O   UNL     1      -8.645   4.948 133.789  0.00  0.00    +0.000 OA
ATOM     12  O   UNL     1     -10.302   4.970 132.376  0.00  0.00    +0.000 OA
ATOM     13  C   UNL     1     -10.617   6.307 132.484  0.00  0.00    +0.000 C 
ATOM     14  C   UNL     1     -10.595   6.446 131.038  0.00  0.00    +0.000 A 
ATOM     15  C   UNL     1     -11.814   6.521 130.276  0.00  0.00    +0.000 A 
ATOM     16  C   UNL     1     -11.950   7.134 129.047  0.00  0.00    +0.000 A 
ATOM     17  C   UNL     1     -10.860   7.903 128.755  0.00  0.00    +0.000 A 
ATOM     18  C   UNL     1      -9.522   7.562 129.525  0.00  0.00    +0.000 A 
ATOM     19  C   UNL     1      -9.344   6.307 130.471  0.00  0.00    +0.000 A 
ENDBRANCH   6   9
BRANCH   1  25
ATOM     20  N   UNL     1      -7.960  -2.646 125.104  0.00  0.00    +0.000 N 
ATOM     21  C   UNL     1      -8.760  -3.517 125.803  0.00  0.00    +0.000 A 
ATOM     22  C   UNL     1      -8.627  -3.237 127.145  0.00  0.00    +0.000 A 
ATOM     23  C   UNL     1      -7.714  -2.154 127.285  0.00  0.00    +0.000 A 
ATOM     24  C   UNL     1      -7.200  -1.433 128.401  0.00  0.00    +0.000 A 
ATOM     25  C   UNL     1      -6.284  -0.370 128.217  0.00  0.00    +0.000 A 
ATOM     26  C   UNL     1      -5.881  -0.086 126.914  0.00  0.00    +0.000 A 
ATOM     27  C   UNL     1      -6.380  -0.771 125.792  0.00  0.00    +0.000 A 
ATOM     28  C   UNL     1      -7.300  -1.809 125.992  0.00  0.00    +0.000 A 
BRANCH  20  29
ATOM     29  C   UNL     1      -7.856  -2.640 123.646  0.00  0.00    +0.000 C 
BRANCH  29  30
ATOM     30  C   UNL     1      -8.914  -1.757 122.982  0.00  0.00    +0.000 C 
BRANCH  30  34
ATOM     31  C   UNL     1      -9.405   2.029 123.154  0.00  0.00    +0.000 C 
ATOM     32  C   UNL     1      -9.732   0.570 122.935  0.00  0.00    +0.000 C 
ATOM     33  O   UNL     1     -10.851   0.210 122.580  0.00  0.00    +0.000 OA
ATOM     34  N   UNL     1      -8.699  -0.319 123.162  0.00  0.00    +0.000 N 
ATOM     35  H   UNL     1      -7.791   0.031 123.443  0.00  0.00    +0.000 HD
ENDBRANCH  30  34
ENDBRANCH  29  30
ENDBRANCH  20  29
ENDBRANCH   1  25
TORSDOF 5
ENDMDL
