MODEL 1
REMARK VINA RESULT:      -9.2      0.000      0.000
REMARK  Name = CHEMBL2035015
REMARK  12 active torsions:
REMARK  status: ('A' for Active; 'I' for Inactive)
REMARK    1  A    between atoms: CD1_1  and  CG_2
REMARK    2  A    between atoms: CG_2  and  CD2_3
REMARK    3  A    between atoms: CG_2  and  CB_4
REMARK    4  A    between atoms: CB_4  and  CA_5
REMARK    5  A    between atoms: C_9  and  C_10
REMARK    6  A    between atoms: N_21  and  C_22
REMARK    7  A    between atoms: C_22  and  C_23
REMARK    8  A    between atoms: C_22  and  C_29
REMARK    9  A    between atoms: N_25  and  C_26
REMARK   10  A    between atoms: C_26  and  C_27
REMARK   11  A    between atoms: C_26  and  C_28
REMARK   12  A    between atoms: C_34  and  C_35
REMARK                            x       y       z     vdW  Elec       q    Type
REMARK                         _______ _______ _______ _____ _____    ______ ____
ROOT
ATOM      1  CA  LEU A   2      -7.192   2.143 129.417  0.00  0.00    +0.000 C 
ATOM      2  C   LEU A   2      -7.917   3.367 128.757  0.00  0.00    +0.000 C 
ATOM      3  O   LEU A   2      -8.249   3.468 127.600  0.00  0.00    +0.000 OA
ATOM      4  N   UNK A   1      -8.228   4.366 129.645  0.00  0.00    +0.000 N 
ATOM      5  C   UNK A   1      -7.939   4.274 131.060  0.00  0.00    +0.000 C 
ATOM      6  C   UNK A   1      -6.516   3.788 131.168  0.00  0.00    +0.000 C 
ATOM      7  O   UNK A   1      -5.771   4.319 131.981  0.00  0.00    +0.000 OA
ATOM      8  N   LEU A   2      -6.133   2.768 130.309  0.00  0.00    +0.000 N 
ATOM      9  H   UNK A   1      -8.642   5.190 129.230  0.00  0.00    +0.000 HD
ENDROOT
BRANCH   5  10
ATOM     10  C   UNK A   1      -7.889   5.628 131.809  0.00  0.00    +0.000 C 
ATOM     11  C   UNK A   1      -9.077   5.792 132.746  0.00  0.00    +0.000 C 
ATOM     12  C   UNK A   1     -10.054   6.454 131.823  0.00  0.00    +0.000 A 
ATOM     13  C   UNK A   1     -11.426   6.420 131.894  0.00  0.00    +0.000 A 
ATOM     14  C   UNK A   1     -12.150   6.984 130.841  0.00  0.00    +0.000 A 
ATOM     15  C   UNK A   1     -11.502   7.551 129.730  0.00  0.00    +0.000 A 
ATOM     16  C   UNK A   1     -10.115   7.569 129.655  0.00  0.00    +0.000 A 
ATOM     17  C   UNK A   1      -9.413   7.034 130.719  0.00  0.00    +0.000 A 
ATOM     18  C   UNK A   1      -7.944   6.839 130.813  0.00  0.00    +0.000 C 
ENDBRANCH   5  10
BRANCH   1  19
ATOM     19  CB  LEU A   2      -6.840   1.158 128.270  0.00  0.00    +0.000 C 
BRANCH  19  21
ATOM     20  CD1 LEU A   2      -6.296  -1.438 128.019  0.00  0.00    +0.000 C 
ATOM     21  CG  LEU A   2      -7.304  -0.359 128.368  0.00  0.00    +0.000 C 
ATOM     22  CD2 LEU A   2      -7.792  -0.873 129.689  0.00  0.00    +0.000 C 
ENDBRANCH  19  21
ENDBRANCH   1  19
BRANCH   8  23
ATOM     23  C   UNK A   0      -4.669   2.582 130.294  0.00  0.00    +0.000 C 
BRANCH  23  24
ATOM     24  C   UNK A   0      -3.870   3.162 129.088  0.00  0.00    +0.000 A 
ATOM     25  C   UNK A   0      -3.814   2.355 127.947  0.00  0.00    +0.000 A 
ATOM     26  C   UNK A   0      -3.138   2.734 126.817  0.00  0.00    +0.000 A 
ATOM     27  C   UNK A   0      -2.596   4.001 126.760  0.00  0.00    +0.000 A 
ATOM     28  C   UNK A   0      -2.577   4.828 127.891  0.00  0.00    +0.000 A 
ATOM     29  C   UNK A   0      -3.141   4.420 129.112  0.00  0.00    +0.000 A 
BRANCH  29  30
ATOM     30  C   UNK A   0      -3.108   5.411 130.254  0.00  0.00    +0.000 A 
ATOM     31  C   UNK A   0      -3.905   6.575 130.195  0.00  0.00    +0.000 A 
ATOM     32  C   UNK A   0      -4.022   7.467 131.269  0.00  0.00    +0.000 A 
ATOM     33  C   UNK A   0      -3.347   7.213 132.454  0.00  0.00    +0.000 A 
ATOM     34  C   UNK A   0      -2.507   6.106 132.532  0.00  0.00    +0.000 A 
ATOM     35  C   UNK A   0      -2.360   5.246 131.428  0.00  0.00    +0.000 A 
ENDBRANCH  29  30
ENDBRANCH  23  24
BRANCH  23  36
ATOM     36  C   UNK A   0      -4.074   1.306 131.132  0.00  0.00    +0.000 C 
ATOM     37  O   UNK A   0      -3.696   1.329 132.300  0.00  0.00    +0.000 OA
ATOM     38  N   UNK A   0      -4.162   0.054 130.559  0.00  0.00    +0.000 N 
ATOM     39  H   UNK A   0      -4.982  -0.063 130.023  0.00  0.00    +0.000 HD
BRANCH  38  40
ATOM     40  C   UNK A   0      -3.837  -1.235 131.166  0.00  0.00    +0.000 C 
ATOM     41  C   UNK A   0      -5.087  -1.823 131.821  0.00  0.00    +0.000 C 
ATOM     42  C   UNK A   0      -3.279  -2.247 130.132  0.00  0.00    +0.000 C 
ENDBRANCH  38  40
ENDBRANCH  23  36
ENDBRANCH   8  23
TORSDOF 8
ENDMDL
MODEL 2
REMARK VINA RESULT:      -9.2      3.136      6.472
REMARK  Name = CHEMBL2035015
REMARK  12 active torsions:
REMARK  status: ('A' for Active; 'I' for Inactive)
REMARK    1  A    between atoms: CD1_1  and  CG_2
REMARK    2  A    between atoms: CG_2  and  CD2_3
REMARK    3  A    between atoms: CG_2  and  CB_4
REMARK    4  A    between atoms: CB_4  and  CA_5
REMARK    5  A    between atoms: C_9  and  C_10
REMARK    6  A    between atoms: N_21  and  C_22
REMARK    7  A    between atoms: C_22  and  C_23
REMARK    8  A    between atoms: C_22  and  C_29
REMARK    9  A    between atoms: N_25  and  C_26
REMARK   10  A    between atoms: C_26  and  C_27
REMARK   11  A    between atoms: C_26  and  C_28
REMARK   12  A    between atoms: C_34  and  C_35
REMARK                            x       y       z     vdW  Elec       q    Type
REMARK                         _______ _______ _______ _____ _____    ______ ____
ROOT
ATOM      1  CA  LEU A   2      -7.448   1.642 126.473  0.00  0.00    +0.000 C 
ATOM      2  C   LEU A   2      -6.938   3.003 127.063  0.00  0.00    +0.000 C 
ATOM      3  O   LEU A   2      -6.144   3.756 126.551  0.00  0.00    +0.000 OA
ATOM      4  N   UNK A   1      -7.531   3.343 128.252  0.00  0.00    +0.000 N 
ATOM      5  C   UNK A   1      -8.553   2.533 128.878  0.00  0.00    +0.000 C 
ATOM      6  C   UNK A   1      -8.047   1.113 128.838  0.00  0.00    +0.000 C 
ATOM      7  O   UNK A   1      -8.169   0.414 129.834  0.00  0.00    +0.000 OA
ATOM      8  N   LEU A   2      -7.446   0.694 127.660  0.00  0.00    +0.000 N 
ATOM      9  H   UNK A   1      -7.174   4.188 128.680  0.00  0.00    +0.000 HD
ENDROOT
BRANCH   5  10
ATOM     10  C   UNK A   1      -8.747   2.777 130.395  0.00  0.00    +0.000 C 
ATOM     11  C   UNK A   1     -10.206   3.048 130.734  0.00  0.00    +0.000 C 
ATOM     12  C   UNK A   1     -10.238   4.539 130.593  0.00  0.00    +0.000 A 
ATOM     13  C   UNK A   1     -11.322   5.327 130.288  0.00  0.00    +0.000 A 
ATOM     14  C   UNK A   1     -11.100   6.686 130.057  0.00  0.00    +0.000 A 
ATOM     15  C   UNK A   1      -9.807   7.234 130.113  0.00  0.00    +0.000 A 
ATOM     16  C   UNK A   1      -8.712   6.432 130.408  0.00  0.00    +0.000 A 
ATOM     17  C   UNK A   1      -8.953   5.095 130.662  0.00  0.00    +0.000 A 
ATOM     18  C   UNK A   1      -7.941   4.030 130.884  0.00  0.00    +0.000 C 
ENDBRANCH   5  10
BRANCH   1  19
ATOM     19  CB  LEU A   2      -6.620   1.371 125.188  0.00  0.00    +0.000 C 
BRANCH  19  21
ATOM     20  CD1 LEU A   2      -8.669   2.184 123.693  0.00  0.00    +0.000 C 
ATOM     21  CG  LEU A   2      -7.203   1.800 123.774  0.00  0.00    +0.000 C 
ATOM     22  CD2 LEU A   2      -6.585   2.971 123.070  0.00  0.00    +0.000 C 
ENDBRANCH  19  21
ENDBRANCH   1  19
BRANCH   8  23
ATOM     23  C   UNK A   0      -6.734  -0.588 127.831  0.00  0.00    +0.000 C 
BRANCH  23  24
ATOM     24  C   UNK A   0      -7.570  -1.902 127.782  0.00  0.00    +0.000 A 
ATOM     25  C   UNK A   0      -8.008  -2.395 129.015  0.00  0.00    +0.000 A 
ATOM     26  C   UNK A   0      -8.743  -3.546 129.123  0.00  0.00    +0.000 A 
ATOM     27  C   UNK A   0      -9.167  -4.174 127.970  0.00  0.00    +0.000 A 
ATOM     28  C   UNK A   0      -8.714  -3.753 126.713  0.00  0.00    +0.000 A 
ATOM     29  C   UNK A   0      -7.846  -2.657 126.570  0.00  0.00    +0.000 A 
BRANCH  29  30
ATOM     30  C   UNK A   0      -7.460  -2.260 125.163  0.00  0.00    +0.000 A 
ATOM     31  C   UNK A   0      -6.113  -2.362 124.751  0.00  0.00    +0.000 A 
ATOM     32  C   UNK A   0      -5.707  -2.137 123.429  0.00  0.00    +0.000 A 
ATOM     33  C   UNK A   0      -6.650  -1.808 122.464  0.00  0.00    +0.000 A 
ATOM     34  C   UNK A   0      -7.978  -1.642 122.842  0.00  0.00    +0.000 A 
ATOM     35  C   UNK A   0      -8.363  -1.823 124.184  0.00  0.00    +0.000 A 
ENDBRANCH  29  30
ENDBRANCH  23  24
BRANCH  23  36
ATOM     36  C   UNK A   0      -5.322  -0.548 128.660  0.00  0.00    +0.000 C 
ATOM     37  O   UNK A   0      -4.810   0.451 129.158  0.00  0.00    +0.000 OA
ATOM     38  N   UNK A   0      -4.731  -1.750 128.997  0.00  0.00    +0.000 N 
ATOM     39  H   UNK A   0      -5.391  -2.453 129.203  0.00  0.00    +0.000 HD
BRANCH  38  40
ATOM     40  C   UNK A   0      -3.564  -1.968 129.848  0.00  0.00    +0.000 C 
ATOM     41  C   UNK A   0      -4.009  -2.122 131.301  0.00  0.00    +0.000 C 
ATOM     42  C   UNK A   0      -2.757  -3.223 129.425  0.00  0.00    +0.000 C 
ENDBRANCH  38  40
ENDBRANCH  23  36
ENDBRANCH   8  23
TORSDOF 8
ENDMDL
MODEL 3
REMARK VINA RESULT:      -9.1      2.439      5.652
REMARK  Name = CHEMBL2035015
REMARK  12 active torsions:
REMARK  status: ('A' for Active; 'I' for Inactive)
REMARK    1  A    between atoms: CD1_1  and  CG_2
REMARK    2  A    between atoms: CG_2  and  CD2_3
REMARK    3  A    between atoms: CG_2  and  CB_4
REMARK    4  A    between atoms: CB_4  and  CA_5
REMARK    5  A    between atoms: C_9  and  C_10
REMARK    6  A    between atoms: N_21  and  C_22
REMARK    7  A    between atoms: C_22  and  C_23
REMARK    8  A    between atoms: C_22  and  C_29
REMARK    9  A    between atoms: N_25  and  C_26
REMARK   10  A    between atoms: C_26  and  C_27
REMARK   11  A    between atoms: C_26  and  C_28
REMARK   12  A    between atoms: C_34  and  C_35
REMARK                            x       y       z     vdW  Elec       q    Type
REMARK                         _______ _______ _______ _____ _____    ______ ____
ROOT
ATOM      1  CA  LEU A   2      -6.096   6.305 132.172  0.00  0.00    +0.000 C 
ATOM      2  C   LEU A   2      -7.462   5.959 132.861  0.00  0.00    +0.000 C 
ATOM      3  O   LEU A   2      -7.660   5.842 134.047  0.00  0.00    +0.000 OA
ATOM      4  N   UNK A   1      -8.509   5.847 131.981  0.00  0.00    +0.000 N 
ATOM      5  C   UNK A   1      -8.361   6.062 130.557  0.00  0.00    +0.000 C 
ATOM      6  C   UNK A   1      -7.134   5.292 130.140  0.00  0.00    +0.000 C 
ATOM      7  O   UNK A   1      -7.172   4.630 129.112  0.00  0.00    +0.000 OA
ATOM      8  N   LEU A   2      -6.030   5.370 130.977  0.00  0.00    +0.000 N 
ATOM      9  H   UNK A   1      -9.386   5.565 132.397  0.00  0.00    +0.000 HD
ENDROOT
BRANCH   5  10
ATOM     10  C   UNK A   1      -9.469   5.427 129.680  0.00  0.00    +0.000 C 
ATOM     11  C   UNK A   1      -9.997   6.414 128.648  0.00  0.00    +0.000 C 
ATOM     12  C   UNK A   1     -11.113   7.040 129.426  0.00  0.00    +0.000 A 
ATOM     13  C   UNK A   1     -11.646   8.296 129.260  0.00  0.00    +0.000 A 
ATOM     14  C   UNK A   1     -12.584   8.739 130.194  0.00  0.00    +0.000 A 
ATOM     15  C   UNK A   1     -12.961   7.937 131.286  0.00  0.00    +0.000 A 
ATOM     16  C   UNK A   1     -12.409   6.673 131.458  0.00  0.00    +0.000 A 
ATOM     17  C   UNK A   1     -11.504   6.240 130.508  0.00  0.00    +0.000 A 
ATOM     18  C   UNK A   1     -10.704   4.988 130.541  0.00  0.00    +0.000 C 
ENDBRANCH   5  10
BRANCH   1  19
ATOM     19  CB  LEU A   2      -5.018   6.308 133.289  0.00  0.00    +0.000 C 
BRANCH  19  21
ATOM     20  CD1 LEU A   2      -3.368   7.788 131.811  0.00  0.00    +0.000 C 
ATOM     21  CG  LEU A   2      -3.547   6.811 132.958  0.00  0.00    +0.000 C 
ATOM     22  CD2 LEU A   2      -2.776   7.521 134.030  0.00  0.00    +0.000 C 
ENDBRANCH  19  21
ENDBRANCH   1  19
BRANCH   8  23
ATOM     23  C   UNK A   0      -5.009   4.360 130.636  0.00  0.00    +0.000 C 
BRANCH  23  24
ATOM     24  C   UNK A   0      -4.564   3.364 131.750  0.00  0.00    +0.000 A 
ATOM     25  C   UNK A   0      -3.209   3.401 132.096  0.00  0.00    +0.000 A 
ATOM     26  C   UNK A   0      -2.677   2.575 133.051  0.00  0.00    +0.000 A 
ATOM     27  C   UNK A   0      -3.525   1.767 133.778  0.00  0.00    +0.000 A 
ATOM     28  C   UNK A   0      -4.879   1.653 133.438  0.00  0.00    +0.000 A 
ATOM     29  C   UNK A   0      -5.436   2.382 132.373  0.00  0.00    +0.000 A 
BRANCH  29  30
ATOM     30  C   UNK A   0      -6.919   2.220 132.125  0.00  0.00    +0.000 A 
ATOM     31  C   UNK A   0      -7.368   1.636 130.920  0.00  0.00    +0.000 A 
ATOM     32  C   UNK A   0      -8.715   1.336 130.681  0.00  0.00    +0.000 A 
ATOM     33  C   UNK A   0      -9.666   1.606 131.655  0.00  0.00    +0.000 A 
ATOM     34  C   UNK A   0      -9.271   2.233 132.833  0.00  0.00    +0.000 A 
ATOM     35  C   UNK A   0      -7.921   2.574 133.039  0.00  0.00    +0.000 A 
ENDBRANCH  29  30
ENDBRANCH  23  24
BRANCH  23  36
ATOM     36  C   UNK A   0      -3.989   4.719 129.406  0.00  0.00    +0.000 C 
ATOM     37  O   UNK A   0      -2.979   5.413 129.491  0.00  0.00    +0.000 OA
ATOM     38  N   UNK A   0      -4.155   4.054 128.208  0.00  0.00    +0.000 N 
ATOM     39  H   UNK A   0      -4.454   3.123 128.328  0.00  0.00    +0.000 HD
BRANCH  38  40
ATOM     40  C   UNK A   0      -3.291   4.099 127.030  0.00  0.00    +0.000 C 
ATOM     41  C   UNK A   0      -2.206   3.030 127.149  0.00  0.00    +0.000 C 
ATOM     42  C   UNK A   0      -4.082   3.880 125.714  0.00  0.00    +0.000 C 
ENDBRANCH  38  40
ENDBRANCH  23  36
ENDBRANCH   8  23
TORSDOF 8
ENDMDL
MODEL 4
REMARK VINA RESULT:      -8.9      2.506      5.384
REMARK  Name = CHEMBL2035015
REMARK  12 active torsions:
REMARK  status: ('A' for Active; 'I' for Inactive)
REMARK    1  A    between atoms: CD1_1  and  CG_2
REMARK    2  A    between atoms: CG_2  and  CD2_3
REMARK    3  A    between atoms: CG_2  and  CB_4
REMARK    4  A    between atoms: CB_4  and  CA_5
REMARK    5  A    between atoms: C_9  and  C_10
REMARK    6  A    between atoms: N_21  and  C_22
REMARK    7  A    between atoms: C_22  and  C_23
REMARK    8  A    between atoms: C_22  and  C_29
REMARK    9  A    between atoms: N_25  and  C_26
REMARK   10  A    between atoms: C_26  and  C_27
REMARK   11  A    between atoms: C_26  and  C_28
REMARK   12  A    between atoms: C_34  and  C_35
REMARK                            x       y       z     vdW  Elec       q    Type
REMARK                         _______ _______ _______ _____ _____    ______ ____
ROOT
ATOM      1  CA  LEU A   2      -7.662   3.786 129.729  0.00  0.00    +0.000 C 
ATOM      2  C   LEU A   2      -8.195   4.606 128.503  0.00  0.00    +0.000 C 
ATOM      3  O   LEU A   2      -7.894   4.444 127.344  0.00  0.00    +0.000 OA
ATOM      4  N   UNK A   1      -9.136   5.547 128.838  0.00  0.00    +0.000 N 
ATOM      5  C   UNK A   1      -9.608   5.734 130.193  0.00  0.00    +0.000 C 
ATOM      6  C   UNK A   1      -8.380   5.768 131.066  0.00  0.00    +0.000 C 
ATOM      7  O   UNK A   1      -8.303   6.614 131.947  0.00  0.00    +0.000 OA
ATOM      8  N   LEU A   2      -7.390   4.835 130.793  0.00  0.00    +0.000 N 
ATOM      9  H   UNK A   1      -9.449   6.128 128.071  0.00  0.00    +0.000 HD
ENDROOT
BRANCH   5  10
ATOM     10  C   UNK A   1     -10.259   7.111 130.476  0.00  0.00    +0.000 C 
ATOM     11  C   UNK A   1     -11.757   6.983 130.709  0.00  0.00    +0.000 C 
ATOM     12  C   UNK A   1     -12.259   7.148 129.308  0.00  0.00    +0.000 A 
ATOM     13  C   UNK A   1     -13.429   6.660 128.775  0.00  0.00    +0.000 A 
ATOM     14  C   UNK A   1     -13.632   6.802 127.401  0.00  0.00    +0.000 A 
ATOM     15  C   UNK A   1     -12.665   7.406 126.578  0.00  0.00    +0.000 A 
ATOM     16  C   UNK A   1     -11.478   7.884 127.118  0.00  0.00    +0.000 A 
ATOM     17  C   UNK A   1     -11.305   7.762 128.484  0.00  0.00    +0.000 A 
ATOM     18  C   UNK A   1     -10.084   8.091 129.264  0.00  0.00    +0.000 C 
ENDBRANCH   5  10
BRANCH   1  19
ATOM     19  CB  LEU A   2      -6.557   2.839 129.190  0.00  0.00    +0.000 C 
BRANCH  19  21
ATOM     20  CD1 LEU A   2      -6.318   0.214 128.801  0.00  0.00    +0.000 C 
ATOM     21  CG  LEU A   2      -6.968   1.525 128.397  0.00  0.00    +0.000 C 
ATOM     22  CD2 LEU A   2      -8.410   1.113 128.393  0.00  0.00    +0.000 C 
ENDBRANCH  19  21
ENDBRANCH   1  19
BRANCH   8  23
ATOM     23  C   UNK A   0      -6.131   5.146 131.498  0.00  0.00    +0.000 C 
BRANCH  23  24
ATOM     24  C   UNK A   0      -6.114   5.027 133.052  0.00  0.00    +0.000 A 
ATOM     25  C   UNK A   0      -5.396   6.016 133.733  0.00  0.00    +0.000 A 
ATOM     26  C   UNK A   0      -5.288   6.030 135.099  0.00  0.00    +0.000 A 
ATOM     27  C   UNK A   0      -6.008   5.110 135.833  0.00  0.00    +0.000 A 
ATOM     28  C   UNK A   0      -6.698   4.068 135.201  0.00  0.00    +0.000 A 
ATOM     29  C   UNK A   0      -6.721   3.938 133.801  0.00  0.00    +0.000 A 
BRANCH  29  30
ATOM     30  C   UNK A   0      -7.537   2.804 133.225  0.00  0.00    +0.000 A 
ATOM     31  C   UNK A   0      -8.938   2.937 133.110  0.00  0.00    +0.000 A 
ATOM     32  C   UNK A   0      -9.738   1.983 132.467  0.00  0.00    +0.000 A 
ATOM     33  C   UNK A   0      -9.153   0.857 131.904  0.00  0.00    +0.000 A 
ATOM     34  C   UNK A   0      -7.783   0.662 132.047  0.00  0.00    +0.000 A 
ATOM     35  C   UNK A   0      -6.999   1.605 132.738  0.00  0.00    +0.000 A 
ENDBRANCH  29  30
ENDBRANCH  23  24
BRANCH  23  36
ATOM     36  C   UNK A   0      -5.088   6.159 130.745  0.00  0.00    +0.000 C 
ATOM     37  O   UNK A   0      -5.346   7.295 130.355  0.00  0.00    +0.000 OA
ATOM     38  N   UNK A   0      -3.756   5.801 130.694  0.00  0.00    +0.000 N 
ATOM     39  H   UNK A   0      -3.460   5.320 131.502  0.00  0.00    +0.000 HD
BRANCH  38  40
ATOM     40  C   UNK A   0      -2.631   6.598 130.210  0.00  0.00    +0.000 C 
ATOM     41  C   UNK A   0      -1.447   6.445 131.164  0.00  0.00    +0.000 C 
ATOM     42  C   UNK A   0      -2.192   6.187 128.781  0.00  0.00    +0.000 C 
ENDBRANCH  38  40
ENDBRANCH  23  36
ENDBRANCH   8  23
TORSDOF 8
ENDMDL
MODEL 5
REMARK VINA RESULT:      -8.6      1.828      7.546
REMARK  Name = CHEMBL2035015
REMARK  12 active torsions:
REMARK  status: ('A' for Active; 'I' for Inactive)
REMARK    1  A    between atoms: CD1_1  and  CG_2
REMARK    2  A    between atoms: CG_2  and  CD2_3
REMARK    3  A    between atoms: CG_2  and  CB_4
REMARK    4  A    between atoms: CB_4  and  CA_5
REMARK    5  A    between atoms: C_9  and  C_10
REMARK    6  A    between atoms: N_21  and  C_22
REMARK    7  A    between atoms: C_22  and  C_23
REMARK    8  A    between atoms: C_22  and  C_29
REMARK    9  A    between atoms: N_25  and  C_26
REMARK   10  A    between atoms: C_26  and  C_27
REMARK   11  A    between atoms: C_26  and  C_28
REMARK   12  A    between atoms: C_34  and  C_35
REMARK                            x       y       z     vdW  Elec       q    Type
REMARK                         _______ _______ _______ _____ _____    ______ ____
ROOT
ATOM      1  CA  LEU A   2      -7.105   2.217 132.130  0.00  0.00    +0.000 C 
ATOM      2  C   LEU A   2      -5.765   1.453 131.850  0.00  0.00    +0.000 C 
ATOM      3  O   LEU A   2      -4.721   1.591 132.442  0.00  0.00    +0.000 OA
ATOM      4  N   UNK A   1      -5.867   0.507 130.861  0.00  0.00    +0.000 N 
ATOM      5  C   UNK A   1      -7.108   0.227 130.171  0.00  0.00    +0.000 C 
ATOM      6  C   UNK A   1      -7.690   1.565 129.792  0.00  0.00    +0.000 C 
ATOM      7  O   UNK A   1      -8.160   1.710 128.672  0.00  0.00    +0.000 OA
ATOM      8  N   LEU A   2      -7.633   2.568 130.750  0.00  0.00    +0.000 N 
ATOM      9  H   UNK A   1      -5.000   0.044 130.623  0.00  0.00    +0.000 HD
ENDROOT
BRANCH   5  10
ATOM     10  C   UNK A   1      -6.951  -0.470 128.797  0.00  0.00    +0.000 C 
ATOM     11  C   UNK A   1      -7.705  -1.792 128.753  0.00  0.00    +0.000 C 
ATOM     12  C   UNK A   1      -6.637  -2.724 129.235  0.00  0.00    +0.000 A 
ATOM     13  C   UNK A   1      -6.804  -3.930 129.873  0.00  0.00    +0.000 A 
ATOM     14  C   UNK A   1      -5.668  -4.570 130.372  0.00  0.00    +0.000 A 
ATOM     15  C   UNK A   1      -4.392  -3.994 130.248  0.00  0.00    +0.000 A 
ATOM     16  C   UNK A   1      -4.228  -2.768 129.615  0.00  0.00    +0.000 A 
ATOM     17  C   UNK A   1      -5.359  -2.162 129.101  0.00  0.00    +0.000 A 
ATOM     18  C   UNK A   1      -5.451  -0.811 128.492  0.00  0.00    +0.000 C 
ENDBRANCH   5  10
BRANCH   1  19
ATOM     19  CB  LEU A   2      -6.792   3.295 133.202  0.00  0.00    +0.000 C 
BRANCH  19  21
ATOM     20  CD1 LEU A   2      -7.865   5.168 134.763  0.00  0.00    +0.000 C 
ATOM     21  CG  LEU A   2      -7.934   3.759 134.205  0.00  0.00    +0.000 C 
ATOM     22  CD2 LEU A   2      -9.356   3.733 133.732  0.00  0.00    +0.000 C 
ENDBRANCH  19  21
ENDBRANCH   1  19
BRANCH   8  23
ATOM     23  C   UNK A   0      -7.952   3.892 130.180  0.00  0.00    +0.000 C 
BRANCH  23  24
ATOM     24  C   UNK A   0      -6.859   5.001 130.249  0.00  0.00    +0.000 A 
ATOM     25  C   UNK A   0      -7.122   6.065 131.118  0.00  0.00    +0.000 A 
ATOM     26  C   UNK A   0      -6.255   7.114 131.271  0.00  0.00    +0.000 A 
ATOM     27  C   UNK A   0      -5.029   7.062 130.640  0.00  0.00    +0.000 A 
ATOM     28  C   UNK A   0      -4.737   6.047 129.718  0.00  0.00    +0.000 A 
ATOM     29  C   UNK A   0      -5.658   5.025 129.430  0.00  0.00    +0.000 A 
BRANCH  29  30
ATOM     30  C   UNK A   0      -5.220   3.954 128.456  0.00  0.00    +0.000 A 
ATOM     31  C   UNK A   0      -5.836   3.865 127.189  0.00  0.00    +0.000 A 
ATOM     32  C   UNK A   0      -5.392   2.986 126.193  0.00  0.00    +0.000 A 
ATOM     33  C   UNK A   0      -4.298   2.166 126.432  0.00  0.00    +0.000 A 
ATOM     34  C   UNK A   0      -3.700   2.183 127.688  0.00  0.00    +0.000 A 
ATOM     35  C   UNK A   0      -4.188   3.036 128.696  0.00  0.00    +0.000 A 
ENDBRANCH  29  30
ENDBRANCH  23  24
BRANCH  23  36
ATOM     36  C   UNK A   0      -9.535   4.307 130.105  0.00  0.00    +0.000 C 
ATOM     37  O   UNK A   0     -10.484   3.528 130.143  0.00  0.00    +0.000 OA
ATOM     38  N   UNK A   0      -9.861   5.646 130.189  0.00  0.00    +0.000 N 
ATOM     39  H   UNK A   0      -9.259   6.147 130.788  0.00  0.00    +0.000 HD
BRANCH  38  40
ATOM     40  C   UNK A   0     -11.191   6.240 130.290  0.00  0.00    +0.000 C 
ATOM     41  C   UNK A   0     -11.541   6.466 131.760  0.00  0.00    +0.000 C 
ATOM     42  C   UNK A   0     -11.292   7.587 129.528  0.00  0.00    +0.000 C 
ENDBRANCH  38  40
ENDBRANCH  23  36
ENDBRANCH   8  23
TORSDOF 8
ENDMDL
MODEL 6
REMARK VINA RESULT:      -8.6      2.562      6.782
REMARK  Name = CHEMBL2035015
REMARK  12 active torsions:
REMARK  status: ('A' for Active; 'I' for Inactive)
REMARK    1  A    between atoms: CD1_1  and  CG_2
REMARK    2  A    between atoms: CG_2  and  CD2_3
REMARK    3  A    between atoms: CG_2  and  CB_4
REMARK    4  A    between atoms: CB_4  and  CA_5
REMARK    5  A    between atoms: C_9  and  C_10
REMARK    6  A    between atoms: N_21  and  C_22
REMARK    7  A    between atoms: C_22  and  C_23
REMARK    8  A    between atoms: C_22  and  C_29
REMARK    9  A    between atoms: N_25  and  C_26
REMARK   10  A    between atoms: C_26  and  C_27
REMARK   11  A    between atoms: C_26  and  C_28
REMARK   12  A    between atoms: C_34  and  C_35
REMARK                            x       y       z     vdW  Elec       q    Type
REMARK                         _______ _______ _______ _____ _____    ______ ____
ROOT
ATOM      1  CA  LEU A   2      -7.804   1.058 129.842  0.00  0.00    +0.000 C 
ATOM      2  C   LEU A   2      -6.995  -0.035 129.060  0.00  0.00    +0.000 C 
ATOM      3  O   LEU A   2      -6.208  -0.821 129.530  0.00  0.00    +0.000 OA
ATOM      4  N   UNK A   1      -7.298  -0.091 127.723  0.00  0.00    +0.000 N 
ATOM      5  C   UNK A   1      -8.295   0.760 127.109  0.00  0.00    +0.000 C 
ATOM      6  C   UNK A   1      -8.024   2.155 127.611  0.00  0.00    +0.000 C 
ATOM      7  O   UNK A   1      -8.061   3.086 126.818  0.00  0.00    +0.000 OA
ATOM      8  N   LEU A   2      -7.723   2.291 128.959  0.00  0.00    +0.000 N 
ATOM      9  H   UNK A   1      -6.745  -0.747 127.188  0.00  0.00    +0.000 HD
ENDROOT
BRANCH   5  10
ATOM     10  C   UNK A   1      -8.163   0.924 125.575  0.00  0.00    +0.000 C 
ATOM     11  C   UNK A   1      -9.260   0.170 124.837  0.00  0.00    +0.000 C 
ATOM     12  C   UNK A   1      -8.591  -1.157 124.651  0.00  0.00    +0.000 A 
ATOM     13  C   UNK A   1      -9.193  -2.385 124.507  0.00  0.00    +0.000 A 
ATOM     14  C   UNK A   1      -8.377  -3.517 124.497  0.00  0.00    +0.000 A 
ATOM     15  C   UNK A   1      -6.983  -3.414 124.648  0.00  0.00    +0.000 A 
ATOM     16  C   UNK A   1      -6.380  -2.173 124.807  0.00  0.00    +0.000 A 
ATOM     17  C   UNK A   1      -7.199  -1.060 124.786  0.00  0.00    +0.000 A 
ATOM     18  C   UNK A   1      -6.803   0.347 125.049  0.00  0.00    +0.000 C 
ENDBRANCH   5  10
BRANCH   1  19
ATOM     19  CB  LEU A   2      -7.282   1.043 131.304  0.00  0.00    +0.000 C 
BRANCH  19  21
ATOM     20  CD1 LEU A   2      -7.935   2.704 133.281  0.00  0.00    +0.000 C 
ATOM     21  CG  LEU A   2      -8.257   1.449 132.490  0.00  0.00    +0.000 C 
ATOM     22  CD2 LEU A   2      -9.701   1.701 132.175  0.00  0.00    +0.000 C 
ENDBRANCH  19  21
ENDBRANCH   1  19
BRANCH   8  23
ATOM     23  C   UNK A   0      -7.192   3.632 129.272  0.00  0.00    +0.000 C 
BRANCH  23  24
ATOM     24  C   UNK A   0      -8.122   4.629 130.027  0.00  0.00    +0.000 A 
ATOM     25  C   UNK A   0      -9.492   4.488 129.787  0.00  0.00    +0.000 A 
ATOM     26  C   UNK A   0     -10.424   5.302 130.374  0.00  0.00    +0.000 A 
ATOM     27  C   UNK A   0     -10.008   6.212 131.324  0.00  0.00    +0.000 A 
ATOM     28  C   UNK A   0      -8.645   6.430 131.564  0.00  0.00    +0.000 A 
ATOM     29  C   UNK A   0      -7.651   5.709 130.880  0.00  0.00    +0.000 A 
BRANCH  29  30
ATOM     30  C   UNK A   0      -6.212   5.991 131.252  0.00  0.00    +0.000 A 
ATOM     31  C   UNK A   0      -5.545   7.096 130.680  0.00  0.00    +0.000 A 
ATOM     32  C   UNK A   0      -4.261   7.491 131.076  0.00  0.00    +0.000 A 
ATOM     33  C   UNK A   0      -3.600   6.790 132.076  0.00  0.00    +0.000 A 
ATOM     34  C   UNK A   0      -4.201   5.661 132.624  0.00  0.00    +0.000 A 
ATOM     35  C   UNK A   0      -5.472   5.247 132.180  0.00  0.00    +0.000 A 
ENDBRANCH  29  30
ENDBRANCH  23  24
BRANCH  23  36
ATOM     36  C   UNK A   0      -5.993   4.199 128.312  0.00  0.00    +0.000 C 
ATOM     37  O   UNK A   0      -6.089   5.134 127.521  0.00  0.00    +0.000 OA
ATOM     38  N   UNK A   0      -4.713   3.725 128.519  0.00  0.00    +0.000 N 
ATOM     39  H   UNK A   0      -4.524   3.545 129.470  0.00  0.00    +0.000 HD
BRANCH  38  40
ATOM     40  C   UNK A   0      -3.474   4.183 127.895  0.00  0.00    +0.000 C 
ATOM     41  C   UNK A   0      -2.686   5.037 128.886  0.00  0.00    +0.000 C 
ATOM     42  C   UNK A   0      -2.587   3.004 127.418  0.00  0.00    +0.000 C 
ENDBRANCH  38  40
ENDBRANCH  23  36
ENDBRANCH   8  23
TORSDOF 8
ENDMDL
MODEL 7
REMARK VINA RESULT:      -8.5      2.373      5.275
REMARK  Name = CHEMBL2035015
REMARK  12 active torsions:
REMARK  status: ('A' for Active; 'I' for Inactive)
REMARK    1  A    between atoms: CD1_1  and  CG_2
REMARK    2  A    between atoms: CG_2  and  CD2_3
REMARK    3  A    between atoms: CG_2  and  CB_4
REMARK    4  A    between atoms: CB_4  and  CA_5
REMARK    5  A    between atoms: C_9  and  C_10
REMARK    6  A    between atoms: N_21  and  C_22
REMARK    7  A    between atoms: C_22  and  C_23
REMARK    8  A    between atoms: C_22  and  C_29
REMARK    9  A    between atoms: N_25  and  C_26
REMARK   10  A    between atoms: C_26  and  C_27
REMARK   11  A    between atoms: C_26  and  C_28
REMARK   12  A    between atoms: C_34  and  C_35
REMARK                            x       y       z     vdW  Elec       q    Type
REMARK                         _______ _______ _______ _____ _____    ______ ____
ROOT
ATOM      1  CA  LEU A   2      -7.070   3.694 131.136  0.00  0.00    +0.000 C 
ATOM      2  C   LEU A   2      -6.659   5.109 130.598  0.00  0.00    +0.000 C 
ATOM      3  O   LEU A   2      -7.396   5.939 130.121  0.00  0.00    +0.000 OA
ATOM      4  N   UNK A   1      -5.328   5.396 130.766  0.00  0.00    +0.000 N 
ATOM      5  C   UNK A   1      -4.406   4.485 131.409  0.00  0.00    +0.000 C 
ATOM      6  C   UNK A   1      -4.662   3.129 130.802  0.00  0.00    +0.000 C 
ATOM      7  O   UNK A   1      -3.707   2.431 130.489  0.00  0.00    +0.000 OA
ATOM      8  N   LEU A   2      -5.988   2.765 130.614  0.00  0.00    +0.000 N 
ATOM      9  H   UNK A   1      -5.029   6.278 130.372  0.00  0.00    +0.000 HD
ENDROOT
BRANCH   5  10
ATOM     10  C   UNK A   1      -2.911   4.722 131.079  0.00  0.00    +0.000 C 
ATOM     11  C   UNK A   1      -2.034   4.551 132.311  0.00  0.00    +0.000 C 
ATOM     12  C   UNK A   1      -2.036   5.953 132.836  0.00  0.00    +0.000 A 
ATOM     13  C   UNK A   1      -1.855   6.359 134.137  0.00  0.00    +0.000 A 
ATOM     14  C   UNK A   1      -2.045   7.710 134.434  0.00  0.00    +0.000 A 
ATOM     15  C   UNK A   1      -2.431   8.628 133.442  0.00  0.00    +0.000 A 
ATOM     16  C   UNK A   1      -2.628   8.211 132.131  0.00  0.00    +0.000 A 
ATOM     17  C   UNK A   1      -2.407   6.877 131.849  0.00  0.00    +0.000 A 
ATOM     18  C   UNK A   1      -2.661   6.182 130.561  0.00  0.00    +0.000 C 
ENDBRANCH   5  10
BRANCH   1  19
ATOM     19  CB  LEU A   2      -8.571   3.502 130.792  0.00  0.00    +0.000 C 
BRANCH  19  21
ATOM     20  CD1 LEU A   2      -9.545   1.228 131.780  0.00  0.00    +0.000 C 
ATOM     21  CG  LEU A   2      -9.520   2.745 131.817  0.00  0.00    +0.000 C 
ATOM     22  CD2 LEU A   2      -9.312   2.969 133.285  0.00  0.00    +0.000 C 
ENDBRANCH  19  21
ENDBRANCH   1  19
BRANCH   8  23
ATOM     23  C   UNK A   0      -6.115   1.571 129.756  0.00  0.00    +0.000 C 
BRANCH  23  24
ATOM     24  C   UNK A   0      -6.832   1.731 128.381  0.00  0.00    +0.000 A 
ATOM     25  C   UNK A   0      -8.093   1.135 128.277  0.00  0.00    +0.000 A 
ATOM     26  C   UNK A   0      -8.832   1.187 127.124  0.00  0.00    +0.000 A 
ATOM     27  C   UNK A   0      -8.372   1.953 126.073  0.00  0.00    +0.000 A 
ATOM     28  C   UNK A   0      -7.094   2.526 126.106  0.00  0.00    +0.000 A 
ATOM     29  C   UNK A   0      -6.247   2.380 127.219  0.00  0.00    +0.000 A 
BRANCH  29  30
ATOM     30  C   UNK A   0      -4.909   3.081 127.166  0.00  0.00    +0.000 A 
ATOM     31  C   UNK A   0      -4.843   4.480 127.347  0.00  0.00    +0.000 A 
ATOM     32  C   UNK A   0      -3.630   5.174 127.440  0.00  0.00    +0.000 A 
ATOM     33  C   UNK A   0      -2.430   4.480 127.365  0.00  0.00    +0.000 A 
ATOM     34  C   UNK A   0      -2.452   3.109 127.130  0.00  0.00    +0.000 A 
ATOM     35  C   UNK A   0      -3.679   2.433 126.989  0.00  0.00    +0.000 A 
ENDBRANCH  29  30
ENDBRANCH  23  24
BRANCH  23  36
ATOM     36  C   UNK A   0      -6.095   0.113 130.503  0.00  0.00    +0.000 C 
ATOM     37  O   UNK A   0      -6.263  -0.080 131.704  0.00  0.00    +0.000 OA
ATOM     38  N   UNK A   0      -6.069  -1.020 129.716  0.00  0.00    +0.000 N 
ATOM     39  H   UNK A   0      -6.580  -0.915 128.880  0.00  0.00    +0.000 HD
BRANCH  38  40
ATOM     40  C   UNK A   0      -6.191  -2.412 130.143  0.00  0.00    +0.000 C 
ATOM     41  C   UNK A   0      -7.494  -3.001 129.606  0.00  0.00    +0.000 C 
ATOM     42  C   UNK A   0      -5.000  -3.281 129.660  0.00  0.00    +0.000 C 
ENDBRANCH  38  40
ENDBRANCH  23  36
ENDBRANCH   8  23
TORSDOF 8
ENDMDL
MODEL 8
REMARK VINA RESULT:      -8.5      2.377      7.347
REMARK  Name = CHEMBL2035015
REMARK  12 active torsions:
REMARK  status: ('A' for Active; 'I' for Inactive)
REMARK    1  A    between atoms: CD1_1  and  CG_2
REMARK    2  A    between atoms: CG_2  and  CD2_3
REMARK    3  A    between atoms: CG_2  and  CB_4
REMARK    4  A    between atoms: CB_4  and  CA_5
REMARK    5  A    between atoms: C_9  and  C_10
REMARK    6  A    between atoms: N_21  and  C_22
REMARK    7  A    between atoms: C_22  and  C_23
REMARK    8  A    between atoms: C_22  and  C_29
REMARK    9  A    between atoms: N_25  and  C_26
REMARK   10  A    between atoms: C_26  and  C_27
REMARK   11  A    between atoms: C_26  and  C_28
REMARK   12  A    between atoms: C_34  and  C_35
REMARK                            x       y       z     vdW  Elec       q    Type
REMARK                         _______ _______ _______ _____ _____    ______ ____
ROOT
ATOM      1  CA  LEU A   2      -8.784   2.584 130.638  0.00  0.00    +0.000 C 
ATOM      2  C   LEU A   2      -8.989   1.130 131.191  0.00  0.00    +0.000 C 
ATOM      3  O   LEU A   2      -9.726   0.799 132.088  0.00  0.00    +0.000 OA
ATOM      4  N   UNK A   1      -8.274   0.177 130.509  0.00  0.00    +0.000 N 
ATOM      5  C   UNK A   1      -7.440   0.490 129.369  0.00  0.00    +0.000 C 
ATOM      6  C   UNK A   1      -6.622   1.693 129.765  0.00  0.00    +0.000 C 
ATOM      7  O   UNK A   1      -5.430   1.714 129.489  0.00  0.00    +0.000 OA
ATOM      8  N   LEU A   2      -7.282   2.705 130.447  0.00  0.00    +0.000 N 
ATOM      9  H   UNK A   1      -8.345  -0.759 130.887  0.00  0.00    +0.000 HD
ENDROOT
BRANCH   5  10
ATOM     10  C   UNK A   1      -6.351  -0.563 129.044  0.00  0.00    +0.000 C 
ATOM     11  C   UNK A   1      -6.303  -0.873 127.555  0.00  0.00    +0.000 C 
ATOM     12  C   UNK A   1      -7.278  -2.008 127.488  0.00  0.00    +0.000 A 
ATOM     13  C   UNK A   1      -8.035  -2.398 126.408  0.00  0.00    +0.000 A 
ATOM     14  C   UNK A   1      -8.994  -3.393 126.607  0.00  0.00    +0.000 A 
ATOM     15  C   UNK A   1      -9.200  -3.967 127.873  0.00  0.00    +0.000 A 
ATOM     16  C   UNK A   1      -8.443  -3.559 128.965  0.00  0.00    +0.000 A 
ATOM     17  C   UNK A   1      -7.478  -2.595 128.745  0.00  0.00    +0.000 A 
ATOM     18  C   UNK A   1      -6.634  -1.925 129.768  0.00  0.00    +0.000 C 
ENDBRANCH   5  10
BRANCH   1  19
ATOM     19  CB  LEU A   2      -9.585   3.534 131.567  0.00  0.00    +0.000 C 
BRANCH  19  21
ATOM     20  CD1 LEU A   2     -10.369   6.063 131.856  0.00  0.00    +0.000 C 
ATOM     21  CG  LEU A   2     -10.254   4.843 130.962  0.00  0.00    +0.000 C 
ATOM     22  CD2 LEU A   2      -9.636   5.465 129.746  0.00  0.00    +0.000 C 
ENDBRANCH  19  21
ENDBRANCH   1  19
BRANCH   8  23
ATOM     23  C   UNK A   0      -6.340   3.677 131.036  0.00  0.00    +0.000 C 
BRANCH  23  24
ATOM     24  C   UNK A   0      -6.418   3.933 132.571  0.00  0.00    +0.000 A 
ATOM     25  C   UNK A   0      -6.888   5.192 132.958  0.00  0.00    +0.000 A 
ATOM     26  C   UNK A   0      -6.999   5.558 134.274  0.00  0.00    +0.000 A 
ATOM     27  C   UNK A   0      -6.753   4.614 135.249  0.00  0.00    +0.000 A 
ATOM     28  C   UNK A   0      -6.229   3.357 134.919  0.00  0.00    +0.000 A 
ATOM     29  C   UNK A   0      -5.971   2.992 133.586  0.00  0.00    +0.000 A 
BRANCH  29  30
ATOM     30  C   UNK A   0      -5.452   1.593 133.341  0.00  0.00    +0.000 A 
ATOM     31  C   UNK A   0      -6.289   0.483 133.581  0.00  0.00    +0.000 A 
ATOM     32  C   UNK A   0      -5.920  -0.828 133.252  0.00  0.00    +0.000 A 
ATOM     33  C   UNK A   0      -4.690  -1.070 132.656  0.00  0.00    +0.000 A 
ATOM     34  C   UNK A   0      -3.813  -0.009 132.456  0.00  0.00    +0.000 A 
ATOM     35  C   UNK A   0      -4.178   1.296 132.837  0.00  0.00    +0.000 A 
ENDBRANCH  29  30
ENDBRANCH  23  24
BRANCH  23  36
ATOM     36  C   UNK A   0      -5.753   4.839 130.042  0.00  0.00    +0.000 C 
ATOM     37  O   UNK A   0      -6.362   5.363 129.113  0.00  0.00    +0.000 OA
ATOM     38  N   UNK A   0      -4.545   5.423 130.366  0.00  0.00    +0.000 N 
ATOM     39  H   UNK A   0      -4.414   5.511 131.339  0.00  0.00    +0.000 HD
BRANCH  38  40
ATOM     40  C   UNK A   0      -3.899   6.564 129.722  0.00  0.00    +0.000 C 
ATOM     41  C   UNK A   0      -3.879   7.751 130.684  0.00  0.00    +0.000 C 
ATOM     42  C   UNK A   0      -2.449   6.244 129.277  0.00  0.00    +0.000 C 
ENDBRANCH  38  40
ENDBRANCH  23  36
ENDBRANCH   8  23
TORSDOF 8
ENDMDL
MODEL 9
REMARK VINA RESULT:      -8.4      3.132      6.138
REMARK  Name = CHEMBL2035015
REMARK  12 active torsions:
REMARK  status: ('A' for Active; 'I' for Inactive)
REMARK    1  A    between atoms: CD1_1  and  CG_2
REMARK    2  A    between atoms: CG_2  and  CD2_3
REMARK    3  A    between atoms: CG_2  and  CB_4
REMARK    4  A    between atoms: CB_4  and  CA_5
REMARK    5  A    between atoms: C_9  and  C_10
REMARK    6  A    between atoms: N_21  and  C_22
REMARK    7  A    between atoms: C_22  and  C_23
REMARK    8  A    between atoms: C_22  and  C_29
REMARK    9  A    between atoms: N_25  and  C_26
REMARK   10  A    between atoms: C_26  and  C_27
REMARK   11  A    between atoms: C_26  and  C_28
REMARK   12  A    between atoms: C_34  and  C_35
REMARK                            x       y       z     vdW  Elec       q    Type
REMARK                         _______ _______ _______ _____ _____    ______ ____
ROOT
ATOM      1  CA  LEU A   2      -5.842   1.541 128.497  0.00  0.00    +0.000 C 
ATOM      2  C   LEU A   2      -5.264   2.020 129.874  0.00  0.00    +0.000 C 
ATOM      3  O   LEU A   2      -4.155   2.454 130.077  0.00  0.00    +0.000 OA
ATOM      4  N   UNK A   1      -6.174   1.968 130.900  0.00  0.00    +0.000 N 
ATOM      5  C   UNK A   1      -7.544   1.543 130.711  0.00  0.00    +0.000 C 
ATOM      6  C   UNK A   1      -7.482   0.279 129.892  0.00  0.00    +0.000 C 
ATOM      7  O   UNK A   1      -8.193  -0.666 130.209  0.00  0.00    +0.000 OA
ATOM      8  N   LEU A   2      -6.592   0.262 128.828  0.00  0.00    +0.000 N 
ATOM      9  H   UNK A   1      -5.805   2.216 131.809  0.00  0.00    +0.000 HD
ENDROOT
BRANCH   5  10
ATOM     10  C   UNK A   1      -8.268   1.074 131.997  0.00  0.00    +0.000 C 
ATOM     11  C   UNK A   1      -9.463   1.959 132.319  0.00  0.00    +0.000 C 
ATOM     12  C   UNK A   1      -8.806   2.988 133.186  0.00  0.00    +0.000 A 
ATOM     13  C   UNK A   1      -9.203   4.289 133.389  0.00  0.00    +0.000 A 
ATOM     14  C   UNK A   1      -8.359   5.125 134.121  0.00  0.00    +0.000 A 
ATOM     15  C   UNK A   1      -7.129   4.663 134.622  0.00  0.00    +0.000 A 
ATOM     16  C   UNK A   1      -6.724   3.353 134.402  0.00  0.00    +0.000 A 
ATOM     17  C   UNK A   1      -7.585   2.531 133.700  0.00  0.00    +0.000 A 
ATOM     18  C   UNK A   1      -7.323   1.140 133.247  0.00  0.00    +0.000 C 
ENDBRANCH   5  10
BRANCH   1  19
ATOM     19  CB  LEU A   2      -4.671   1.581 127.480  0.00  0.00    +0.000 C 
BRANCH  19  21
ATOM     20  CD1 LEU A   2      -5.081   4.185 127.098  0.00  0.00    +0.000 C 
ATOM     21  CG  LEU A   2      -4.399   2.907 126.647  0.00  0.00    +0.000 C 
ATOM     22  CD2 LEU A   2      -2.986   3.394 126.520  0.00  0.00    +0.000 C 
ENDBRANCH  19  21
ENDBRANCH   1  19
BRANCH   8  23
ATOM     23  C   UNK A   0      -6.401  -1.099 128.291  0.00  0.00    +0.000 C 
BRANCH  23  24
ATOM     24  C   UNK A   0      -7.548  -1.716 127.435  0.00  0.00    +0.000 A 
ATOM     25  C   UNK A   0      -7.958  -3.002 127.798  0.00  0.00    +0.000 A 
ATOM     26  C   UNK A   0      -8.948  -3.670 127.127  0.00  0.00    +0.000 A 
ATOM     27  C   UNK A   0      -9.645  -3.007 126.138  0.00  0.00    +0.000 A 
ATOM     28  C   UNK A   0      -9.242  -1.740 125.700  0.00  0.00    +0.000 A 
ATOM     29  C   UNK A   0      -8.142  -1.076 126.271  0.00  0.00    +0.000 A 
BRANCH  29  30
ATOM     30  C   UNK A   0      -7.825   0.309 125.754  0.00  0.00    +0.000 A 
ATOM     31  C   UNK A   0      -6.860   0.473 124.737  0.00  0.00    +0.000 A 
ATOM     32  C   UNK A   0      -6.611   1.707 124.123  0.00  0.00    +0.000 A 
ATOM     33  C   UNK A   0      -7.337   2.827 124.504  0.00  0.00    +0.000 A 
ATOM     34  C   UNK A   0      -8.256   2.718 125.543  0.00  0.00    +0.000 A 
ATOM     35  C   UNK A   0      -8.459   1.482 126.185  0.00  0.00    +0.000 A 
ENDBRANCH  29  30
ENDBRANCH  23  24
BRANCH  23  36
ATOM     36  C   UNK A   0      -5.368  -2.079 129.101  0.00  0.00    +0.000 C 
ATOM     37  O   UNK A   0      -4.196  -2.292 128.799  0.00  0.00    +0.000 OA
ATOM     38  N   UNK A   0      -5.766  -2.574 130.326  0.00  0.00    +0.000 N 
ATOM     39  H   UNK A   0      -6.320  -1.935 130.832  0.00  0.00    +0.000 HD
BRANCH  38  40
ATOM     40  C   UNK A   0      -4.973  -3.338 131.285  0.00  0.00    +0.000 C 
ATOM     41  C   UNK A   0      -5.214  -2.800 132.694  0.00  0.00    +0.000 C 
ATOM     42  C   UNK A   0      -5.309  -4.852 131.252  0.00  0.00    +0.000 C 
ENDBRANCH  38  40
ENDBRANCH  23  36
ENDBRANCH   8  23
TORSDOF 8
ENDMDL
