MODEL 1
REMARK VINA RESULT:      -9.0      0.000      0.000
REMARK  Name = CHEMBL4209952
REMARK  2 active torsions:
REMARK  status: ('A' for Active; 'I' for Inactive)
REMARK    1  A    between atoms: C_2  and  C_3
REMARK    2  A    between atoms: C_6  and  C_7
REMARK                            x       y       z     vdW  Elec       q    Type
REMARK                         _______ _______ _______ _____ _____    ______ ____
ROOT
ATOM      1  O   UNL     1      -8.756   5.103 133.218  0.00  0.00    +0.000 OA
ATOM      2  C   UNL     1      -9.228   5.171 132.021  0.00  0.00    +0.000 C 
ATOM      3  N   UNL     1      -9.947   6.487 130.792  0.00  0.00    +0.000 N 
ATOM      4  C   UNL     1     -10.517   5.286 131.233  0.00  0.00    +0.000 C 
ATOM      5  C   UNL     1     -11.039   6.397 132.121  0.00  0.00    +0.000 C 
ATOM      6  C   UNL     1     -12.046   6.264 130.941  0.00  0.00    +0.000 C 
ATOM      7  C   UNL     1     -12.417   7.781 131.214  0.00  0.00    +0.000 C 
ATOM      8  C   UNL     1     -12.615   7.564 129.826  0.00  0.00    +0.000 A 
ATOM      9  C   UNL     1     -13.459   6.747 128.742  0.00  0.00    +0.000 A 
ATOM     10  C   UNL     1     -13.887   7.236 127.514  0.00  0.00    +0.000 A 
ATOM     11  C   UNL     1     -13.841   8.523 127.668  0.00  0.00    +0.000 A 
ATOM     12  C   UNL     1     -12.471   8.751 128.759  0.00  0.00    +0.000 A 
ATOM     13  C   UNL     1     -11.224   7.851 129.775  0.00  0.00    +0.000 A 
ENDROOT
BRANCH   2  14
ATOM     14  C   UNL     1      -8.987   3.211 131.872  0.00  0.00    +0.000 A 
ATOM     15  C   UNL     1      -8.012   3.052 130.958  0.00  0.00    +0.000 A 
ATOM     16  C   UNL     1      -7.845   1.928 130.098  0.00  0.00    +0.000 A 
ATOM     17  C   UNL     1      -8.194   0.598 130.339  0.00  0.00    +0.000 A 
ATOM     18  C   UNL     1      -8.834   0.420 131.550  0.00  0.00    +0.000 A 
ATOM     19  C   UNL     1      -9.181   1.665 132.383  0.00  0.00    +0.000 A 
BRANCH  17  20
ATOM     20  C   UNL     1      -7.802  -0.451 129.374  0.00  0.00    +0.000 A 
ATOM     21  N   UNL     1      -7.510  -1.674 129.881  0.00  0.00    +0.000 NA
ATOM     22  C   UNL     1      -7.108  -2.612 129.002  0.00  0.00    +0.000 A 
ATOM     23  C   UNL     1      -6.952  -2.370 127.662  0.00  0.00    +0.000 A 
ATOM     24  C   UNL     1      -7.241  -1.092 127.251  0.00  0.00    +0.000 A 
ATOM     25  N   UNL     1      -7.679  -0.118 128.075  0.00  0.00    +0.000 NA
ENDBRANCH  17  20
ENDBRANCH   2  14
TORSDOF 2
ENDMDL
MODEL 2
REMARK VINA RESULT:      -8.8      1.828      8.635
REMARK  Name = CHEMBL4209952
REMARK  2 active torsions:
REMARK  status: ('A' for Active; 'I' for Inactive)
REMARK    1  A    between atoms: C_2  and  C_3
REMARK    2  A    between atoms: C_6  and  C_7
REMARK                            x       y       z     vdW  Elec       q    Type
REMARK                         _______ _______ _______ _____ _____    ______ ____
ROOT
ATOM      1  O   UNL     1      -7.048   0.444 133.262  0.00  0.00    +0.000 OA
ATOM      2  C   UNL     1      -7.799   0.224 132.238  0.00  0.00    +0.000 C 
ATOM      3  N   UNL     1      -8.314  -1.238 131.073  0.00  0.00    +0.000 N 
ATOM      4  C   UNL     1      -7.768   0.008 130.738  0.00  0.00    +0.000 C 
ATOM      5  C   UNL     1      -6.627  -0.984 130.837  0.00  0.00    +0.000 C 
ATOM      6  C   UNL     1      -7.101  -1.003 129.355  0.00  0.00    +0.000 C 
ATOM      7  C   UNL     1      -6.515  -2.474 129.287  0.00  0.00    +0.000 C 
ATOM      8  C   UNL     1      -7.601  -2.434 128.376  0.00  0.00    +0.000 A 
ATOM      9  C   UNL     1      -8.154  -1.763 127.036  0.00  0.00    +0.000 A 
ATOM     10  C   UNL     1      -8.909  -2.405 126.062  0.00  0.00    +0.000 A 
ATOM     11  C   UNL     1      -8.668  -3.661 126.269  0.00  0.00    +0.000 A 
ATOM     12  C   UNL     1      -8.450  -3.746 128.021  0.00  0.00    +0.000 A 
ATOM     13  C   UNL     1      -8.349  -2.722 129.550  0.00  0.00    +0.000 A 
ENDROOT
BRANCH   2  14
ATOM     14  C   UNL     1      -8.260   2.150 132.229  0.00  0.00    +0.000 A 
ATOM     15  C   UNL     1      -9.599   2.183 132.101  0.00  0.00    +0.000 A 
ATOM     16  C   UNL     1     -10.358   3.231 131.501  0.00  0.00    +0.000 A 
ATOM     17  C   UNL     1     -10.058   4.593 131.453  0.00  0.00    +0.000 A 
ATOM     18  C   UNL     1      -8.833   4.897 132.015  0.00  0.00    +0.000 A 
ATOM     19  C   UNL     1      -7.939   3.738 132.484  0.00  0.00    +0.000 A 
BRANCH  17  20
ATOM     20  C   UNL     1     -11.051   5.544 130.910  0.00  0.00    +0.000 A 
ATOM     21  N   UNL     1     -11.599   6.426 131.783  0.00  0.00    +0.000 NA
ATOM     22  C   UNL     1     -12.537   7.258 131.292  0.00  0.00    +0.000 A 
ATOM     23  C   UNL     1     -12.971   7.220 129.993  0.00  0.00    +0.000 A 
ATOM     24  C   UNL     1     -12.380   6.271 129.196  0.00  0.00    +0.000 A 
ATOM     25  N   UNL     1     -11.411   5.432 129.617  0.00  0.00    +0.000 NA
ENDBRANCH  17  20
ENDBRANCH   2  14
TORSDOF 2
ENDMDL
MODEL 3
REMARK VINA RESULT:      -8.8      4.688      8.127
REMARK  Name = CHEMBL4209952
REMARK  2 active torsions:
REMARK  status: ('A' for Active; 'I' for Inactive)
REMARK    1  A    between atoms: C_2  and  C_3
REMARK    2  A    between atoms: C_6  and  C_7
REMARK                            x       y       z     vdW  Elec       q    Type
REMARK                         _______ _______ _______ _____ _____    ______ ____
ROOT
ATOM      1  O   UNL     1      -6.030   4.229 134.397  0.00  0.00    +0.000 OA
ATOM      2  C   UNL     1      -6.603   5.364 134.608  0.00  0.00    +0.000 C 
ATOM      3  N   UNL     1      -6.562   6.823 135.885  0.00  0.00    +0.000 N 
ATOM      4  C   UNL     1      -7.651   6.052 135.460  0.00  0.00    +0.000 C 
ATOM      5  C   UNL     1      -7.118   5.432 136.735  0.00  0.00    +0.000 C 
ATOM      6  C   UNL     1      -8.207   6.458 137.165  0.00  0.00    +0.000 C 
ATOM      7  C   UNL     1      -7.441   6.544 138.550  0.00  0.00    +0.000 C 
ATOM      8  C   UNL     1      -8.040   7.813 138.344  0.00  0.00    +0.000 A 
ATOM      9  C   UNL     1      -9.428   8.589 138.181  0.00  0.00    +0.000 A 
ATOM     10  C   UNL     1      -9.704   9.862 138.662  0.00  0.00    +0.000 A 
ATOM     11  C   UNL     1      -8.809  10.039 139.583  0.00  0.00    +0.000 A 
ATOM     12  C   UNL     1      -7.413   9.151 138.964  0.00  0.00    +0.000 A 
ATOM     13  C   UNL     1      -6.849   8.044 137.603  0.00  0.00    +0.000 A 
ENDROOT
BRANCH   2  14
ATOM     14  C   UNL     1      -7.721   5.037 133.006  0.00  0.00    +0.000 A 
ATOM     15  C   UNL     1      -7.549   6.129 132.237  0.00  0.00    +0.000 A 
ATOM     16  C   UNL     1      -8.492   6.655 131.307  0.00  0.00    +0.000 A 
ATOM     17  C   UNL     1      -9.450   5.962 130.564  0.00  0.00    +0.000 A 
ATOM     18  C   UNL     1      -9.485   4.613 130.855  0.00  0.00    +0.000 A 
ATOM     19  C   UNL     1      -8.598   4.088 131.997  0.00  0.00    +0.000 A 
BRANCH  17  20
ATOM     20  C   UNL     1     -10.240   6.675 129.537  0.00  0.00    +0.000 A 
ATOM     21  N   UNL     1      -9.745   7.858 129.094  0.00  0.00    +0.000 NA
ATOM     22  C   UNL     1     -10.493   8.525 128.194  0.00  0.00    +0.000 A 
ATOM     23  C   UNL     1     -11.712   8.083 127.754  0.00  0.00    +0.000 A 
ATOM     24  C   UNL     1     -12.141   6.892 128.286  0.00  0.00    +0.000 A 
ATOM     25  N   UNL     1     -11.426   6.160 129.164  0.00  0.00    +0.000 NA
ENDBRANCH  17  20
ENDBRANCH   2  14
TORSDOF 2
ENDMDL
MODEL 4
REMARK VINA RESULT:      -8.7      2.170      3.006
REMARK  Name = CHEMBL4209952
REMARK  2 active torsions:
REMARK  status: ('A' for Active; 'I' for Inactive)
REMARK    1  A    between atoms: C_2  and  C_3
REMARK    2  A    between atoms: C_6  and  C_7
REMARK                            x       y       z     vdW  Elec       q    Type
REMARK                         _______ _______ _______ _____ _____    ______ ____
ROOT
ATOM      1  O   UNL     1      -7.717   3.475 131.494  0.00  0.00    +0.000 OA
ATOM      2  C   UNL     1      -8.327   4.011 130.493  0.00  0.00    +0.000 C 
ATOM      3  N   UNL     1      -9.181   5.684 130.011  0.00  0.00    +0.000 N 
ATOM      4  C   UNL     1      -9.700   4.384 129.971  0.00  0.00    +0.000 C 
ATOM      5  C   UNL     1     -10.109   5.002 131.293  0.00  0.00    +0.000 C 
ATOM      6  C   UNL     1     -11.249   5.324 130.283  0.00  0.00    +0.000 C 
ATOM      7  C   UNL     1     -11.578   6.572 131.202  0.00  0.00    +0.000 C 
ATOM      8  C   UNL     1     -11.941   6.941 129.881  0.00  0.00    +0.000 A 
ATOM      9  C   UNL     1     -12.910   6.610 128.655  0.00  0.00    +0.000 A 
ATOM     10  C   UNL     1     -13.479   7.544 127.798  0.00  0.00    +0.000 A 
ATOM     11  C   UNL     1     -13.410   8.652 128.468  0.00  0.00    +0.000 A 
ATOM     12  C   UNL     1     -11.919   8.469 129.398  0.00  0.00    +0.000 A 
ATOM     13  C   UNL     1     -10.564   7.287 129.803  0.00  0.00    +0.000 A 
ENDROOT
BRANCH   2  14
ATOM     14  C   UNL     1      -8.113   2.303 129.515  0.00  0.00    +0.000 A 
ATOM     15  C   UNL     1      -7.881   2.663 128.239  0.00  0.00    +0.000 A 
ATOM     16  C   UNL     1      -8.204   1.898 127.080  0.00  0.00    +0.000 A 
ATOM     17  C   UNL     1      -8.259   0.509 126.952  0.00  0.00    +0.000 A 
ATOM     18  C   UNL     1      -8.026  -0.152 128.142  0.00  0.00    +0.000 A 
ATOM     19  C   UNL     1      -7.871   0.684 129.424  0.00  0.00    +0.000 A 
BRANCH  17  20
ATOM     20  C   UNL     1      -8.470  -0.098 125.620  0.00  0.00    +0.000 A 
ATOM     21  N   UNL     1      -8.813   0.741 124.611  0.00  0.00    +0.000 NA
ATOM     22  C   UNL     1      -9.050   0.176 123.411  0.00  0.00    +0.000 A 
ATOM     23  C   UNL     1      -8.996  -1.175 123.192  0.00  0.00    +0.000 A 
ATOM     24  C   UNL     1      -8.672  -1.942 124.284  0.00  0.00    +0.000 A 
ATOM     25  N   UNL     1      -8.391  -1.436 125.503  0.00  0.00    +0.000 NA
ENDBRANCH  17  20
ENDBRANCH   2  14
TORSDOF 2
ENDMDL
MODEL 5
REMARK VINA RESULT:      -8.6      2.383      8.926
REMARK  Name = CHEMBL4209952
REMARK  2 active torsions:
REMARK  status: ('A' for Active; 'I' for Inactive)
REMARK    1  A    between atoms: C_2  and  C_3
REMARK    2  A    between atoms: C_6  and  C_7
REMARK                            x       y       z     vdW  Elec       q    Type
REMARK                         _______ _______ _______ _____ _____    ______ ____
ROOT
ATOM      1  O   UNL     1      -6.359   0.273 130.395  0.00  0.00    +0.000 OA
ATOM      2  C   UNL     1      -7.256   0.145 129.478  0.00  0.00    +0.000 C 
ATOM      3  N   UNL     1      -7.955  -1.208 128.278  0.00  0.00    +0.000 N 
ATOM      4  C   UNL     1      -7.450   0.063 127.977  0.00  0.00    +0.000 C 
ATOM      5  C   UNL     1      -6.318  -0.932 127.818  0.00  0.00    +0.000 C 
ATOM      6  C   UNL     1      -7.007  -0.819 126.426  0.00  0.00    +0.000 C 
ATOM      7  C   UNL     1      -6.455  -2.277 126.143  0.00  0.00    +0.000 C 
ATOM      8  C   UNL     1      -7.663  -2.158 125.410  0.00  0.00    +0.000 A 
ATOM      9  C   UNL     1      -8.400  -1.371 124.231  0.00  0.00    +0.000 A 
ATOM     10  C   UNL     1      -9.299  -1.923 123.327  0.00  0.00    +0.000 A 
ATOM     11  C   UNL     1      -9.045  -3.193 123.385  0.00  0.00    +0.000 A 
ATOM     12  C   UNL     1      -8.571  -3.434 125.070  0.00  0.00    +0.000 A 
ATOM     13  C   UNL     1      -8.233  -2.550 126.652  0.00  0.00    +0.000 A 
ENDROOT
BRANCH   2  14
ATOM     14  C   UNL     1      -7.690   2.064 129.708  0.00  0.00    +0.000 A 
ATOM     15  C   UNL     1      -8.826   2.076 130.430  0.00  0.00    +0.000 A 
ATOM     16  C   UNL     1      -9.828   3.089 130.399  0.00  0.00    +0.000 A 
ATOM     17  C   UNL     1      -9.667   4.452 130.143  0.00  0.00    +0.000 A 
ATOM     18  C   UNL     1      -8.367   4.792 129.825  0.00  0.00    +0.000 A 
ATOM     19  C   UNL     1      -7.334   3.664 129.673  0.00  0.00    +0.000 A 
BRANCH  17  20
ATOM     20  C   UNL     1     -10.817   5.369 130.303  0.00  0.00    +0.000 A 
ATOM     21  N   UNL     1     -11.529   5.661 129.186  0.00  0.00    +0.000 NA
ATOM     22  C   UNL     1     -12.546   6.533 129.330  0.00  0.00    +0.000 A 
ATOM     23  C   UNL     1     -12.850   7.145 130.517  0.00  0.00    +0.000 A 
ATOM     24  C   UNL     1     -12.050   6.809 131.582  0.00  0.00    +0.000 A 
ATOM     25  N   UNL     1     -11.039   5.918 131.512  0.00  0.00    +0.000 NA
ENDBRANCH  17  20
ENDBRANCH   2  14
TORSDOF 2
ENDMDL
MODEL 6
REMARK VINA RESULT:      -8.6      2.974      5.364
REMARK  Name = CHEMBL4209952
REMARK  2 active torsions:
REMARK  status: ('A' for Active; 'I' for Inactive)
REMARK    1  A    between atoms: C_2  and  C_3
REMARK    2  A    between atoms: C_6  and  C_7
REMARK                            x       y       z     vdW  Elec       q    Type
REMARK                         _______ _______ _______ _____ _____    ______ ____
ROOT
ATOM      1  O   UNL     1      -7.038  -1.444 131.986  0.00  0.00    +0.000 OA
ATOM      2  C   UNL     1      -7.346  -0.426 131.257  0.00  0.00    +0.000 C 
ATOM      3  N   UNL     1      -7.453   1.505 131.390  0.00  0.00    +0.000 N 
ATOM      4  C   UNL     1      -8.439   0.591 130.997  0.00  0.00    +0.000 C 
ATOM      5  C   UNL     1      -8.627   0.865 132.476  0.00  0.00    +0.000 C 
ATOM      6  C   UNL     1      -9.505   1.904 131.718  0.00  0.00    +0.000 C 
ATOM      7  C   UNL     1      -9.356   2.821 133.003  0.00  0.00    +0.000 C 
ATOM      8  C   UNL     1      -9.489   3.699 131.897  0.00  0.00    +0.000 A 
ATOM      9  C   UNL     1     -10.457   4.174 130.718  0.00  0.00    +0.000 A 
ATOM     10  C   UNL     1     -10.577   5.475 130.244  0.00  0.00    +0.000 A 
ATOM     11  C   UNL     1     -10.106   6.196 131.213  0.00  0.00    +0.000 A 
ATOM     12  C   UNL     1      -8.848   5.168 131.907  0.00  0.00    +0.000 A 
ATOM     13  C   UNL     1      -8.085   3.493 131.807  0.00  0.00    +0.000 A 
ENDROOT
BRANCH   2  14
ATOM     14  C   UNL     1      -7.779  -1.679 129.785  0.00  0.00    +0.000 A 
ATOM     15  C   UNL     1      -7.127  -1.191 128.714  0.00  0.00    +0.000 A 
ATOM     16  C   UNL     1      -7.517  -1.349 127.352  0.00  0.00    +0.000 A 
ATOM     17  C   UNL     1      -8.210  -2.413 126.772  0.00  0.00    +0.000 A 
ATOM     18  C   UNL     1      -8.596  -3.370 127.689  0.00  0.00    +0.000 A 
ATOM     19  C   UNL     1      -8.340  -3.096 129.181  0.00  0.00    +0.000 A 
BRANCH  17  20
ATOM     20  C   UNL     1      -8.390  -2.459 125.305  0.00  0.00    +0.000 A 
ATOM     21  N   UNL     1      -9.493  -3.098 124.841  0.00  0.00    +0.000 NA
ATOM     22  C   UNL     1      -9.627  -3.177 123.503  0.00  0.00    +0.000 A 
ATOM     23  C   UNL     1      -8.699  -2.685 122.624  0.00  0.00    +0.000 A 
ATOM     24  C   UNL     1      -7.601  -2.086 123.191  0.00  0.00    +0.000 A 
ATOM     25  N   UNL     1      -7.424  -1.945 124.521  0.00  0.00    +0.000 NA
ENDBRANCH  17  20
ENDBRANCH   2  14
TORSDOF 2
ENDMDL
MODEL 7
REMARK VINA RESULT:      -8.2      4.505      8.517
REMARK  Name = CHEMBL4209952
REMARK  2 active torsions:
REMARK  status: ('A' for Active; 'I' for Inactive)
REMARK    1  A    between atoms: C_2  and  C_3
REMARK    2  A    between atoms: C_6  and  C_7
REMARK                            x       y       z     vdW  Elec       q    Type
REMARK                         _______ _______ _______ _____ _____    ______ ____
ROOT
ATOM      1  O   UNL     1      -5.501   1.587 130.097  0.00  0.00    +0.000 OA
ATOM      2  C   UNL     1      -5.367   2.857 130.266  0.00  0.00    +0.000 C 
ATOM      3  N   UNL     1      -3.965   4.194 130.359  0.00  0.00    +0.000 N 
ATOM      4  C   UNL     1      -4.977   3.909 131.284  0.00  0.00    +0.000 C 
ATOM      5  C   UNL     1      -3.740   3.141 131.703  0.00  0.00    +0.000 C 
ATOM      6  C   UNL     1      -3.673   4.516 132.430  0.00  0.00    +0.000 C 
ATOM      7  C   UNL     1      -2.102   4.306 132.473  0.00  0.00    +0.000 C 
ATOM      8  C   UNL     1      -2.318   5.707 132.410  0.00  0.00    +0.000 A 
ATOM      9  C   UNL     1      -2.949   6.964 133.168  0.00  0.00    +0.000 A 
ATOM     10  C   UNL     1      -2.418   8.248 133.187  0.00  0.00    +0.000 A 
ATOM     11  C   UNL     1      -1.175   8.067 132.866  0.00  0.00    +0.000 A 
ATOM     12  C   UNL     1      -1.241   6.696 131.753  0.00  0.00    +0.000 A 
ATOM     13  C   UNL     1      -2.374   5.444 131.014  0.00  0.00    +0.000 A 
ENDROOT
BRANCH   2  14
ATOM     14  C   UNL     1      -7.332   2.982 130.479  0.00  0.00    +0.000 A 
ATOM     15  C   UNL     1      -7.708   3.968 129.643  0.00  0.00    +0.000 A 
ATOM     16  C   UNL     1      -8.844   4.814 129.803  0.00  0.00    +0.000 A 
ATOM     17  C   UNL     1     -10.062   4.515 130.417  0.00  0.00    +0.000 A 
ATOM     18  C   UNL     1     -10.088   3.253 130.977  0.00  0.00    +0.000 A 
ATOM     19  C   UNL     1      -8.794   2.423 130.968  0.00  0.00    +0.000 A 
BRANCH  17  20
ATOM     20  C   UNL     1     -11.175   5.486 130.349  0.00  0.00    +0.000 A 
ATOM     21  N   UNL     1     -11.745   5.683 129.134  0.00  0.00    +0.000 NA
ATOM     22  C   UNL     1     -12.727   6.602 129.070  0.00  0.00    +0.000 A 
ATOM     23  C   UNL     1     -13.130   7.349 130.146  0.00  0.00    +0.000 A 
ATOM     24  C   UNL     1     -12.470   7.099 131.324  0.00  0.00    +0.000 A 
ATOM     25  N   UNL     1     -11.503   6.169 131.462  0.00  0.00    +0.000 NA
ENDBRANCH  17  20
ENDBRANCH   2  14
TORSDOF 2
ENDMDL
MODEL 8
REMARK VINA RESULT:      -8.2      6.653      9.985
REMARK  Name = CHEMBL4209952
REMARK  2 active torsions:
REMARK  status: ('A' for Active; 'I' for Inactive)
REMARK    1  A    between atoms: C_2  and  C_3
REMARK    2  A    between atoms: C_6  and  C_7
REMARK                            x       y       z     vdW  Elec       q    Type
REMARK                         _______ _______ _______ _____ _____    ______ ____
ROOT
ATOM      1  O   UNL     1      -9.203  -3.181 126.641  0.00  0.00    +0.000 OA
ATOM      2  C   UNL     1      -8.146  -2.576 127.062  0.00  0.00    +0.000 C 
ATOM      3  N   UNL     1      -6.609  -2.908 128.197  0.00  0.00    +0.000 N 
ATOM      4  C   UNL     1      -7.551  -1.873 128.265  0.00  0.00    +0.000 C 
ATOM      5  C   UNL     1      -8.001  -2.969 129.211  0.00  0.00    +0.000 C 
ATOM      6  C   UNL     1      -7.107  -2.005 130.045  0.00  0.00    +0.000 C 
ATOM      7  C   UNL     1      -6.819  -3.245 130.989  0.00  0.00    +0.000 C 
ATOM      8  C   UNL     1      -5.662  -2.425 131.040  0.00  0.00    +0.000 A 
ATOM      9  C   UNL     1      -5.098  -0.990 131.459  0.00  0.00    +0.000 A 
ATOM     10  C   UNL     1      -3.845  -0.741 132.003  0.00  0.00    +0.000 A 
ATOM     11  C   UNL     1      -3.482  -1.894 132.471  0.00  0.00    +0.000 A 
ATOM     12  C   UNL     1      -4.211  -3.037 131.337  0.00  0.00    +0.000 A 
ATOM     13  C   UNL     1      -5.322  -3.160 129.872  0.00  0.00    +0.000 A 
ENDROOT
BRANCH   2  14
ATOM     14  C   UNL     1      -8.735  -0.968 126.066  0.00  0.00    +0.000 A 
ATOM     15  C   UNL     1      -8.136  -1.068 124.865  0.00  0.00    +0.000 A 
ATOM     16  C   UNL     1      -7.768   0.019 124.020  0.00  0.00    +0.000 A 
ATOM     17  C   UNL     1      -8.385   1.266 123.901  0.00  0.00    +0.000 A 
ATOM     18  C   UNL     1      -9.437   1.434 124.779  0.00  0.00    +0.000 A 
ATOM     19  C   UNL     1      -9.703   0.331 125.818  0.00  0.00    +0.000 A 
BRANCH  17  20
ATOM     20  C   UNL     1      -7.937   2.209 122.854  0.00  0.00    +0.000 A 
ATOM     21  N   UNL     1      -8.898   2.759 122.070  0.00  0.00    +0.000 NA
ATOM     22  C   UNL     1      -8.479   3.581 121.089  0.00  0.00    +0.000 A 
ATOM     23  C   UNL     1      -7.158   3.841 120.838  0.00  0.00    +0.000 A 
ATOM     24  C   UNL     1      -6.260   3.212 121.665  0.00  0.00    +0.000 A 
ATOM     25  N   UNL     1      -6.616   2.405 122.686  0.00  0.00    +0.000 NA
ENDBRANCH  17  20
ENDBRANCH   2  14
TORSDOF 2
ENDMDL
MODEL 9
REMARK VINA RESULT:      -8.0      1.907      8.590
REMARK  Name = CHEMBL4209952
REMARK  2 active torsions:
REMARK  status: ('A' for Active; 'I' for Inactive)
REMARK    1  A    between atoms: C_2  and  C_3
REMARK    2  A    between atoms: C_6  and  C_7
REMARK                            x       y       z     vdW  Elec       q    Type
REMARK                         _______ _______ _______ _____ _____    ______ ____
ROOT
ATOM      1  O   UNL     1      -6.055   2.923 133.152  0.00  0.00    +0.000 OA
ATOM      2  C   UNL     1      -6.867   2.434 132.279  0.00  0.00    +0.000 C 
ATOM      3  N   UNL     1      -7.444   0.710 131.604  0.00  0.00    +0.000 N 
ATOM      4  C   UNL     1      -6.930   1.807 130.901  0.00  0.00    +0.000 C 
ATOM      5  C   UNL     1      -5.777   0.871 131.202  0.00  0.00    +0.000 C 
ATOM      6  C   UNL     1      -6.344   0.442 129.817  0.00  0.00    +0.000 C 
ATOM      7  C   UNL     1      -5.752  -0.995 130.127  0.00  0.00    +0.000 C 
ATOM      8  C   UNL     1      -6.893  -1.200 129.311  0.00  0.00    +0.000 A 
ATOM      9  C   UNL     1      -7.535  -0.924 127.873  0.00  0.00    +0.000 A 
ATOM     10  C   UNL     1      -8.345  -1.804 127.167  0.00  0.00    +0.000 A 
ATOM     11  C   UNL     1      -8.082  -2.955 127.702  0.00  0.00    +0.000 A 
ATOM     12  C   UNL     1      -7.753  -2.550 129.390  0.00  0.00    +0.000 A 
ATOM     13  C   UNL     1      -7.564  -1.140 130.563  0.00  0.00    +0.000 A 
ENDROOT
BRANCH   2  14
ATOM     14  C   UNL     1      -7.342   4.286 131.761  0.00  0.00    +0.000 A 
ATOM     15  C   UNL     1      -8.685   4.329 131.828  0.00  0.00    +0.000 A 
ATOM     16  C   UNL     1      -9.536   5.177 131.061  0.00  0.00    +0.000 A 
ATOM     17  C   UNL     1      -9.260   6.451 130.562  0.00  0.00    +0.000 A 
ATOM     18  C   UNL     1      -7.967   6.863 130.819  0.00  0.00    +0.000 A 
ATOM     19  C   UNL     1      -7.000   5.864 131.477  0.00  0.00    +0.000 A 
BRANCH  17  20
ATOM     20  C   UNL     1     -10.333   7.233 129.911  0.00  0.00    +0.000 A 
ATOM     21  N   UNL     1     -10.015   7.869 128.756  0.00  0.00    +0.000 NA
ATOM     22  C   UNL     1     -10.983   8.618 128.194  0.00  0.00    +0.000 A 
ATOM     23  C   UNL     1     -12.224   8.785 128.750  0.00  0.00    +0.000 A 
ATOM     24  C   UNL     1     -12.438   8.127 129.936  0.00  0.00    +0.000 A 
ATOM     25  N   UNL     1     -11.522   7.336 130.533  0.00  0.00    +0.000 NA
ENDBRANCH  17  20
ENDBRANCH   2  14
TORSDOF 2
ENDMDL
