MODEL 1
REMARK VINA RESULT:     -11.1      0.000      0.000
REMARK  Name = CHEMBL3354594
REMARK  25 active torsions:
REMARK  status: ('A' for Active; 'I' for Inactive)
REMARK    1  A    between atoms: C_1  and  C_2
REMARK    2  A    between atoms: C_2  and  C_3
REMARK    3  A    between atoms: C_3  and  C_4
REMARK    4  A    between atoms: C_3  and  C_5
REMARK    5  A    between atoms: C_9  and  C_10
REMARK    6  A    between atoms: C_10  and  C_11
REMARK    7  A    between atoms: C_14  and  O_15
REMARK    8  A    between atoms: C_26  and  C_27
REMARK    9  A    between atoms: N_29  and  C_30
REMARK   10  A    between atoms: N_29  and  C_46
REMARK   11  A    between atoms: C_30  and  C_31
REMARK   12  A    between atoms: N_33  and  C_34
REMARK   13  A    between atoms: C_34  and  C_35
REMARK   14  A    between atoms: C_34  and  C_39
REMARK   15  A    between atoms: C_35  and  C_36
REMARK   16  A    between atoms: C_36  and  C_37
REMARK   17  A    between atoms: C_36  and  C_38
REMARK   18  A    between atoms: N_41  and  C_42
REMARK   19  A    between atoms: C_42  and  C_43
REMARK   20  A    between atoms: C_46  and  C_47
REMARK   21  A    between atoms: C_57  and  C_58
REMARK   22  A    between atoms: C_58  and  C_59
REMARK   23  A    between atoms: C_65  and  C_66
REMARK   24  A    between atoms: C_66  and  C_67
REMARK   25  A    between atoms: C_67  and  C_68
REMARK                            x       y       z     vdW  Elec       q    Type
REMARK                         _______ _______ _______ _____ _____    ______ ____
ROOT
ATOM      1  C   UNL     1      -3.882   5.370 132.700  0.00  0.00    +0.000 C 
ATOM      2  N   UNL     1      -4.561   3.994 133.865  0.00  0.00    +0.000 N 
ATOM      3  C   UNL     1      -4.786   2.838 134.697  0.00  0.00    +0.000 C 
ATOM      4  O   UNL     1      -6.004   2.755 135.075  0.00  0.00    +0.000 OA
ATOM      5  C   UNL     1      -3.741   1.415 135.069  0.00  0.00    +0.000 C 
ATOM      6  N   UNL     1      -4.353   0.354 136.248  0.00  0.00    +0.000 N 
ATOM      7  C   UNL     1      -5.112  -0.806 136.429  0.00  0.00    +0.000 C 
ATOM      8  O   UNL     1      -5.016  -1.316 137.565  0.00  0.00    +0.000 OA
ATOM      9  C   UNL     1      -6.059  -1.658 135.516  0.00  0.00    +0.000 C 
ATOM     10  C   UNL     1      -6.225  -1.155 134.173  0.00  0.00    +0.000 C 
ATOM     11  C   UNL     1      -7.078  -1.710 133.146  0.00  0.00    +0.000 C 
ATOM     12  S   UNL     1      -6.626  -0.254 131.422  0.00  0.00    +0.000 S 
ATOM     13  C   UNL     1      -7.730  -0.263 129.518  0.00  0.00    +0.000 C 
ATOM     14  C   UNL     1      -7.334   0.421 128.242  0.00  0.00    +0.000 C 
ATOM     15  N   UNL     1      -7.788   1.779 128.438  0.00  0.00    +0.000 N 
ATOM     16  C   UNL     1      -7.502   2.504 129.562  0.00  0.00    +0.000 C 
ATOM     17  O   UNL     1      -8.046   3.584 129.744  0.00  0.00    +0.000 OA
ATOM     18  C   UNL     1      -6.375   2.042 130.436  0.00  0.00    +0.000 C 
ATOM     19  N   UNL     1      -5.332   2.856 130.125  0.00  0.00    +0.000 N 
ATOM     20  C   UNL     1      -5.279   3.640 131.246  0.00  0.00    +0.000 C 
ATOM     21  O   UNL     1      -4.470   3.232 131.894  0.00  0.00    +0.000 OA
ATOM     22  C   UNL     1      -6.359   4.788 131.675  0.00  0.00    +0.000 C 
ATOM     23  N   UNL     1      -6.219   5.460 132.986  0.00  0.00    +0.000 N 
ATOM     24  C   UNL     1      -5.020   6.020 133.405  0.00  0.00    +0.000 C 
ATOM     25  O   UNL     1      -4.870   6.532 134.515  0.00  0.00    +0.000 OA
ATOM     26  H   UNL     1      -5.584   4.029 133.786  0.00  0.00    +0.000 HD
ATOM     27  H   UNL     1      -3.864   0.502 137.123  0.00  0.00    +0.000 HD
ATOM     28  H   UNL     1      -8.645   2.055 127.984  0.00  0.00    +0.000 HD
ATOM     29  H   UNL     1      -4.541   2.197 130.207  0.00  0.00    +0.000 HD
ATOM     30  H   UNL     1      -6.730   5.161 133.813  0.00  0.00    +0.000 HD
ENDROOT
BRANCH  14  31
ATOM     31  C   UNL     1      -8.045  -0.509 127.125  0.00  0.00    +0.000 C 
ATOM     32  O   UNL     1      -7.786  -1.720 127.182  0.00  0.00    +0.000 OA
ATOM     33  N   UNL     1      -8.845   0.012 126.039  0.00  0.00    +0.000 N 
BRANCH  33  34
ATOM     34  C   UNL     1      -9.120   1.457 125.619  0.00  0.00    +0.000 C 
BRANCH  34  35
ATOM     35  C   UNL     1      -8.330   2.217 124.561  0.00  0.00    +0.000 C 
ATOM     36  O   UNL     1      -8.877   2.567 123.521  0.00  0.00    +0.000 OA
ATOM     37  N   UNL     1      -7.011   2.555 124.825  0.00  0.00    +0.000 N 
ATOM     38  H   UNL     1      -6.463   2.170 125.582  0.00  0.00    +0.000 HD
BRANCH  37  39
ATOM     39  C   UNL     1      -6.616   3.906 124.495  0.00  0.00    +0.000 C 
BRANCH  39  40
ATOM     40  C   UNL     1      -5.829   4.112 123.113  0.00  0.00    +0.000 C 
ATOM     41  O   UNL     1      -4.672   4.527 123.168  0.00  0.00    +0.000 OA
ATOM     42  N   UNL     1      -6.484   3.971 121.866  0.00  0.00    +0.000 N 
ATOM     43  H   UNL     1      -7.400   3.586 121.737  0.00  0.00    +0.000 HD
BRANCH  42  44
ATOM     44  C   UNL     1      -5.771   3.998 120.588  0.00  0.00    +0.000 C 
BRANCH  44  45
ATOM     45  C   UNL     1      -5.371   5.330 119.860  0.00  0.00    +0.000 C 
ATOM     46  N   UNL     1      -5.707   5.546 118.575  0.00  0.00    +0.000 N 
ATOM     47  O   UNL     1      -4.654   6.181 120.380  0.00  0.00    +0.000 OA
ATOM     48  H   UNL     1      -5.959   4.809 117.957  0.00  0.00    +0.000 HD
ATOM     49  H   UNL     1      -5.690   6.473 118.156  0.00  0.00    +0.000 HD
ENDBRANCH  44  45
ENDBRANCH  42  44
ENDBRANCH  39  40
BRANCH  39  50
ATOM     50  C   UNL     1      -5.584   4.384 125.553  0.00  0.00    +0.000 C 
BRANCH  50  51
ATOM     51  C   UNL     1      -4.358   3.281 126.374  0.00  0.00    +0.000 C 
ATOM     52  C   UNL     1      -4.501   1.871 126.353  0.00  0.00    +0.000 C 
ATOM     53  C   UNL     1      -2.443   3.454 126.930  0.00  0.00    +0.000 C 
ENDBRANCH  50  51
ENDBRANCH  39  50
ENDBRANCH  37  39
ENDBRANCH  34  35
ENDBRANCH  33  34
BRANCH  33  54
ATOM     54  C   UNL     1      -9.286  -1.041 125.057  0.00  0.00    +0.000 C 
BRANCH  54  55
ATOM     55  C   UNL     1      -8.177  -1.843 124.379  0.00  0.00    +0.000 A 
ATOM     56  C   UNL     1      -7.285  -1.190 123.511  0.00  0.00    +0.000 A 
ATOM     57  C   UNL     1      -6.061  -1.746 123.165  0.00  0.00    +0.000 A 
ATOM     58  C   UNL     1      -5.845  -3.080 123.444  0.00  0.00    +0.000 A 
ATOM     59  F   UNL     1      -4.715  -3.656 123.020  0.00  0.00    +0.000 F 
ATOM     60  C   UNL     1      -6.808  -3.828 124.116  0.00  0.00    +0.000 A 
ATOM     61  C   UNL     1      -7.965  -3.208 124.614  0.00  0.00    +0.000 A 
ENDBRANCH  54  55
ENDBRANCH  33  54
ENDBRANCH  14  31
BRANCH   1  62
ATOM     62  C   UNL     1      -3.822   5.893 130.769  0.00  0.00    +0.000 C 
ATOM     63  C   UNL     1      -3.726   6.984 129.486  0.00  0.00    +0.000 C 
BRANCH  62  65
ATOM     64  C   UNL     1      -2.268   6.474 129.208  0.00  0.00    +0.000 C 
ATOM     65  C   UNL     1      -2.456   5.714 130.449  0.00  0.00    +0.000 C 
ENDBRANCH  62  65
ENDBRANCH   1  62
BRANCH  18  66
ATOM     66  C   UNL     1      -6.533   2.003 132.101  0.00  0.00    +0.000 C 
BRANCH  66  67
ATOM     67  C   UNL     1      -8.034   2.147 132.470  0.00  0.00    +0.000 C 
ATOM     68  N   UNL     1      -8.568   3.239 133.073  0.00  0.00    +0.000 N 
ATOM     69  O   UNL     1      -8.693   1.137 132.589  0.00  0.00    +0.000 OA
ATOM     70  H   UNL     1      -7.999   3.945 133.492  0.00  0.00    +0.000 HD
ATOM     71  H   UNL     1      -9.289   3.066 133.757  0.00  0.00    +0.000 HD
ENDBRANCH  66  67
ENDBRANCH  18  66
BRANCH   5  72
ATOM     72  C   UNL     1      -2.961   0.301 134.037  0.00  0.00    +0.000 C 
BRANCH  72  73
ATOM     73  C   UNL     1      -2.158  -1.243 134.445  0.00  0.00    +0.000 A 
ATOM     74  C   UNL     1      -2.709  -2.258 133.788  0.00  0.00    +0.000 A 
ATOM     75  C   UNL     1      -2.786  -3.566 134.461  0.00  0.00    +0.000 A 
ATOM     76  C   UNL     1      -2.469  -4.091 135.686  0.00  0.00    +0.000 A 
ATOM     77  C   UNL     1      -1.864  -3.152 136.383  0.00  0.00    +0.000 A 
ATOM     78  C   UNL     1      -1.677  -1.822 135.745  0.00  0.00    +0.000 A 
BRANCH  76  79
ATOM     79  O   UNL     1      -3.103  -5.136 136.302  0.00  0.00    +0.000 OA
ATOM     80  H   UNL     1      -2.719  -6.025 136.174  0.00  0.00    +0.000 HD
ENDBRANCH  76  79
ENDBRANCH  72  73
ENDBRANCH   5  72
BRANCH  22  81
ATOM     81  C   UNL     1      -6.641   5.850 130.670  0.00  0.00    +0.000 C 
BRANCH  81  82
ATOM     82  C   UNL     1      -7.703   6.940 131.205  0.00  0.00    +0.000 C 
BRANCH  82  83
ATOM     83  C   UNL     1      -9.013   6.375 131.554  0.00  0.00    +0.000 C 
ATOM     84  N   UNL     1      -9.760   6.033 130.488  0.00  0.00    +0.000 N 
ATOM     85  O   UNL     1      -9.407   6.307 132.710  0.00  0.00    +0.000 OA
ATOM     86  H   UNL     1      -9.505   6.249 129.534  0.00  0.00    +0.000 HD
ATOM     87  H   UNL     1     -10.612   5.542 130.673  0.00  0.00    +0.000 HD
ENDBRANCH  82  83
ENDBRANCH  81  82
ENDBRANCH  22  81
TORSDOF 21
ENDMDL
MODEL 2
REMARK VINA RESULT:     -10.1      4.750     11.404
REMARK  Name = CHEMBL3354594
REMARK  25 active torsions:
REMARK  status: ('A' for Active; 'I' for Inactive)
REMARK    1  A    between atoms: C_1  and  C_2
REMARK    2  A    between atoms: C_2  and  C_3
REMARK    3  A    between atoms: C_3  and  C_4
REMARK    4  A    between atoms: C_3  and  C_5
REMARK    5  A    between atoms: C_9  and  C_10
REMARK    6  A    between atoms: C_10  and  C_11
REMARK    7  A    between atoms: C_14  and  O_15
REMARK    8  A    between atoms: C_26  and  C_27
REMARK    9  A    between atoms: N_29  and  C_30
REMARK   10  A    between atoms: N_29  and  C_46
REMARK   11  A    between atoms: C_30  and  C_31
REMARK   12  A    between atoms: N_33  and  C_34
REMARK   13  A    between atoms: C_34  and  C_35
REMARK   14  A    between atoms: C_34  and  C_39
REMARK   15  A    between atoms: C_35  and  C_36
REMARK   16  A    between atoms: C_36  and  C_37
REMARK   17  A    between atoms: C_36  and  C_38
REMARK   18  A    between atoms: N_41  and  C_42
REMARK   19  A    between atoms: C_42  and  C_43
REMARK   20  A    between atoms: C_46  and  C_47
REMARK   21  A    between atoms: C_57  and  C_58
REMARK   22  A    between atoms: C_58  and  C_59
REMARK   23  A    between atoms: C_65  and  C_66
REMARK   24  A    between atoms: C_66  and  C_67
REMARK   25  A    between atoms: C_67  and  C_68
REMARK                            x       y       z     vdW  Elec       q    Type
REMARK                         _______ _______ _______ _____ _____    ______ ____
ROOT
ATOM      1  C   UNL     1      -6.118  -1.127 132.343  0.00  0.00    +0.000 C 
ATOM      2  N   UNL     1      -7.422   0.289 132.277  0.00  0.00    +0.000 N 
ATOM      3  C   UNL     1      -8.373   1.312 131.919  0.00  0.00    +0.000 C 
ATOM      4  O   UNL     1      -8.755   1.983 132.938  0.00  0.00    +0.000 OA
ATOM      5  C   UNL     1      -8.899   1.941 130.311  0.00  0.00    +0.000 C 
ATOM      6  N   UNL     1     -10.183   3.054 130.353  0.00  0.00    +0.000 N 
ATOM      7  C   UNL     1     -10.486   4.418 130.410  0.00  0.00    +0.000 C 
ATOM      8  O   UNL     1     -11.670   4.698 130.130  0.00  0.00    +0.000 OA
ATOM      9  C   UNL     1      -9.667   5.717 130.723  0.00  0.00    +0.000 C 
ATOM     10  C   UNL     1      -8.278   5.498 131.047  0.00  0.00    +0.000 C 
ATOM     11  C   UNL     1      -7.314   6.506 131.428  0.00  0.00    +0.000 C 
ATOM     12  S   UNL     1      -5.444   5.191 131.696  0.00  0.00    +0.000 S 
ATOM     13  C   UNL     1      -3.550   5.946 132.522  0.00  0.00    +0.000 C 
ATOM     14  C   UNL     1      -2.209   5.275 132.464  0.00  0.00    +0.000 C 
ATOM     15  N   UNL     1      -2.256   4.341 133.566  0.00  0.00    +0.000 N 
ATOM     16  C   UNL     1      -3.297   3.476 133.764  0.00  0.00    +0.000 C 
ATOM     17  O   UNL     1      -3.360   2.826 134.798  0.00  0.00    +0.000 OA
ATOM     18  C   UNL     1      -4.219   3.201 132.614  0.00  0.00    +0.000 C 
ATOM     19  N   UNL     1      -3.824   1.994 132.128  0.00  0.00    +0.000 N 
ATOM     20  C   UNL     1      -4.854   1.200 132.554  0.00  0.00    +0.000 C 
ATOM     21  O   UNL     1      -5.545   1.067 131.690  0.00  0.00    +0.000 OA
ATOM     22  C   UNL     1      -5.155   0.750 134.095  0.00  0.00    +0.000 C 
ATOM     23  N   UNL     1      -6.386  -0.011 134.401  0.00  0.00    +0.000 N 
ATOM     24  C   UNL     1      -6.746  -1.150 133.692  0.00  0.00    +0.000 C 
ATOM     25  O   UNL     1      -7.795  -1.762 133.894  0.00  0.00    +0.000 OA
ATOM     26  H   UNL     1      -7.337   0.800 133.163  0.00  0.00    +0.000 HD
ATOM     27  H   UNL     1     -11.039   2.594 130.063  0.00  0.00    +0.000 HD
ATOM     28  H   UNL     1      -1.773   4.595 134.414  0.00  0.00    +0.000 HD
ATOM     29  H   UNL     1      -3.979   2.133 131.116  0.00  0.00    +0.000 HD
ATOM     30  H   UNL     1      -7.239   0.434 134.730  0.00  0.00    +0.000 HD
ENDROOT
BRANCH  14  31
ATOM     31  C   UNL     1      -1.196   6.535 132.524  0.00  0.00    +0.000 C 
ATOM     32  O   UNL     1      -0.703   6.886 131.442  0.00  0.00    +0.000 OA
ATOM     33  N   UNL     1      -0.774   7.168 133.754  0.00  0.00    +0.000 N 
BRANCH  33  34
ATOM     34  C   UNL     1      -1.052   6.784 135.208  0.00  0.00    +0.000 C 
BRANCH  34  35
ATOM     35  C   UNL     1      -2.282   7.212 135.998  0.00  0.00    +0.000 C 
ATOM     36  O   UNL     1      -2.636   6.570 136.980  0.00  0.00    +0.000 OA
ATOM     37  N   UNL     1      -2.948   8.370 135.622  0.00  0.00    +0.000 N 
ATOM     38  H   UNL     1      -2.805   8.853 134.746  0.00  0.00    +0.000 HD
BRANCH  37  39
ATOM     39  C   UNL     1      -3.321   9.271 136.690  0.00  0.00    +0.000 C 
BRANCH  39  40
ATOM     40  C   UNL     1      -4.770   9.058 137.343  0.00  0.00    +0.000 C 
ATOM     41  O   UNL     1      -5.605   9.950 137.192  0.00  0.00    +0.000 OA
ATOM     42  N   UNL     1      -5.039   7.958 138.192  0.00  0.00    +0.000 N 
ATOM     43  H   UNL     1      -4.436   7.167 138.320  0.00  0.00    +0.000 HD
BRANCH  42  44
ATOM     44  C   UNL     1      -6.382   7.643 138.682  0.00  0.00    +0.000 C 
BRANCH  44  45
ATOM     45  C   UNL     1      -7.428   6.825 137.844  0.00  0.00    +0.000 C 
ATOM     46  N   UNL     1      -7.186   6.500 136.560  0.00  0.00    +0.000 N 
ATOM     47  O   UNL     1      -8.543   6.539 138.272  0.00  0.00    +0.000 OA
ATOM     48  H   UNL     1      -6.507   6.971 136.008  0.00  0.00    +0.000 HD
ATOM     49  H   UNL     1      -7.709   5.775 136.075  0.00  0.00    +0.000 HD
ENDBRANCH  44  45
ENDBRANCH  42  44
ENDBRANCH  39  40
BRANCH  39  50
ATOM     50  C   UNL     1      -3.416  10.706 136.104  0.00  0.00    +0.000 C 
BRANCH  50  51
ATOM     51  C   UNL     1      -2.097  11.982 136.272  0.00  0.00    +0.000 C 
ATOM     52  C   UNL     1      -0.760  11.628 136.581  0.00  0.00    +0.000 C 
ATOM     53  C   UNL     1      -1.844  13.856 135.616  0.00  0.00    +0.000 C 
ENDBRANCH  50  51
ENDBRANCH  39  50
ENDBRANCH  37  39
ENDBRANCH  34  35
ENDBRANCH  33  34
BRANCH  33  54
ATOM     54  C   UNL     1       0.273   8.232 133.555  0.00  0.00    +0.000 C 
BRANCH  54  55
ATOM     55  C   UNL     1      -0.240   9.651 133.312  0.00  0.00    +0.000 A 
ATOM     56  C   UNL     1       0.670  10.721 133.300  0.00  0.00    +0.000 A 
ATOM     57  C   UNL     1       0.354  11.945 132.727  0.00  0.00    +0.000 A 
ATOM     58  C   UNL     1      -0.967  12.206 132.427  0.00  0.00    +0.000 A 
ATOM     59  F   UNL     1      -1.303  13.420 131.976  0.00  0.00    +0.000 F 
ATOM     60  C   UNL     1      -1.945  11.237 132.633  0.00  0.00    +0.000 A 
ATOM     61  C   UNL     1      -1.584   9.945 133.047  0.00  0.00    +0.000 A 
ENDBRANCH  54  55
ENDBRANCH  33  54
ENDBRANCH  14  31
BRANCH   1  62
ATOM     62  C   UNL     1      -4.142  -1.428 132.450  0.00  0.00    +0.000 C 
ATOM     63  C   UNL     1      -2.736  -2.125 133.069  0.00  0.00    +0.000 C 
BRANCH  62  65
ATOM     64  C   UNL     1      -3.183  -1.670 130.398  0.00  0.00    +0.000 C 
ATOM     65  C   UNL     1      -3.927  -2.391 131.436  0.00  0.00    +0.000 C 
ENDBRANCH  62  65
ENDBRANCH   1  62
BRANCH  18  66
ATOM     66  C   UNL     1      -5.877   3.166 132.826  0.00  0.00    +0.000 C 
BRANCH  66  67
ATOM     67  C   UNL     1      -6.232   3.884 134.155  0.00  0.00    +0.000 C 
ATOM     68  N   UNL     1      -6.022   3.353 135.386  0.00  0.00    +0.000 N 
ATOM     69  O   UNL     1      -7.064   4.764 134.125  0.00  0.00    +0.000 OA
ATOM     70  H   UNL     1      -5.800   2.388 135.517  0.00  0.00    +0.000 HD
ATOM     71  H   UNL     1      -6.728   3.539 136.082  0.00  0.00    +0.000 HD
ENDBRANCH  66  67
ENDBRANCH  18  66
BRANCH   5  72
ATOM     72  C   UNL     1      -7.995   2.573 129.009  0.00  0.00    +0.000 C 
BRANCH  72  73
ATOM     73  C   UNL     1      -6.283   3.084 128.968  0.00  0.00    +0.000 A 
ATOM     74  C   UNL     1      -6.136   4.213 128.282  0.00  0.00    +0.000 A 
ATOM     75  C   UNL     1      -4.906   4.396 127.494  0.00  0.00    +0.000 A 
ATOM     76  C   UNL     1      -3.783   3.671 127.192  0.00  0.00    +0.000 A 
ATOM     77  C   UNL     1      -3.829   2.550 127.882  0.00  0.00    +0.000 A 
ATOM     78  C   UNL     1      -5.003   2.324 128.766  0.00  0.00    +0.000 A 
BRANCH  76  79
ATOM     79  O   UNL     1      -3.047   3.767 126.042  0.00  0.00    +0.000 OA
ATOM     80  H   UNL     1      -2.414   4.508 125.981  0.00  0.00    +0.000 HD
ENDBRANCH  76  79
ENDBRANCH  72  73
ENDBRANCH   5  72
BRANCH  22  81
ATOM     81  C   UNL     1      -4.041   0.087 134.827  0.00  0.00    +0.000 C 
BRANCH  81  82
ATOM     82  C   UNL     1      -4.479  -0.411 136.298  0.00  0.00    +0.000 C 
BRANCH  82  83
ATOM     83  C   UNL     1      -4.281   0.593 137.351  0.00  0.00    +0.000 C 
ATOM     84  N   UNL     1      -3.102   1.238 137.275  0.00  0.00    +0.000 N 
ATOM     85  O   UNL     1      -5.088   0.756 138.257  0.00  0.00    +0.000 OA
ATOM     86  H   UNL     1      -2.366   0.983 136.631  0.00  0.00    +0.000 HD
ATOM     87  H   UNL     1      -2.968   2.007 137.901  0.00  0.00    +0.000 HD
ENDBRANCH  82  83
ENDBRANCH  81  82
ENDBRANCH  22  81
TORSDOF 21
ENDMDL
MODEL 3
REMARK VINA RESULT:      -9.7      4.498     11.683
REMARK  Name = CHEMBL3354594
REMARK  25 active torsions:
REMARK  status: ('A' for Active; 'I' for Inactive)
REMARK    1  A    between atoms: C_1  and  C_2
REMARK    2  A    between atoms: C_2  and  C_3
REMARK    3  A    between atoms: C_3  and  C_4
REMARK    4  A    between atoms: C_3  and  C_5
REMARK    5  A    between atoms: C_9  and  C_10
REMARK    6  A    between atoms: C_10  and  C_11
REMARK    7  A    between atoms: C_14  and  O_15
REMARK    8  A    between atoms: C_26  and  C_27
REMARK    9  A    between atoms: N_29  and  C_30
REMARK   10  A    between atoms: N_29  and  C_46
REMARK   11  A    between atoms: C_30  and  C_31
REMARK   12  A    between atoms: N_33  and  C_34
REMARK   13  A    between atoms: C_34  and  C_35
REMARK   14  A    between atoms: C_34  and  C_39
REMARK   15  A    between atoms: C_35  and  C_36
REMARK   16  A    between atoms: C_36  and  C_37
REMARK   17  A    between atoms: C_36  and  C_38
REMARK   18  A    between atoms: N_41  and  C_42
REMARK   19  A    between atoms: C_42  and  C_43
REMARK   20  A    between atoms: C_46  and  C_47
REMARK   21  A    between atoms: C_57  and  C_58
REMARK   22  A    between atoms: C_58  and  C_59
REMARK   23  A    between atoms: C_65  and  C_66
REMARK   24  A    between atoms: C_66  and  C_67
REMARK   25  A    between atoms: C_67  and  C_68
REMARK                            x       y       z     vdW  Elec       q    Type
REMARK                         _______ _______ _______ _____ _____    ______ ____
ROOT
ATOM      1  C   UNL     1      -6.510  -0.680 131.445  0.00  0.00    +0.000 C 
ATOM      2  N   UNL     1      -7.730   0.806 131.565  0.00  0.00    +0.000 N 
ATOM      3  C   UNL     1      -8.619   1.919 131.343  0.00  0.00    +0.000 C 
ATOM      4  O   UNL     1      -8.964   2.477 132.440  0.00  0.00    +0.000 OA
ATOM      5  C   UNL     1      -9.104   2.774 129.830  0.00  0.00    +0.000 C 
ATOM      6  N   UNL     1     -10.322   3.946 130.018  0.00  0.00    +0.000 N 
ATOM      7  C   UNL     1     -10.545   5.307 130.248  0.00  0.00    +0.000 C 
ATOM      8  O   UNL     1     -11.711   5.688 130.012  0.00  0.00    +0.000 OA
ATOM      9  C   UNL     1      -9.654   6.506 130.718  0.00  0.00    +0.000 C 
ATOM     10  C   UNL     1      -8.280   6.169 131.005  0.00  0.00    +0.000 C 
ATOM     11  C   UNL     1      -7.260   7.064 131.504  0.00  0.00    +0.000 C 
ATOM     12  S   UNL     1      -5.470   5.619 131.596  0.00  0.00    +0.000 S 
ATOM     13  C   UNL     1      -3.537   6.154 132.501  0.00  0.00    +0.000 C 
ATOM     14  C   UNL     1      -2.237   5.419 132.352  0.00  0.00    +0.000 C 
ATOM     15  N   UNL     1      -2.340   4.358 133.328  0.00  0.00    +0.000 N 
ATOM     16  C   UNL     1      -3.431   3.536 133.420  0.00  0.00    +0.000 C 
ATOM     17  O   UNL     1      -3.533   2.767 134.364  0.00  0.00    +0.000 OA
ATOM     18  C   UNL     1      -4.364   3.462 132.249  0.00  0.00    +0.000 C 
ATOM     19  N   UNL     1      -4.039   2.306 131.613  0.00  0.00    +0.000 N 
ATOM     20  C   UNL     1      -5.114   1.525 131.941  0.00  0.00    +0.000 C 
ATOM     21  O   UNL     1      -5.809   1.541 131.071  0.00  0.00    +0.000 OA
ATOM     22  C   UNL     1      -5.444   0.903 133.415  0.00  0.00    +0.000 C 
ATOM     23  N   UNL     1      -6.718   0.181 133.629  0.00  0.00    +0.000 N 
ATOM     24  C   UNL     1      -7.142  -0.836 132.784  0.00  0.00    +0.000 C 
ATOM     25  O   UNL     1      -8.225  -1.408 132.913  0.00  0.00    +0.000 OA
ATOM     26  H   UNL     1      -7.617   1.195 132.508  0.00  0.00    +0.000 HD
ATOM     27  H   UNL     1     -11.202   3.576 129.678  0.00  0.00    +0.000 HD
ATOM     28  H   UNL     1      -1.845   4.475 134.199  0.00  0.00    +0.000 HD
ATOM     29  H   UNL     1      -4.183   2.580 130.628  0.00  0.00    +0.000 HD
ATOM     30  H   UNL     1      -7.544   0.630 134.016  0.00  0.00    +0.000 HD
ENDROOT
BRANCH  14  31
ATOM     31  C   UNL     1      -1.154   6.601 132.564  0.00  0.00    +0.000 C 
ATOM     32  O   UNL     1      -0.188   6.598 131.786  0.00  0.00    +0.000 OA
ATOM     33  N   UNL     1      -1.206   7.553 133.653  0.00  0.00    +0.000 N 
BRANCH  33  34
ATOM     34  C   UNL     1      -2.148   7.626 134.855  0.00  0.00    +0.000 C 
BRANCH  34  35
ATOM     35  C   UNL     1      -1.968   6.838 136.147  0.00  0.00    +0.000 C 
ATOM     36  O   UNL     1      -1.031   7.093 136.895  0.00  0.00    +0.000 OA
ATOM     37  N   UNL     1      -2.912   5.879 136.482  0.00  0.00    +0.000 N 
ATOM     38  H   UNL     1      -3.610   5.517 135.848  0.00  0.00    +0.000 HD
BRANCH  37  39
ATOM     39  C   UNL     1      -3.368   5.880 137.854  0.00  0.00    +0.000 C 
BRANCH  39  40
ATOM     40  C   UNL     1      -2.711   4.795 138.836  0.00  0.00    +0.000 C 
ATOM     41  O   UNL     1      -3.305   4.532 139.881  0.00  0.00    +0.000 OA
ATOM     42  N   UNL     1      -1.419   4.270 138.591  0.00  0.00    +0.000 N 
ATOM     43  H   UNL     1      -0.899   4.392 137.743  0.00  0.00    +0.000 HD
BRANCH  42  44
ATOM     44  C   UNL     1      -0.849   3.171 139.371  0.00  0.00    +0.000 C 
BRANCH  44  45
ATOM     45  C   UNL     1      -1.362   1.691 139.267  0.00  0.00    +0.000 C 
ATOM     46  N   UNL     1      -0.641   0.751 138.630  0.00  0.00    +0.000 N 
ATOM     47  O   UNL     1      -2.474   1.346 139.658  0.00  0.00    +0.000 OA
ATOM     48  H   UNL     1       0.075   0.976 137.978  0.00  0.00    +0.000 HD
ATOM     49  H   UNL     1      -0.812  -0.244 138.757  0.00  0.00    +0.000 HD
ENDBRANCH  44  45
ENDBRANCH  42  44
ENDBRANCH  39  40
BRANCH  39  50
ATOM     50  C   UNL     1      -4.871   5.489 137.868  0.00  0.00    +0.000 C 
BRANCH  50  51
ATOM     51  C   UNL     1      -6.257   6.703 137.860  0.00  0.00    +0.000 C 
ATOM     52  C   UNL     1      -7.502   6.407 138.468  0.00  0.00    +0.000 C 
ATOM     53  C   UNL     1      -6.403   8.689 137.658  0.00  0.00    +0.000 C 
ENDBRANCH  50  51
ENDBRANCH  39  50
ENDBRANCH  37  39
ENDBRANCH  34  35
ENDBRANCH  33  34
BRANCH  33  54
ATOM     54  C   UNL     1      -0.014   8.470 133.709  0.00  0.00    +0.000 C 
BRANCH  54  55
ATOM     55  C   UNL     1      -0.254   9.921 133.295  0.00  0.00    +0.000 A 
ATOM     56  C   UNL     1       0.842  10.789 133.155  0.00  0.00    +0.000 A 
ATOM     57  C   UNL     1       0.749  11.975 132.438  0.00  0.00    +0.000 A 
ATOM     58  C   UNL     1      -0.505  12.445 132.109  0.00  0.00    +0.000 A 
ATOM     59  F   UNL     1      -0.615  13.639 131.515  0.00  0.00    +0.000 F 
ATOM     60  C   UNL     1      -1.644  11.711 132.430  0.00  0.00    +0.000 A 
ATOM     61  C   UNL     1      -1.524  10.433 132.998  0.00  0.00    +0.000 A 
ENDBRANCH  54  55
ENDBRANCH  33  54
ENDBRANCH  14  31
BRANCH   1  62
ATOM     62  C   UNL     1      -4.555  -1.105 131.504  0.00  0.00    +0.000 C 
ATOM     63  C   UNL     1      -3.212  -2.068 131.846  0.00  0.00    +0.000 C 
BRANCH  62  65
ATOM     64  C   UNL     1      -2.947  -2.126 130.254  0.00  0.00    +0.000 C 
ATOM     65  C   UNL     1      -4.311  -1.589 130.197  0.00  0.00    +0.000 C 
ENDBRANCH  62  65
ENDBRANCH   1  62
BRANCH  18  66
ATOM     66  C   UNL     1      -6.022   3.496 132.464  0.00  0.00    +0.000 C 
BRANCH  66  67
ATOM     67  C   UNL     1      -6.335   3.953 133.914  0.00  0.00    +0.000 C 
ATOM     68  N   UNL     1      -7.407   3.528 134.630  0.00  0.00    +0.000 N 
ATOM     69  O   UNL     1      -5.855   4.996 134.302  0.00  0.00    +0.000 OA
ATOM     70  H   UNL     1      -8.168   3.040 134.207  0.00  0.00    +0.000 HD
ATOM     71  H   UNL     1      -7.851   4.213 135.221  0.00  0.00    +0.000 HD
ENDBRANCH  66  67
ENDBRANCH  18  66
BRANCH   5  72
ATOM     72  C   UNL     1      -8.162   3.512 128.613  0.00  0.00    +0.000 C 
BRANCH  72  73
ATOM     73  C   UNL     1      -7.088   2.753 127.402  0.00  0.00    +0.000 A 
ATOM     74  C   UNL     1      -6.307   1.836 127.963  0.00  0.00    +0.000 A 
ATOM     75  C   UNL     1      -4.943   1.664 127.437  0.00  0.00    +0.000 A 
ATOM     76  C   UNL     1      -4.148   2.246 126.485  0.00  0.00    +0.000 A 
ATOM     77  C   UNL     1      -4.874   3.138 125.843  0.00  0.00    +0.000 A 
ATOM     78  C   UNL     1      -6.289   3.317 126.263  0.00  0.00    +0.000 A 
BRANCH  76  79
ATOM     79  O   UNL     1      -2.782   2.335 126.521  0.00  0.00    +0.000 OA
ATOM     80  H   UNL     1      -2.331   1.914 127.278  0.00  0.00    +0.000 HD
ENDBRANCH  76  79
ENDBRANCH  72  73
ENDBRANCH   5  72
BRANCH  22  81
ATOM     81  C   UNL     1      -4.372   0.089 134.052  0.00  0.00    +0.000 C 
BRANCH  81  82
ATOM     82  C   UNL     1      -4.737  -0.338 135.564  0.00  0.00    +0.000 C 
BRANCH  82  83
ATOM     83  C   UNL     1      -3.720   0.040 136.554  0.00  0.00    +0.000 C 
ATOM     84  N   UNL     1      -3.655   1.364 136.790  0.00  0.00    +0.000 N 
ATOM     85  O   UNL     1      -2.955  -0.777 137.046  0.00  0.00    +0.000 OA
ATOM     86  H   UNL     1      -4.168   2.052 136.258  0.00  0.00    +0.000 HD
ATOM     87  H   UNL     1      -3.058   1.659 137.536  0.00  0.00    +0.000 HD
ENDBRANCH  82  83
ENDBRANCH  81  82
ENDBRANCH  22  81
TORSDOF 21
ENDMDL
MODEL 4
REMARK VINA RESULT:      -9.4      5.128      9.899
REMARK  Name = CHEMBL3354594
REMARK  25 active torsions:
REMARK  status: ('A' for Active; 'I' for Inactive)
REMARK    1  A    between atoms: C_1  and  C_2
REMARK    2  A    between atoms: C_2  and  C_3
REMARK    3  A    between atoms: C_3  and  C_4
REMARK    4  A    between atoms: C_3  and  C_5
REMARK    5  A    between atoms: C_9  and  C_10
REMARK    6  A    between atoms: C_10  and  C_11
REMARK    7  A    between atoms: C_14  and  O_15
REMARK    8  A    between atoms: C_26  and  C_27
REMARK    9  A    between atoms: N_29  and  C_30
REMARK   10  A    between atoms: N_29  and  C_46
REMARK   11  A    between atoms: C_30  and  C_31
REMARK   12  A    between atoms: N_33  and  C_34
REMARK   13  A    between atoms: C_34  and  C_35
REMARK   14  A    between atoms: C_34  and  C_39
REMARK   15  A    between atoms: C_35  and  C_36
REMARK   16  A    between atoms: C_36  and  C_37
REMARK   17  A    between atoms: C_36  and  C_38
REMARK   18  A    between atoms: N_41  and  C_42
REMARK   19  A    between atoms: C_42  and  C_43
REMARK   20  A    between atoms: C_46  and  C_47
REMARK   21  A    between atoms: C_57  and  C_58
REMARK   22  A    between atoms: C_58  and  C_59
REMARK   23  A    between atoms: C_65  and  C_66
REMARK   24  A    between atoms: C_66  and  C_67
REMARK   25  A    between atoms: C_67  and  C_68
REMARK                            x       y       z     vdW  Elec       q    Type
REMARK                         _______ _______ _______ _____ _____    ______ ____
ROOT
ATOM      1  C   UNL     1      -6.534   9.592 138.782  0.00  0.00    +0.000 C 
ATOM      2  N   UNL     1      -4.612   9.670 138.681  0.00  0.00    +0.000 N 
ATOM      3  C   UNL     1      -3.227   9.939 138.381  0.00  0.00    +0.000 C 
ATOM      4  O   UNL     1      -2.444   9.142 139.002  0.00  0.00    +0.000 OA
ATOM      5  C   UNL     1      -2.461  10.998 137.138  0.00  0.00    +0.000 C 
ATOM      6  N   UNL     1      -0.770  11.141 137.250  0.00  0.00    +0.000 N 
ATOM      7  C   UNL     1       0.435  10.602 136.791  0.00  0.00    +0.000 C 
ATOM      8  O   UNL     1       1.438  11.314 137.011  0.00  0.00    +0.000 OA
ATOM      9  C   UNL     1       0.838   9.298 136.022  0.00  0.00    +0.000 C 
ATOM     10  C   UNL     1      -0.258   8.412 135.709  0.00  0.00    +0.000 C 
ATOM     11  C   UNL     1      -0.165   7.124 135.058  0.00  0.00    +0.000 C 
ATOM     12  S   UNL     1      -2.391   6.546 134.995  0.00  0.00    +0.000 S 
ATOM     13  C   UNL     1      -3.103   4.564 134.355  0.00  0.00    +0.000 C 
ATOM     14  C   UNL     1      -4.509   4.183 133.995  0.00  0.00    +0.000 C 
ATOM     15  N   UNL     1      -5.125   3.932 135.278  0.00  0.00    +0.000 N 
ATOM     16  C   UNL     1      -5.043   4.807 136.326  0.00  0.00    +0.000 C 
ATOM     17  O   UNL     1      -5.442   4.470 137.432  0.00  0.00    +0.000 OA
ATOM     18  C   UNL     1      -4.653   6.225 136.038  0.00  0.00    +0.000 C 
ATOM     19  N   UNL     1      -5.820   6.921 136.061  0.00  0.00    +0.000 N 
ATOM     20  C   UNL     1      -5.686   7.603 137.240  0.00  0.00    +0.000 C 
ATOM     21  O   UNL     1      -5.341   8.631 136.988  0.00  0.00    +0.000 OA
ATOM     22  C   UNL     1      -5.761   6.962 138.741  0.00  0.00    +0.000 C 
ATOM     23  N   UNL     1      -5.469   7.819 139.911  0.00  0.00    +0.000 N 
ATOM     24  C   UNL     1      -6.080   9.053 140.093  0.00  0.00    +0.000 C 
ATOM     25  O   UNL     1      -5.807   9.805 141.029  0.00  0.00    +0.000 OA
ATOM     26  H   UNL     1      -4.268   8.779 139.058  0.00  0.00    +0.000 HD
ATOM     27  H   UNL     1      -0.533  12.039 137.658  0.00  0.00    +0.000 HD
ATOM     28  H   UNL     1      -5.241   2.970 135.559  0.00  0.00    +0.000 HD
ATOM     29  H   UNL     1      -5.645   7.616 135.316  0.00  0.00    +0.000 HD
ATOM     30  H   UNL     1      -4.552   7.857 140.349  0.00  0.00    +0.000 HD
ENDROOT
BRANCH  14  31
ATOM     31  C   UNL     1      -4.275   2.960 132.964  0.00  0.00    +0.000 C 
ATOM     32  O   UNL     1      -3.109   2.793 132.574  0.00  0.00    +0.000 OA
ATOM     33  N   UNL     1      -5.346   2.157 132.413  0.00  0.00    +0.000 N 
BRANCH  33  34
ATOM     34  C   UNL     1      -6.862   2.306 132.552  0.00  0.00    +0.000 C 
BRANCH  34  35
ATOM     35  C   UNL     1      -7.655   3.535 132.125  0.00  0.00    +0.000 C 
ATOM     36  O   UNL     1      -8.820   3.668 132.481  0.00  0.00    +0.000 OA
ATOM     37  N   UNL     1      -7.016   4.519 131.385  0.00  0.00    +0.000 N 
ATOM     38  H   UNL     1      -6.119   4.404 130.934  0.00  0.00    +0.000 HD
BRANCH  37  39
ATOM     39  C   UNL     1      -7.249   5.885 131.797  0.00  0.00    +0.000 C 
BRANCH  39  40
ATOM     40  C   UNL     1      -8.335   6.717 130.960  0.00  0.00    +0.000 C 
ATOM     41  O   UNL     1      -7.932   7.647 130.262  0.00  0.00    +0.000 OA
ATOM     42  N   UNL     1      -9.723   6.495 131.130  0.00  0.00    +0.000 N 
ATOM     43  H   UNL     1     -10.126   5.728 131.634  0.00  0.00    +0.000 HD
BRANCH  42  44
ATOM     44  C   UNL     1     -10.737   7.119 130.280  0.00  0.00    +0.000 C 
BRANCH  44  45
ATOM     45  C   UNL     1     -12.278   6.983 130.546  0.00  0.00    +0.000 C 
ATOM     46  N   UNL     1     -13.168   7.101 129.543  0.00  0.00    +0.000 N 
ATOM     47  O   UNL     1     -12.750   6.872 131.675  0.00  0.00    +0.000 OA
ATOM     48  H   UNL     1     -12.945   7.539 128.679  0.00  0.00    +0.000 HD
ATOM     49  H   UNL     1     -14.128   6.775 129.626  0.00  0.00    +0.000 HD
ENDBRANCH  44  45
ENDBRANCH  42  44
ENDBRANCH  39  40
BRANCH  39  50
ATOM     50  C   UNL     1      -5.944   6.694 131.566  0.00  0.00    +0.000 C 
BRANCH  50  51
ATOM     51  C   UNL     1      -4.499   6.074 130.605  0.00  0.00    +0.000 C 
ATOM     52  C   UNL     1      -4.520   6.021 129.189  0.00  0.00    +0.000 C 
ATOM     53  C   UNL     1      -2.538   5.885 130.956  0.00  0.00    +0.000 C 
ENDBRANCH  50  51
ENDBRANCH  39  50
ENDBRANCH  37  39
ENDBRANCH  34  35
ENDBRANCH  33  34
BRANCH  33  54
ATOM     54  C   UNL     1      -4.885   1.167 131.377  0.00  0.00    +0.000 C 
BRANCH  54  55
ATOM     55  C   UNL     1      -4.961   1.625 129.921  0.00  0.00    +0.000 A 
ATOM     56  C   UNL     1      -6.197   1.595 129.252  0.00  0.00    +0.000 A 
ATOM     57  C   UNL     1      -6.419   2.326 128.093  0.00  0.00    +0.000 A 
ATOM     58  C   UNL     1      -5.330   2.855 127.433  0.00  0.00    +0.000 A 
ATOM     59  F   UNL     1      -5.518   3.468 126.259  0.00  0.00    +0.000 F 
ATOM     60  C   UNL     1      -4.047   2.715 127.956  0.00  0.00    +0.000 A 
ATOM     61  C   UNL     1      -3.859   2.126 129.216  0.00  0.00    +0.000 A 
ENDBRANCH  54  55
ENDBRANCH  33  54
ENDBRANCH  14  31
BRANCH   1  62
ATOM     62  C   UNL     1      -8.096   8.564 138.069  0.00  0.00    +0.000 C 
ATOM     63  C   UNL     1      -9.649   7.909 138.133  0.00  0.00    +0.000 C 
BRANCH  62  65
ATOM     64  C   UNL     1     -10.177   9.157 137.356  0.00  0.00    +0.000 C 
ATOM     65  C   UNL     1      -8.761   9.532 137.279  0.00  0.00    +0.000 C 
ENDBRANCH  62  65
ENDBRANCH   1  62
BRANCH  18  66
ATOM     66  C   UNL     1      -3.542   7.027 136.997  0.00  0.00    +0.000 C 
BRANCH  66  67
ATOM     67  C   UNL     1      -2.883   6.010 137.966  0.00  0.00    +0.000 C 
ATOM     68  N   UNL     1      -2.476   4.767 137.603  0.00  0.00    +0.000 N 
ATOM     69  O   UNL     1      -3.072   6.146 139.155  0.00  0.00    +0.000 OA
ATOM     70  H   UNL     1      -2.744   4.354 136.734  0.00  0.00    +0.000 HD
ATOM     71  H   UNL     1      -2.617   4.033 138.279  0.00  0.00    +0.000 HD
ENDBRANCH  66  67
ENDBRANCH  18  66
BRANCH   5  72
ATOM     72  C   UNL     1      -2.655  11.053 135.443  0.00  0.00    +0.000 C 
BRANCH  72  73
ATOM     73  C   UNL     1      -2.025  12.249 134.274  0.00  0.00    +0.000 A 
ATOM     74  C   UNL     1      -2.263  11.868 133.023  0.00  0.00    +0.000 A 
ATOM     75  C   UNL     1      -1.268  12.201 131.991  0.00  0.00    +0.000 A 
ATOM     76  C   UNL     1      -0.039  12.803 131.930  0.00  0.00    +0.000 A 
ATOM     77  C   UNL     1       0.247  13.259 133.132  0.00  0.00    +0.000 A 
ATOM     78  C   UNL     1      -0.746  13.033 134.217  0.00  0.00    +0.000 A 
BRANCH  76  79
ATOM     79  O   UNL     1       0.948  12.528 131.022  0.00  0.00    +0.000 OA
ATOM     80  H   UNL     1       1.847  12.846 131.236  0.00  0.00    +0.000 HD
ENDBRANCH  76  79
ENDBRANCH  72  73
ENDBRANCH   5  72
BRANCH  22  81
ATOM     81  C   UNL     1      -6.981   6.176 139.072  0.00  0.00    +0.000 C 
BRANCH  81  82
ATOM     82  C   UNL     1      -6.991   5.665 140.602  0.00  0.00    +0.000 C 
BRANCH  82  83
ATOM     83  C   UNL     1      -6.440   4.316 140.785  0.00  0.00    +0.000 C 
ATOM     84  N   UNL     1      -5.141   4.208 140.451  0.00  0.00    +0.000 N 
ATOM     85  O   UNL     1      -7.135   3.370 141.131  0.00  0.00    +0.000 OA
ATOM     86  H   UNL     1      -4.616   4.946 140.004  0.00  0.00    +0.000 HD
ATOM     87  H   UNL     1      -4.692   3.339 140.664  0.00  0.00    +0.000 HD
ENDBRANCH  82  83
ENDBRANCH  81  82
ENDBRANCH  22  81
TORSDOF 21
ENDMDL
MODEL 5
REMARK VINA RESULT:      -9.4      5.118      9.962
REMARK  Name = CHEMBL3354594
REMARK  25 active torsions:
REMARK  status: ('A' for Active; 'I' for Inactive)
REMARK    1  A    between atoms: C_1  and  C_2
REMARK    2  A    between atoms: C_2  and  C_3
REMARK    3  A    between atoms: C_3  and  C_4
REMARK    4  A    between atoms: C_3  and  C_5
REMARK    5  A    between atoms: C_9  and  C_10
REMARK    6  A    between atoms: C_10  and  C_11
REMARK    7  A    between atoms: C_14  and  O_15
REMARK    8  A    between atoms: C_26  and  C_27
REMARK    9  A    between atoms: N_29  and  C_30
REMARK   10  A    between atoms: N_29  and  C_46
REMARK   11  A    between atoms: C_30  and  C_31
REMARK   12  A    between atoms: N_33  and  C_34
REMARK   13  A    between atoms: C_34  and  C_35
REMARK   14  A    between atoms: C_34  and  C_39
REMARK   15  A    between atoms: C_35  and  C_36
REMARK   16  A    between atoms: C_36  and  C_37
REMARK   17  A    between atoms: C_36  and  C_38
REMARK   18  A    between atoms: N_41  and  C_42
REMARK   19  A    between atoms: C_42  and  C_43
REMARK   20  A    between atoms: C_46  and  C_47
REMARK   21  A    between atoms: C_57  and  C_58
REMARK   22  A    between atoms: C_58  and  C_59
REMARK   23  A    between atoms: C_65  and  C_66
REMARK   24  A    between atoms: C_66  and  C_67
REMARK   25  A    between atoms: C_67  and  C_68
REMARK                            x       y       z     vdW  Elec       q    Type
REMARK                         _______ _______ _______ _____ _____    ______ ____
ROOT
ATOM      1  C   UNL     1      -6.194   9.512 138.682  0.00  0.00    +0.000 C 
ATOM      2  N   UNL     1      -4.279   9.644 138.522  0.00  0.00    +0.000 N 
ATOM      3  C   UNL     1      -2.912   9.963 138.191  0.00  0.00    +0.000 C 
ATOM      4  O   UNL     1      -2.089   9.157 138.746  0.00  0.00    +0.000 OA
ATOM      5  C   UNL     1      -2.214  11.100 136.976  0.00  0.00    +0.000 C 
ATOM      6  N   UNL     1      -0.525  11.281 137.040  0.00  0.00    +0.000 N 
ATOM      7  C   UNL     1       0.677  10.796 136.516  0.00  0.00    +0.000 C 
ATOM      8  O   UNL     1       1.669  11.522 136.738  0.00  0.00    +0.000 OA
ATOM      9  C   UNL     1       1.086   9.541 135.672  0.00  0.00    +0.000 C 
ATOM     10  C   UNL     1       0.002   8.643 135.352  0.00  0.00    +0.000 C 
ATOM     11  C   UNL     1       0.104   7.390 134.637  0.00  0.00    +0.000 C 
ATOM     12  S   UNL     1      -2.109   6.758 134.618  0.00  0.00    +0.000 S 
ATOM     13  C   UNL     1      -2.793   4.792 133.907  0.00  0.00    +0.000 C 
ATOM     14  C   UNL     1      -4.201   4.392 133.574  0.00  0.00    +0.000 C 
ATOM     15  N   UNL     1      -4.767   4.064 134.863  0.00  0.00    +0.000 N 
ATOM     16  C   UNL     1      -4.671   4.889 135.949  0.00  0.00    +0.000 C 
ATOM     17  O   UNL     1      -5.024   4.490 137.050  0.00  0.00    +0.000 OA
ATOM     18  C   UNL     1      -4.325   6.330 135.718  0.00  0.00    +0.000 C 
ATOM     19  N   UNL     1      -5.507   6.994 135.812  0.00  0.00    +0.000 N 
ATOM     20  C   UNL     1      -5.350   7.621 137.019  0.00  0.00    +0.000 C 
ATOM     21  O   UNL     1      -5.039   8.669 136.806  0.00  0.00    +0.000 OA
ATOM     22  C   UNL     1      -5.358   6.907 138.488  0.00  0.00    +0.000 C 
ATOM     23  N   UNL     1      -5.049   7.715 139.688  0.00  0.00    +0.000 N 
ATOM     24  C   UNL     1      -5.683   8.923 139.950  0.00  0.00    +0.000 C 
ATOM     25  O   UNL     1      -5.397   9.636 140.912  0.00  0.00    +0.000 OA
ATOM     26  H   UNL     1      -3.901   8.746 138.844  0.00  0.00    +0.000 HD
ATOM     27  H   UNL     1      -0.296  12.164 137.483  0.00  0.00    +0.000 HD
ATOM     28  H   UNL     1      -4.850   3.087 135.101  0.00  0.00    +0.000 HD
ATOM     29  H   UNL     1      -5.374   7.727 135.097  0.00  0.00    +0.000 HD
ATOM     30  H   UNL     1      -4.119   7.756 140.097  0.00  0.00    +0.000 HD
ENDROOT
BRANCH  14  31
ATOM     31  C   UNL     1      -3.972   3.225 132.478  0.00  0.00    +0.000 C 
ATOM     32  O   UNL     1      -3.398   2.204 132.884  0.00  0.00    +0.000 OA
ATOM     33  N   UNL     1      -4.296   3.367 131.075  0.00  0.00    +0.000 N 
BRANCH  33  34
ATOM     34  C   UNL     1      -4.790   4.586 130.294  0.00  0.00    +0.000 C 
BRANCH  34  35
ATOM     35  C   UNL     1      -6.176   4.715 129.674  0.00  0.00    +0.000 C 
ATOM     36  O   UNL     1      -6.297   4.832 128.460  0.00  0.00    +0.000 OA
ATOM     37  N   UNL     1      -7.287   4.634 130.500  0.00  0.00    +0.000 N 
ATOM     38  H   UNL     1      -7.256   4.693 131.508  0.00  0.00    +0.000 HD
BRANCH  37  39
ATOM     39  C   UNL     1      -8.374   3.802 130.033  0.00  0.00    +0.000 C 
BRANCH  39  40
ATOM     40  C   UNL     1      -9.844   4.443 130.075  0.00  0.00    +0.000 C 
ATOM     41  O   UNL     1     -10.799   3.681 130.223  0.00  0.00    +0.000 OA
ATOM     42  N   UNL     1     -10.056   5.815 129.798  0.00  0.00    +0.000 N 
ATOM     43  H   UNL     1      -9.333   6.506 129.723  0.00  0.00    +0.000 HD
BRANCH  42  44
ATOM     44  C   UNL     1     -11.353   6.469 129.975  0.00  0.00    +0.000 C 
BRANCH  44  45
ATOM     45  C   UNL     1     -12.036   6.649 131.377  0.00  0.00    +0.000 C 
ATOM     46  N   UNL     1     -11.489   6.120 132.487  0.00  0.00    +0.000 N 
ATOM     47  O   UNL     1     -13.135   7.178 131.517  0.00  0.00    +0.000 OA
ATOM     48  H   UNL     1     -10.820   5.386 132.456  0.00  0.00    +0.000 HD
ATOM     49  H   UNL     1     -11.756   6.421 133.422  0.00  0.00    +0.000 HD
ENDBRANCH  44  45
ENDBRANCH  42  44
ENDBRANCH  39  40
BRANCH  39  50
ATOM     50  C   UNL     1      -8.503   2.586 130.991  0.00  0.00    +0.000 C 
BRANCH  50  51
ATOM     51  C   UNL     1      -8.260   2.675 132.815  0.00  0.00    +0.000 C 
ATOM     52  C   UNL     1      -7.282   1.886 133.470  0.00  0.00    +0.000 C 
ATOM     53  C   UNL     1      -8.664   4.025 134.236  0.00  0.00    +0.000 C 
ENDBRANCH  50  51
ENDBRANCH  39  50
ENDBRANCH  37  39
ENDBRANCH  34  35
ENDBRANCH  33  34
BRANCH  33  54
ATOM     54  C   UNL     1      -3.868   2.192 130.236  0.00  0.00    +0.000 C 
BRANCH  54  55
ATOM     55  C   UNL     1      -4.942   1.147 129.935  0.00  0.00    +0.000 A 
ATOM     56  C   UNL     1      -5.179   0.116 130.860  0.00  0.00    +0.000 A 
ATOM     57  C   UNL     1      -6.353  -0.625 130.845  0.00  0.00    +0.000 A 
ATOM     58  C   UNL     1      -7.166  -0.542 129.733  0.00  0.00    +0.000 A 
ATOM     59  F   UNL     1      -8.243  -1.331 129.657  0.00  0.00    +0.000 F 
ATOM     60  C   UNL     1      -6.845   0.315 128.684  0.00  0.00    +0.000 A 
ATOM     61  C   UNL     1      -5.750   1.186 128.792  0.00  0.00    +0.000 A 
ENDBRANCH  54  55
ENDBRANCH  33  54
ENDBRANCH  14  31
BRANCH   1  62
ATOM     62  C   UNL     1      -7.754   8.479 137.972  0.00  0.00    +0.000 C 
ATOM     63  C   UNL     1      -9.182   7.590 138.100  0.00  0.00    +0.000 C 
BRANCH  62  65
ATOM     64  C   UNL     1      -9.943   8.810 137.435  0.00  0.00    +0.000 C 
ATOM     65  C   UNL     1      -8.666   9.505 137.629  0.00  0.00    +0.000 C 
ENDBRANCH  62  65
ENDBRANCH   1  62
BRANCH  18  66
ATOM     66  C   UNL     1      -3.203   7.113 136.678  0.00  0.00    +0.000 C 
BRANCH  66  67
ATOM     67  C   UNL     1      -2.265   6.058 137.324  0.00  0.00    +0.000 C 
ATOM     68  N   UNL     1      -2.699   4.925 137.930  0.00  0.00    +0.000 N 
ATOM     69  O   UNL     1      -1.152   6.408 137.653  0.00  0.00    +0.000 OA
ATOM     70  H   UNL     1      -3.659   4.785 138.169  0.00  0.00    +0.000 HD
ATOM     71  H   UNL     1      -2.196   4.636 138.755  0.00  0.00    +0.000 HD
ENDBRANCH  66  67
ENDBRANCH  18  66
BRANCH   5  72
ATOM     72  C   UNL     1      -2.467  11.230 135.293  0.00  0.00    +0.000 C 
BRANCH  72  73
ATOM     73  C   UNL     1      -1.802  12.426 134.142  0.00  0.00    +0.000 A 
ATOM     74  C   UNL     1      -2.139  12.126 132.892  0.00  0.00    +0.000 A 
ATOM     75  C   UNL     1      -1.176  12.425 131.819  0.00  0.00    +0.000 A 
ATOM     76  C   UNL     1       0.094  12.926 131.714  0.00  0.00    +0.000 A 
ATOM     77  C   UNL     1       0.482  13.299 132.916  0.00  0.00    +0.000 A 
ATOM     78  C   UNL     1      -0.466  13.103 134.045  0.00  0.00    +0.000 A 
BRANCH  76  79
ATOM     79  O   UNL     1       1.004  12.615 130.739  0.00  0.00    +0.000 OA
ATOM     80  H   UNL     1       1.725  12.003 130.985  0.00  0.00    +0.000 HD
ENDBRANCH  76  79
ENDBRANCH  72  73
ENDBRANCH   5  72
BRANCH  22  81
ATOM     81  C   UNL     1      -6.548   6.075 138.820  0.00  0.00    +0.000 C 
BRANCH  81  82
ATOM     82  C   UNL     1      -6.612   5.686 140.384  0.00  0.00    +0.000 C 
BRANCH  82  83
ATOM     83  C   UNL     1      -6.424   4.255 140.652  0.00  0.00    +0.000 C 
ATOM     84  N   UNL     1      -5.577   3.648 139.800  0.00  0.00    +0.000 N 
ATOM     85  O   UNL     1      -7.052   3.666 141.521  0.00  0.00    +0.000 OA
ATOM     86  H   UNL     1      -5.193   4.095 138.980  0.00  0.00    +0.000 HD
ATOM     87  H   UNL     1      -5.329   2.701 140.009  0.00  0.00    +0.000 HD
ENDBRANCH  82  83
ENDBRANCH  81  82
ENDBRANCH  22  81
TORSDOF 21
ENDMDL
MODEL 6
REMARK VINA RESULT:      -9.3      5.997     10.929
REMARK  Name = CHEMBL3354594
REMARK  25 active torsions:
REMARK  status: ('A' for Active; 'I' for Inactive)
REMARK    1  A    between atoms: C_1  and  C_2
REMARK    2  A    between atoms: C_2  and  C_3
REMARK    3  A    between atoms: C_3  and  C_4
REMARK    4  A    between atoms: C_3  and  C_5
REMARK    5  A    between atoms: C_9  and  C_10
REMARK    6  A    between atoms: C_10  and  C_11
REMARK    7  A    between atoms: C_14  and  O_15
REMARK    8  A    between atoms: C_26  and  C_27
REMARK    9  A    between atoms: N_29  and  C_30
REMARK   10  A    between atoms: N_29  and  C_46
REMARK   11  A    between atoms: C_30  and  C_31
REMARK   12  A    between atoms: N_33  and  C_34
REMARK   13  A    between atoms: C_34  and  C_35
REMARK   14  A    between atoms: C_34  and  C_39
REMARK   15  A    between atoms: C_35  and  C_36
REMARK   16  A    between atoms: C_36  and  C_37
REMARK   17  A    between atoms: C_36  and  C_38
REMARK   18  A    between atoms: N_41  and  C_42
REMARK   19  A    between atoms: C_42  and  C_43
REMARK   20  A    between atoms: C_46  and  C_47
REMARK   21  A    between atoms: C_57  and  C_58
REMARK   22  A    between atoms: C_58  and  C_59
REMARK   23  A    between atoms: C_65  and  C_66
REMARK   24  A    between atoms: C_66  and  C_67
REMARK   25  A    between atoms: C_67  and  C_68
REMARK                            x       y       z     vdW  Elec       q    Type
REMARK                         _______ _______ _______ _____ _____    ______ ____
ROOT
ATOM      1  C   UNL     1      -5.176   8.292 139.968  0.00  0.00    +0.000 C 
ATOM      2  N   UNL     1      -3.382   8.977 139.824  0.00  0.00    +0.000 N 
ATOM      3  C   UNL     1      -2.183   9.762 139.663  0.00  0.00    +0.000 C 
ATOM      4  O   UNL     1      -1.135   9.031 139.650  0.00  0.00    +0.000 OA
ATOM      5  C   UNL     1      -1.944  11.500 139.242  0.00  0.00    +0.000 C 
ATOM      6  N   UNL     1      -0.337  12.052 139.323  0.00  0.00    +0.000 N 
ATOM      7  C   UNL     1       0.824  12.241 138.567  0.00  0.00    +0.000 C 
ATOM      8  O   UNL     1       1.680  12.972 139.108  0.00  0.00    +0.000 OA
ATOM      9  C   UNL     1       1.312  11.765 137.156  0.00  0.00    +0.000 C 
ATOM     10  C   UNL     1       0.383  10.921 136.444  0.00  0.00    +0.000 C 
ATOM     11  C   UNL     1       0.597  10.301 135.155  0.00  0.00    +0.000 C 
ATOM     12  S   UNL     1      -1.419   9.224 134.888  0.00  0.00    +0.000 S 
ATOM     13  C   UNL     1      -1.825   7.818 133.245  0.00  0.00    +0.000 C 
ATOM     14  C   UNL     1      -3.165   7.302 132.809  0.00  0.00    +0.000 C 
ATOM     15  N   UNL     1      -3.420   6.217 133.729  0.00  0.00    +0.000 N 
ATOM     16  C   UNL     1      -3.295   6.348 135.085  0.00  0.00    +0.000 C 
ATOM     17  O   UNL     1      -3.363   5.358 135.800  0.00  0.00    +0.000 OA
ATOM     18  C   UNL     1      -3.281   7.729 135.667  0.00  0.00    +0.000 C 
ATOM     19  N   UNL     1      -4.533   7.915 136.160  0.00  0.00    +0.000 N 
ATOM     20  C   UNL     1      -4.290   7.838 137.505  0.00  0.00    +0.000 C 
ATOM     21  O   UNL     1      -4.230   8.882 137.889  0.00  0.00    +0.000 OA
ATOM     22  C   UNL     1      -3.900   6.489 138.341  0.00  0.00    +0.000 C 
ATOM     23  N   UNL     1      -3.545   6.601 139.773  0.00  0.00    +0.000 N 
ATOM     24  C   UNL     1      -4.344   7.284 140.681  0.00  0.00    +0.000 C 
ATOM     25  O   UNL     1      -4.036   7.437 141.864  0.00  0.00    +0.000 OA
ATOM     26  H   UNL     1      -2.786   8.176 139.584  0.00  0.00    +0.000 HD
ATOM     27  H   UNL     1      -0.209  12.598 140.166  0.00  0.00    +0.000 HD
ATOM     28  H   UNL     1      -3.269   5.277 133.395  0.00  0.00    +0.000 HD
ATOM     29  H   UNL     1      -4.673   8.919 135.960  0.00  0.00    +0.000 HD
ATOM     30  H   UNL     1      -2.583   6.662 140.097  0.00  0.00    +0.000 HD
ENDROOT
BRANCH  14  31
ATOM     31  C   UNL     1      -2.912   6.983 131.243  0.00  0.00    +0.000 C 
ATOM     32  O   UNL     1      -1.744   6.716 130.925  0.00  0.00    +0.000 OA
ATOM     33  N   UNL     1      -3.932   7.103 130.225  0.00  0.00    +0.000 N 
BRANCH  33  34
ATOM     34  C   UNL     1      -5.366   7.627 130.320  0.00  0.00    +0.000 C 
BRANCH  34  35
ATOM     35  C   UNL     1      -6.585   6.767 130.630  0.00  0.00    +0.000 C 
ATOM     36  O   UNL     1      -7.712   7.204 130.429  0.00  0.00    +0.000 OA
ATOM     37  N   UNL     1      -6.390   5.469 131.080  0.00  0.00    +0.000 N 
ATOM     38  H   UNL     1      -5.507   5.104 131.409  0.00  0.00    +0.000 HD
BRANCH  37  39
ATOM     39  C   UNL     1      -7.210   4.448 130.467  0.00  0.00    +0.000 C 
BRANCH  39  40
ATOM     40  C   UNL     1      -8.762   4.428 130.871  0.00  0.00    +0.000 C 
ATOM     41  O   UNL     1      -9.088   3.780 131.865  0.00  0.00    +0.000 OA
ATOM     42  N   UNL     1      -9.747   5.005 130.033  0.00  0.00    +0.000 N 
ATOM     43  H   UNL     1      -9.558   5.592 129.243  0.00  0.00    +0.000 HD
BRANCH  42  44
ATOM     44  C   UNL     1     -11.147   5.145 130.434  0.00  0.00    +0.000 C 
BRANCH  44  45
ATOM     45  C   UNL     1     -11.616   6.110 131.580  0.00  0.00    +0.000 C 
ATOM     46  N   UNL     1     -10.914   6.222 132.723  0.00  0.00    +0.000 N 
ATOM     47  O   UNL     1     -12.682   6.719 131.540  0.00  0.00    +0.000 OA
ATOM     48  H   UNL     1     -10.258   5.536 133.017  0.00  0.00    +0.000 HD
ATOM     49  H   UNL     1     -11.039   7.002 133.364  0.00  0.00    +0.000 HD
ENDBRANCH  44  45
ENDBRANCH  42  44
ENDBRANCH  39  40
BRANCH  39  50
ATOM     50  C   UNL     1      -6.710   3.062 130.959  0.00  0.00    +0.000 C 
BRANCH  50  51
ATOM     51  C   UNL     1      -4.943   2.540 130.961  0.00  0.00    +0.000 C 
ATOM     52  C   UNL     1      -4.461   1.556 130.063  0.00  0.00    +0.000 C 
ATOM     53  C   UNL     1      -3.223   3.358 131.576  0.00  0.00    +0.000 C 
ENDBRANCH  50  51
ENDBRANCH  39  50
ENDBRANCH  37  39
ENDBRANCH  34  35
ENDBRANCH  33  34
BRANCH  33  54
ATOM     54  C   UNL     1      -3.418   6.879 128.828  0.00  0.00    +0.000 C 
BRANCH  54  55
ATOM     55  C   UNL     1      -3.510   5.451 128.291  0.00  0.00    +0.000 A 
ATOM     56  C   UNL     1      -4.756   4.949 127.878  0.00  0.00    +0.000 A 
ATOM     57  C   UNL     1      -4.859   3.838 127.051  0.00  0.00    +0.000 A 
ATOM     58  C   UNL     1      -3.742   3.048 126.873  0.00  0.00    +0.000 A 
ATOM     59  F   UNL     1      -3.854   1.917 126.169  0.00  0.00    +0.000 F 
ATOM     60  C   UNL     1      -2.527   3.398 127.454  0.00  0.00    +0.000 A 
ATOM     61  C   UNL     1      -2.396   4.616 128.141  0.00  0.00    +0.000 A 
ENDBRANCH  54  55
ENDBRANCH  33  54
ENDBRANCH  14  31
BRANCH   1  62
ATOM     62  C   UNL     1      -6.607   7.418 138.875  0.00  0.00    +0.000 C 
ATOM     63  C   UNL     1      -7.990   6.480 138.640  0.00  0.00    +0.000 C 
BRANCH  62  65
ATOM     64  C   UNL     1      -8.635   7.862 137.937  0.00  0.00    +0.000 C 
ATOM     65  C   UNL     1      -7.541   8.468 138.704  0.00  0.00    +0.000 C 
ENDBRANCH  62  65
ENDBRANCH   1  62
BRANCH  18  66
ATOM     66  C   UNL     1      -2.179   8.157 136.850  0.00  0.00    +0.000 C 
BRANCH  66  67
ATOM     67  C   UNL     1      -1.058   7.085 136.909  0.00  0.00    +0.000 C 
ATOM     68  N   UNL     1      -0.869   6.239 137.952  0.00  0.00    +0.000 N 
ATOM     69  O   UNL     1      -0.083   7.239 136.205  0.00  0.00    +0.000 OA
ATOM     70  H   UNL     1      -1.320   6.373 138.833  0.00  0.00    +0.000 HD
ATOM     71  H   UNL     1       0.087   6.031 138.194  0.00  0.00    +0.000 HD
ENDBRANCH  66  67
ENDBRANCH  18  66
BRANCH   5  72
ATOM     72  C   UNL     1      -2.511  12.418 137.919  0.00  0.00    +0.000 C 
BRANCH  72  73
ATOM     73  C   UNL     1      -2.000  14.041 137.371  0.00  0.00    +0.000 A 
ATOM     74  C   UNL     1      -1.540  14.003 136.125  0.00  0.00    +0.000 A 
ATOM     75  C   UNL     1      -0.438  14.908 135.760  0.00  0.00    +0.000 A 
ATOM     76  C   UNL     1       0.357  15.833 136.383  0.00  0.00    +0.000 A 
ATOM     77  C   UNL     1      -0.074  15.968 137.620  0.00  0.00    +0.000 A 
ATOM     78  C   UNL     1      -1.237  15.144 138.046  0.00  0.00    +0.000 A 
BRANCH  76  79
ATOM     79  O   UNL     1       1.645  16.148 136.042  0.00  0.00    +0.000 OA
ATOM     80  H   UNL     1       1.903  17.088 136.105  0.00  0.00    +0.000 HD
ENDBRANCH  76  79
ENDBRANCH  72  73
ENDBRANCH   5  72
BRANCH  22  81
ATOM     81  C   UNL     1      -4.828   5.332 138.213  0.00  0.00    +0.000 C 
BRANCH  81  82
ATOM     82  C   UNL     1      -4.309   4.033 139.016  0.00  0.00    +0.000 C 
BRANCH  82  83
ATOM     83  C   UNL     1      -3.007   3.530 138.561  0.00  0.00    +0.000 C 
ATOM     84  N   UNL     1      -3.070   2.796 137.434  0.00  0.00    +0.000 N 
ATOM     85  O   UNL     1      -1.981   3.701 139.204  0.00  0.00    +0.000 OA
ATOM     86  H   UNL     1      -3.937   2.511 137.001  0.00  0.00    +0.000 HD
ATOM     87  H   UNL     1      -2.199   2.526 137.024  0.00  0.00    +0.000 HD
ENDBRANCH  82  83
ENDBRANCH  81  82
ENDBRANCH  22  81
TORSDOF 21
ENDMDL
MODEL 7
REMARK VINA RESULT:      -9.0      4.831     11.906
REMARK  Name = CHEMBL3354594
REMARK  25 active torsions:
REMARK  status: ('A' for Active; 'I' for Inactive)
REMARK    1  A    between atoms: C_1  and  C_2
REMARK    2  A    between atoms: C_2  and  C_3
REMARK    3  A    between atoms: C_3  and  C_4
REMARK    4  A    between atoms: C_3  and  C_5
REMARK    5  A    between atoms: C_9  and  C_10
REMARK    6  A    between atoms: C_10  and  C_11
REMARK    7  A    between atoms: C_14  and  O_15
REMARK    8  A    between atoms: C_26  and  C_27
REMARK    9  A    between atoms: N_29  and  C_30
REMARK   10  A    between atoms: N_29  and  C_46
REMARK   11  A    between atoms: C_30  and  C_31
REMARK   12  A    between atoms: N_33  and  C_34
REMARK   13  A    between atoms: C_34  and  C_35
REMARK   14  A    between atoms: C_34  and  C_39
REMARK   15  A    between atoms: C_35  and  C_36
REMARK   16  A    between atoms: C_36  and  C_37
REMARK   17  A    between atoms: C_36  and  C_38
REMARK   18  A    between atoms: N_41  and  C_42
REMARK   19  A    between atoms: C_42  and  C_43
REMARK   20  A    between atoms: C_46  and  C_47
REMARK   21  A    between atoms: C_57  and  C_58
REMARK   22  A    between atoms: C_58  and  C_59
REMARK   23  A    between atoms: C_65  and  C_66
REMARK   24  A    between atoms: C_66  and  C_67
REMARK   25  A    between atoms: C_67  and  C_68
REMARK                            x       y       z     vdW  Elec       q    Type
REMARK                         _______ _______ _______ _____ _____    ______ ____
ROOT
ATOM      1  C   UNL     1      -5.948  -0.777 132.219  0.00  0.00    +0.000 C 
ATOM      2  N   UNL     1      -7.291   0.601 132.125  0.00  0.00    +0.000 N 
ATOM      3  C   UNL     1      -8.261   1.599 131.746  0.00  0.00    +0.000 C 
ATOM      4  O   UNL     1      -8.694   2.248 132.758  0.00  0.00    +0.000 OA
ATOM      5  C   UNL     1      -8.754   2.227 130.128  0.00  0.00    +0.000 C 
ATOM      6  N   UNL     1     -10.072   3.302 130.139  0.00  0.00    +0.000 N 
ATOM      7  C   UNL     1     -10.416   4.656 130.199  0.00  0.00    +0.000 C 
ATOM      8  O   UNL     1     -11.599   4.904 129.884  0.00  0.00    +0.000 OA
ATOM      9  C   UNL     1      -9.647   5.975 130.549  0.00  0.00    +0.000 C 
ATOM     10  C   UNL     1      -8.262   5.794 130.915  0.00  0.00    +0.000 C 
ATOM     11  C   UNL     1      -7.341   6.826 131.334  0.00  0.00    +0.000 C 
ATOM     12  S   UNL     1      -5.442   5.564 131.650  0.00  0.00    +0.000 S 
ATOM     13  C   UNL     1      -3.598   6.366 132.542  0.00  0.00    +0.000 C 
ATOM     14  C   UNL     1      -2.237   5.735 132.520  0.00  0.00    +0.000 C 
ATOM     15  N   UNL     1      -2.290   4.790 133.612  0.00  0.00    +0.000 N 
ATOM     16  C   UNL     1      -3.311   3.892 133.769  0.00  0.00    +0.000 C 
ATOM     17  O   UNL     1      -3.387   3.232 134.795  0.00  0.00    +0.000 OA
ATOM     18  C   UNL     1      -4.188   3.602 132.588  0.00  0.00    +0.000 C 
ATOM     19  N   UNL     1      -3.742   2.412 132.104  0.00  0.00    +0.000 N 
ATOM     20  C   UNL     1      -4.761   1.584 132.490  0.00  0.00    +0.000 C 
ATOM     21  O   UNL     1      -5.420   1.439 131.604  0.00  0.00    +0.000 OA
ATOM     22  C   UNL     1      -5.097   1.111 134.018  0.00  0.00    +0.000 C 
ATOM     23  N   UNL     1      -6.314   0.310 134.278  0.00  0.00    +0.000 N 
ATOM     24  C   UNL     1      -6.618  -0.831 133.548  0.00  0.00    +0.000 C 
ATOM     25  O   UNL     1      -7.654  -1.476 133.711  0.00  0.00    +0.000 OA
ATOM     26  H   UNL     1      -7.249   1.105 133.018  0.00  0.00    +0.000 HD
ATOM     27  H   UNL     1     -10.904   2.820 129.818  0.00  0.00    +0.000 HD
ATOM     28  H   UNL     1      -1.842   5.050 134.477  0.00  0.00    +0.000 HD
ATOM     29  H   UNL     1      -3.870   2.557 131.089  0.00  0.00    +0.000 HD
ATOM     30  H   UNL     1      -7.190   0.727 134.584  0.00  0.00    +0.000 HD
ENDROOT
BRANCH  14  31
ATOM     31  C   UNL     1      -1.264   7.024 132.623  0.00  0.00    +0.000 C 
ATOM     32  O   UNL     1      -0.201   6.953 131.989  0.00  0.00    +0.000 OA
ATOM     33  N   UNL     1      -1.524   8.160 133.481  0.00  0.00    +0.000 N 
BRANCH  33  34
ATOM     34  C   UNL     1      -2.627   8.383 134.516  0.00  0.00    +0.000 C 
BRANCH  34  35
ATOM     35  C   UNL     1      -2.750   7.620 135.829  0.00  0.00    +0.000 C 
ATOM     36  O   UNL     1      -1.939   7.809 136.728  0.00  0.00    +0.000 OA
ATOM     37  N   UNL     1      -3.826   6.762 136.005  0.00  0.00    +0.000 N 
ATOM     38  H   UNL     1      -4.434   6.447 135.263  0.00  0.00    +0.000 HD
BRANCH  37  39
ATOM     39  C   UNL     1      -4.512   6.846 137.276  0.00  0.00    +0.000 C 
BRANCH  39  40
ATOM     40  C   UNL     1      -4.561   5.509 138.161  0.00  0.00    +0.000 C 
ATOM     41  O   UNL     1      -4.195   4.459 137.634  0.00  0.00    +0.000 OA
ATOM     42  N   UNL     1      -5.147   5.501 139.450  0.00  0.00    +0.000 N 
ATOM     43  H   UNL     1      -5.416   6.318 139.965  0.00  0.00    +0.000 HD
BRANCH  42  44
ATOM     44  C   UNL     1      -5.075   4.348 140.347  0.00  0.00    +0.000 C 
BRANCH  44  45
ATOM     45  C   UNL     1      -6.346   3.577 140.853  0.00  0.00    +0.000 C 
ATOM     46  N   UNL     1      -7.430   4.242 141.294  0.00  0.00    +0.000 N 
ATOM     47  O   UNL     1      -6.378   2.356 140.972  0.00  0.00    +0.000 OA
ATOM     48  H   UNL     1      -7.394   5.193 141.582  0.00  0.00    +0.000 HD
ATOM     49  H   UNL     1      -8.340   3.798 141.387  0.00  0.00    +0.000 HD
ENDBRANCH  44  45
ENDBRANCH  42  44
ENDBRANCH  39  40
BRANCH  39  50
ATOM     50  C   UNL     1      -6.014   7.131 137.000  0.00  0.00    +0.000 C 
BRANCH  50  51
ATOM     51  C   UNL     1      -6.976   8.482 137.802  0.00  0.00    +0.000 C 
ATOM     52  C   UNL     1      -6.469   9.802 137.883  0.00  0.00    +0.000 C 
ATOM     53  C   UNL     1      -8.909   8.798 138.209  0.00  0.00    +0.000 C 
ENDBRANCH  50  51
ENDBRANCH  39  50
ENDBRANCH  37  39
ENDBRANCH  34  35
ENDBRANCH  33  34
BRANCH  33  54
ATOM     54  C   UNL     1      -0.407   9.169 133.499  0.00  0.00    +0.000 C 
BRANCH  54  55
ATOM     55  C   UNL     1      -0.818  10.634 133.642  0.00  0.00    +0.000 A 
ATOM     56  C   UNL     1      -1.917  11.117 132.912  0.00  0.00    +0.000 A 
ATOM     57  C   UNL     1      -2.569  12.291 133.262  0.00  0.00    +0.000 A 
ATOM     58  C   UNL     1      -1.952  13.141 134.156  0.00  0.00    +0.000 A 
ATOM     59  F   UNL     1      -2.515  14.326 134.419  0.00  0.00    +0.000 F 
ATOM     60  C   UNL     1      -0.738  12.794 134.742  0.00  0.00    +0.000 A 
ATOM     61  C   UNL     1      -0.179  11.527 134.512  0.00  0.00    +0.000 A 
ENDBRANCH  54  55
ENDBRANCH  33  54
ENDBRANCH  14  31
BRANCH   1  62
ATOM     62  C   UNL     1      -3.969  -1.021 132.387  0.00  0.00    +0.000 C 
ATOM     63  C   UNL     1      -2.565  -1.808 132.894  0.00  0.00    +0.000 C 
BRANCH  62  65
ATOM     64  C   UNL     1      -3.576  -3.084 131.504  0.00  0.00    +0.000 C 
ATOM     65  C   UNL     1      -3.638  -1.657 131.167  0.00  0.00    +0.000 C 
ENDBRANCH  62  65
ENDBRANCH   1  62
BRANCH  18  66
ATOM     66  C   UNL     1      -5.850   3.516 132.748  0.00  0.00    +0.000 C 
BRANCH  66  67
ATOM     67  C   UNL     1      -6.268   4.215 134.069  0.00  0.00    +0.000 C 
ATOM     68  N   UNL     1      -6.100   3.673 135.302  0.00  0.00    +0.000 N 
ATOM     69  O   UNL     1      -7.111   5.084 134.015  0.00  0.00    +0.000 OA
ATOM     70  H   UNL     1      -5.870   2.710 135.431  0.00  0.00    +0.000 HD
ATOM     71  H   UNL     1      -6.836   3.842 135.970  0.00  0.00    +0.000 HD
ENDBRANCH  66  67
ENDBRANCH  18  66
BRANCH   5  72
ATOM     72  C   UNL     1      -7.829   2.898 128.860  0.00  0.00    +0.000 C 
BRANCH  72  73
ATOM     73  C   UNL     1      -6.096   3.335 128.838  0.00  0.00    +0.000 A 
ATOM     74  C   UNL     1      -5.887   4.434 128.121  0.00  0.00    +0.000 A 
ATOM     75  C   UNL     1      -4.636   4.540 127.353  0.00  0.00    +0.000 A 
ATOM     76  C   UNL     1      -3.540   3.760 127.097  0.00  0.00    +0.000 A 
ATOM     77  C   UNL     1      -3.647   2.664 127.820  0.00  0.00    +0.000 A 
ATOM     78  C   UNL     1      -4.847   2.516 128.686  0.00  0.00    +0.000 A 
BRANCH  76  79
ATOM     79  O   UNL     1      -2.779   3.788 125.959  0.00  0.00    +0.000 OA
ATOM     80  H   UNL     1      -1.829   3.985 126.066  0.00  0.00    +0.000 HD
ENDBRANCH  76  79
ENDBRANCH  72  73
ENDBRANCH   5  72
BRANCH  22  81
ATOM     81  C   UNL     1      -3.987   0.473 134.779  0.00  0.00    +0.000 C 
BRANCH  81  82
ATOM     82  C   UNL     1      -4.346   0.268 136.338  0.00  0.00    +0.000 C 
BRANCH  82  83
ATOM     83  C   UNL     1      -3.240  -0.271 137.140  0.00  0.00    +0.000 C 
ATOM     84  N   UNL     1      -2.595   0.656 137.872  0.00  0.00    +0.000 N 
ATOM     85  O   UNL     1      -2.897  -1.443 137.072  0.00  0.00    +0.000 OA
ATOM     86  H   UNL     1      -2.768   1.649 137.795  0.00  0.00    +0.000 HD
ATOM     87  H   UNL     1      -1.908   0.322 138.518  0.00  0.00    +0.000 HD
ENDBRANCH  82  83
ENDBRANCH  81  82
ENDBRANCH  22  81
TORSDOF 21
ENDMDL
MODEL 8
REMARK VINA RESULT:      -9.0      5.193      9.813
REMARK  Name = CHEMBL3354594
REMARK  25 active torsions:
REMARK  status: ('A' for Active; 'I' for Inactive)
REMARK    1  A    between atoms: C_1  and  C_2
REMARK    2  A    between atoms: C_2  and  C_3
REMARK    3  A    between atoms: C_3  and  C_4
REMARK    4  A    between atoms: C_3  and  C_5
REMARK    5  A    between atoms: C_9  and  C_10
REMARK    6  A    between atoms: C_10  and  C_11
REMARK    7  A    between atoms: C_14  and  O_15
REMARK    8  A    between atoms: C_26  and  C_27
REMARK    9  A    between atoms: N_29  and  C_30
REMARK   10  A    between atoms: N_29  and  C_46
REMARK   11  A    between atoms: C_30  and  C_31
REMARK   12  A    between atoms: N_33  and  C_34
REMARK   13  A    between atoms: C_34  and  C_35
REMARK   14  A    between atoms: C_34  and  C_39
REMARK   15  A    between atoms: C_35  and  C_36
REMARK   16  A    between atoms: C_36  and  C_37
REMARK   17  A    between atoms: C_36  and  C_38
REMARK   18  A    between atoms: N_41  and  C_42
REMARK   19  A    between atoms: C_42  and  C_43
REMARK   20  A    between atoms: C_46  and  C_47
REMARK   21  A    between atoms: C_57  and  C_58
REMARK   22  A    between atoms: C_58  and  C_59
REMARK   23  A    between atoms: C_65  and  C_66
REMARK   24  A    between atoms: C_66  and  C_67
REMARK   25  A    between atoms: C_67  and  C_68
REMARK                            x       y       z     vdW  Elec       q    Type
REMARK                         _______ _______ _______ _____ _____    ______ ____
ROOT
ATOM      1  C   UNL     1      -6.295   9.796 139.036  0.00  0.00    +0.000 C 
ATOM      2  N   UNL     1      -4.391   9.743 138.752  0.00  0.00    +0.000 N 
ATOM      3  C   UNL     1      -3.026   9.918 138.321  0.00  0.00    +0.000 C 
ATOM      4  O   UNL     1      -2.243   9.067 138.866  0.00  0.00    +0.000 OA
ATOM      5  C   UNL     1      -2.311  10.928 137.008  0.00  0.00    +0.000 C 
ATOM      6  N   UNL     1      -0.611  10.956 136.958  0.00  0.00    +0.000 N 
ATOM      7  C   UNL     1       0.506  10.337 136.388  0.00  0.00    +0.000 C 
ATOM      8  O   UNL     1       1.571  10.978 136.509  0.00  0.00    +0.000 OA
ATOM      9  C   UNL     1       0.744   9.012 135.587  0.00  0.00    +0.000 C 
ATOM     10  C   UNL     1      -0.435   8.204 135.382  0.00  0.00    +0.000 C 
ATOM     11  C   UNL     1      -0.492   6.915 134.729  0.00  0.00    +0.000 C 
ATOM     12  S   UNL     1      -2.749   6.490 134.880  0.00  0.00    +0.000 S 
ATOM     13  C   UNL     1      -3.651   4.564 134.316  0.00  0.00    +0.000 C 
ATOM     14  C   UNL     1      -5.108   4.281 134.092  0.00  0.00    +0.000 C 
ATOM     15  N   UNL     1      -5.615   4.067 135.428  0.00  0.00    +0.000 N 
ATOM     16  C   UNL     1      -5.374   4.930 136.462  0.00  0.00    +0.000 C 
ATOM     17  O   UNL     1      -5.687   4.616 137.601  0.00  0.00    +0.000 OA
ATOM     18  C   UNL     1      -4.917   6.319 136.134  0.00  0.00    +0.000 C 
ATOM     19  N   UNL     1      -6.026   7.094 136.266  0.00  0.00    +0.000 N 
ATOM     20  C   UNL     1      -5.735   7.760 137.426  0.00  0.00    +0.000 C 
ATOM     21  O   UNL     1      -5.346   8.763 137.139  0.00  0.00    +0.000 OA
ATOM     22  C   UNL     1      -5.710   7.119 138.929  0.00  0.00    +0.000 C 
ATOM     23  N   UNL     1      -5.251   7.950 140.063  0.00  0.00    +0.000 N 
ATOM     24  C   UNL     1      -5.756   9.222 140.300  0.00  0.00    +0.000 C 
ATOM     25  O   UNL     1      -5.345   9.950 141.204  0.00  0.00    +0.000 OA
ATOM     26  H   UNL     1      -4.074   8.830 139.097  0.00  0.00    +0.000 HD
ATOM     27  H   UNL     1      -0.276  11.833 137.339  0.00  0.00    +0.000 HD
ATOM     28  H   UNL     1      -5.768   3.114 135.722  0.00  0.00    +0.000 HD
ATOM     29  H   UNL     1      -5.876   7.778 135.507  0.00  0.00    +0.000 HD
ATOM     30  H   UNL     1      -4.296   7.924 140.412  0.00  0.00    +0.000 HD
ENDROOT
BRANCH  14  31
ATOM     31  C   UNL     1      -5.057   3.048 133.046  0.00  0.00    +0.000 C 
ATOM     32  O   UNL     1      -3.953   2.818 132.531  0.00  0.00    +0.000 OA
ATOM     33  N   UNL     1      -6.224   2.306 132.622  0.00  0.00    +0.000 N 
BRANCH  33  34
ATOM     34  C   UNL     1      -7.705   2.537 132.927  0.00  0.00    +0.000 C 
BRANCH  34  35
ATOM     35  C   UNL     1      -8.363   3.906 133.045  0.00  0.00    +0.000 C 
ATOM     36  O   UNL     1      -8.620   4.371 134.149  0.00  0.00    +0.000 OA
ATOM     37  N   UNL     1      -8.604   4.633 131.888  0.00  0.00    +0.000 N 
ATOM     38  H   UNL     1      -8.561   4.252 130.954  0.00  0.00    +0.000 HD
BRANCH  37  39
ATOM     39  C   UNL     1      -8.248   6.034 131.925  0.00  0.00    +0.000 C 
BRANCH  39  40
ATOM     40  C   UNL     1      -8.842   6.963 130.760  0.00  0.00    +0.000 C 
ATOM     41  O   UNL     1      -8.077   7.754 130.210  0.00  0.00    +0.000 OA
ATOM     42  N   UNL     1     -10.229   6.986 130.473  0.00  0.00    +0.000 N 
ATOM     43  H   UNL     1     -10.902   6.338 130.836  0.00  0.00    +0.000 HD
BRANCH  42  44
ATOM     44  C   UNL     1     -10.789   7.697 129.324  0.00  0.00    +0.000 C 
BRANCH  44  45
ATOM     45  C   UNL     1     -10.461   7.313 127.838  0.00  0.00    +0.000 C 
ATOM     46  N   UNL     1     -11.002   7.993 126.810  0.00  0.00    +0.000 N 
ATOM     47  O   UNL     1      -9.793   6.327 127.539  0.00  0.00    +0.000 OA
ATOM     48  H   UNL     1     -11.815   8.557 126.911  0.00  0.00    +0.000 HD
ATOM     49  H   UNL     1     -10.627   7.942 125.866  0.00  0.00    +0.000 HD
ENDBRANCH  44  45
ENDBRANCH  42  44
ENDBRANCH  39  40
BRANCH  39  50
ATOM     50  C   UNL     1      -6.714   6.153 131.710  0.00  0.00    +0.000 C 
BRANCH  50  51
ATOM     51  C   UNL     1      -5.802   5.374 130.311  0.00  0.00    +0.000 C 
ATOM     52  C   UNL     1      -4.392   5.461 130.209  0.00  0.00    +0.000 C 
ATOM     53  C   UNL     1      -6.179   3.891 129.022  0.00  0.00    +0.000 C 
ENDBRANCH  50  51
ENDBRANCH  39  50
ENDBRANCH  37  39
ENDBRANCH  34  35
ENDBRANCH  33  34
BRANCH  33  54
ATOM     54  C   UNL     1      -5.937   1.295 131.545  0.00  0.00    +0.000 C 
BRANCH  54  55
ATOM     55  C   UNL     1      -6.138  -0.173 131.921  0.00  0.00    +0.000 A 
ATOM     56  C   UNL     1      -7.069  -0.947 131.209  0.00  0.00    +0.000 A 
ATOM     57  C   UNL     1      -7.039  -2.334 131.232  0.00  0.00    +0.000 A 
ATOM     58  C   UNL     1      -6.270  -2.956 132.194  0.00  0.00    +0.000 A 
ATOM     59  F   UNL     1      -6.315  -4.289 132.298  0.00  0.00    +0.000 F 
ATOM     60  C   UNL     1      -5.493  -2.207 133.073  0.00  0.00    +0.000 A 
ATOM     61  C   UNL     1      -5.398  -0.815 132.923  0.00  0.00    +0.000 A 
ENDBRANCH  54  55
ENDBRANCH  33  54
ENDBRANCH  14  31
BRANCH   1  62
ATOM     62  C   UNL     1      -7.984   8.879 138.478  0.00  0.00    +0.000 C 
ATOM     63  C   UNL     1      -9.630   8.520 138.576  0.00  0.00    +0.000 C 
BRANCH  62  65
ATOM     64  C   UNL     1      -9.728   9.118 137.031  0.00  0.00    +0.000 C 
ATOM     65  C   UNL     1      -8.437   9.699 137.417  0.00  0.00    +0.000 C 
ENDBRANCH  62  65
ENDBRANCH   1  62
BRANCH  18  66
ATOM     66  C   UNL     1      -3.668   7.040 136.981  0.00  0.00    +0.000 C 
BRANCH  66  67
ATOM     67  C   UNL     1      -2.959   5.966 137.849  0.00  0.00    +0.000 C 
ATOM     68  N   UNL     1      -2.648   4.720 137.412  0.00  0.00    +0.000 N 
ATOM     69  O   UNL     1      -3.020   6.074 139.054  0.00  0.00    +0.000 OA
ATOM     70  H   UNL     1      -3.023   4.346 136.565  0.00  0.00    +0.000 HD
ATOM     71  H   UNL     1      -2.753   3.971 138.079  0.00  0.00    +0.000 HD
ENDBRANCH  66  67
ENDBRANCH  18  66
BRANCH   5  72
ATOM     72  C   UNL     1      -2.662  11.003 135.339  0.00  0.00    +0.000 C 
BRANCH  72  73
ATOM     73  C   UNL     1      -2.088  12.175 134.117  0.00  0.00    +0.000 A 
ATOM     74  C   UNL     1      -2.247  11.700 132.887  0.00  0.00    +0.000 A 
ATOM     75  C   UNL     1      -1.244  12.052 131.868  0.00  0.00    +0.000 A 
ATOM     76  C   UNL     1      -0.067  12.750 131.809  0.00  0.00    +0.000 A 
ATOM     77  C   UNL     1       0.135  13.301 132.989  0.00  0.00    +0.000 A 
ATOM     78  C   UNL     1      -0.876  13.058 134.053  0.00  0.00    +0.000 A 
BRANCH  76  79
ATOM     79  O   UNL     1       0.973  12.505 130.953  0.00  0.00    +0.000 OA
ATOM     80  H   UNL     1       1.546  13.263 130.724  0.00  0.00    +0.000 HD
ENDBRANCH  76  79
ENDBRANCH  72  73
ENDBRANCH   5  72
BRANCH  22  81
ATOM     81  C   UNL     1      -6.944   6.416 139.376  0.00  0.00    +0.000 C 
BRANCH  81  82
ATOM     82  C   UNL     1      -6.820   5.849 140.881  0.00  0.00    +0.000 C 
BRANCH  82  83
ATOM     83  C   UNL     1      -6.986   4.394 140.986  0.00  0.00    +0.000 C 
ATOM     84  N   UNL     1      -5.978   3.690 140.437  0.00  0.00    +0.000 N 
ATOM     85  O   UNL     1      -7.993   3.884 141.457  0.00  0.00    +0.000 OA
ATOM     86  H   UNL     1      -5.234   4.108 139.897  0.00  0.00    +0.000 HD
ATOM     87  H   UNL     1      -5.989   2.700 140.582  0.00  0.00    +0.000 HD
ENDBRANCH  82  83
ENDBRANCH  81  82
ENDBRANCH  22  81
TORSDOF 21
ENDMDL
MODEL 9
REMARK VINA RESULT:      -9.0      5.473     10.563
REMARK  Name = CHEMBL3354594
REMARK  25 active torsions:
REMARK  status: ('A' for Active; 'I' for Inactive)
REMARK    1  A    between atoms: C_1  and  C_2
REMARK    2  A    between atoms: C_2  and  C_3
REMARK    3  A    between atoms: C_3  and  C_4
REMARK    4  A    between atoms: C_3  and  C_5
REMARK    5  A    between atoms: C_9  and  C_10
REMARK    6  A    between atoms: C_10  and  C_11
REMARK    7  A    between atoms: C_14  and  O_15
REMARK    8  A    between atoms: C_26  and  C_27
REMARK    9  A    between atoms: N_29  and  C_30
REMARK   10  A    between atoms: N_29  and  C_46
REMARK   11  A    between atoms: C_30  and  C_31
REMARK   12  A    between atoms: N_33  and  C_34
REMARK   13  A    between atoms: C_34  and  C_35
REMARK   14  A    between atoms: C_34  and  C_39
REMARK   15  A    between atoms: C_35  and  C_36
REMARK   16  A    between atoms: C_36  and  C_37
REMARK   17  A    between atoms: C_36  and  C_38
REMARK   18  A    between atoms: N_41  and  C_42
REMARK   19  A    between atoms: C_42  and  C_43
REMARK   20  A    between atoms: C_46  and  C_47
REMARK   21  A    between atoms: C_57  and  C_58
REMARK   22  A    between atoms: C_58  and  C_59
REMARK   23  A    between atoms: C_65  and  C_66
REMARK   24  A    between atoms: C_66  and  C_67
REMARK   25  A    between atoms: C_67  and  C_68
REMARK                            x       y       z     vdW  Elec       q    Type
REMARK                         _______ _______ _______ _____ _____    ______ ____
ROOT
ATOM      1  C   UNL     1      -5.227   5.733 142.127  0.00  0.00    +0.000 C 
ATOM      2  N   UNL     1      -4.181   7.198 141.441  0.00  0.00    +0.000 N 
ATOM      3  C   UNL     1      -3.671   8.445 140.925  0.00  0.00    +0.000 C 
ATOM      4  O   UNL     1      -2.445   8.349 140.578  0.00  0.00    +0.000 OA
ATOM      5  C   UNL     1      -4.508   9.978 140.472  0.00  0.00    +0.000 C 
ATOM      6  N   UNL     1      -3.482  11.268 140.056  0.00  0.00    +0.000 N 
ATOM      7  C   UNL     1      -2.850  11.897 138.979  0.00  0.00    +0.000 C 
ATOM      8  O   UNL     1      -2.399  13.034 139.236  0.00  0.00    +0.000 OA
ATOM      9  C   UNL     1      -2.588  11.522 137.481  0.00  0.00    +0.000 C 
ATOM     10  C   UNL     1      -3.085  10.226 137.082  0.00  0.00    +0.000 C 
ATOM     11  C   UNL     1      -2.934   9.609 135.783  0.00  0.00    +0.000 C 
ATOM     12  S   UNL     1      -4.064   7.637 136.143  0.00  0.00    +0.000 S 
ATOM     13  C   UNL     1      -4.095   5.985 134.690  0.00  0.00    +0.000 C 
ATOM     14  C   UNL     1      -5.021   4.804 134.686  0.00  0.00    +0.000 C 
ATOM     15  N   UNL     1      -4.406   3.895 135.626  0.00  0.00    +0.000 N 
ATOM     16  C   UNL     1      -4.007   4.278 136.878  0.00  0.00    +0.000 C 
ATOM     17  O   UNL     1      -3.348   3.512 137.566  0.00  0.00    +0.000 OA
ATOM     18  C   UNL     1      -4.566   5.549 137.443  0.00  0.00    +0.000 C 
ATOM     19  N   UNL     1      -5.540   5.151 138.304  0.00  0.00    +0.000 N 
ATOM     20  C   UNL     1      -4.939   5.415 139.506  0.00  0.00    +0.000 C 
ATOM     21  O   UNL     1      -5.337   6.392 139.864  0.00  0.00    +0.000 OA
ATOM     22  C   UNL     1      -3.689   4.594 140.162  0.00  0.00    +0.000 C 
ATOM     23  N   UNL     1      -3.075   5.088 141.415  0.00  0.00    +0.000 N 
ATOM     24  C   UNL     1      -3.833   5.405 142.534  0.00  0.00    +0.000 C 
ATOM     25  O   UNL     1      -3.345   5.872 143.564  0.00  0.00    +0.000 OA
ATOM     26  H   UNL     1      -3.344   6.780 141.018  0.00  0.00    +0.000 HD
ATOM     27  H   UNL     1      -3.438  11.927 140.825  0.00  0.00    +0.000 HD
ATOM     28  H   UNL     1      -3.879   3.121 135.251  0.00  0.00    +0.000 HD
ATOM     29  H   UNL     1      -6.236   5.903 138.170  0.00  0.00    +0.000 HD
ATOM     30  H   UNL     1      -2.244   5.674 141.424  0.00  0.00    +0.000 HD
ENDROOT
BRANCH  14  31
ATOM     31  C   UNL     1      -5.072   4.419 133.116  0.00  0.00    +0.000 C 
ATOM     32  O   UNL     1      -4.268   3.552 132.742  0.00  0.00    +0.000 OA
ATOM     33  N   UNL     1      -5.906   5.101 132.149  0.00  0.00    +0.000 N 
BRANCH  33  34
ATOM     34  C   UNL     1      -6.798   6.332 132.309  0.00  0.00    +0.000 C 
BRANCH  34  35
ATOM     35  C   UNL     1      -7.896   6.740 131.334  0.00  0.00    +0.000 C 
ATOM     36  O   UNL     1      -7.609   7.332 130.299  0.00  0.00    +0.000 OA
ATOM     37  N   UNL     1      -9.205   6.375 131.610  0.00  0.00    +0.000 N 
ATOM     38  H   UNL     1      -9.526   6.029 132.503  0.00  0.00    +0.000 HD
BRANCH  37  39
ATOM     39  C   UNL     1      -9.965   5.831 130.507  0.00  0.00    +0.000 C 
BRANCH  39  40
ATOM     40  C   UNL     1      -9.155   4.962 129.429  0.00  0.00    +0.000 C 
ATOM     41  O   UNL     1      -8.958   5.461 128.321  0.00  0.00    +0.000 OA
ATOM     42  N   UNL     1      -8.810   3.612 129.681  0.00  0.00    +0.000 N 
ATOM     43  H   UNL     1      -8.887   3.155 130.570  0.00  0.00    +0.000 HD
BRANCH  42  44
ATOM     44  C   UNL     1      -7.943   2.836 128.795  0.00  0.00    +0.000 C 
BRANCH  44  45
ATOM     45  C   UNL     1      -8.410   1.516 128.083  0.00  0.00    +0.000 C 
ATOM     46  N   UNL     1      -7.924   0.318 128.456  0.00  0.00    +0.000 N 
ATOM     47  O   UNL     1      -9.144   1.518 127.098  0.00  0.00    +0.000 OA
ATOM     48  H   UNL     1      -7.082   0.220 128.974  0.00  0.00    +0.000 HD
ATOM     49  H   UNL     1      -8.377  -0.556 128.201  0.00  0.00    +0.000 HD
ENDBRANCH  44  45
ENDBRANCH  42  44
ENDBRANCH  39  40
BRANCH  39  50
ATOM     50  C   UNL     1     -10.506   7.014 129.658  0.00  0.00    +0.000 C 
BRANCH  50  51
ATOM     51  C   UNL     1     -12.116   7.855 129.962  0.00  0.00    +0.000 C 
ATOM     52  C   UNL     1     -12.867   7.612 131.139  0.00  0.00    +0.000 C 
ATOM     53  C   UNL     1     -12.987   9.533 129.305  0.00  0.00    +0.000 C 
ENDBRANCH  50  51
ENDBRANCH  39  50
ENDBRANCH  37  39
ENDBRANCH  34  35
ENDBRANCH  33  34
BRANCH  33  54
ATOM     54  C   UNL     1      -5.678   4.647 130.732  0.00  0.00    +0.000 C 
BRANCH  54  55
ATOM     55  C   UNL     1      -4.500   5.286 129.996  0.00  0.00    +0.000 A 
ATOM     56  C   UNL     1      -4.244   4.928 128.661  0.00  0.00    +0.000 A 
ATOM     57  C   UNL     1      -3.459   5.716 127.831  0.00  0.00    +0.000 A 
ATOM     58  C   UNL     1      -2.686   6.704 128.403  0.00  0.00    +0.000 A 
ATOM     59  F   UNL     1      -1.843   7.398 127.631  0.00  0.00    +0.000 F 
ATOM     60  C   UNL     1      -2.747   6.947 129.773  0.00  0.00    +0.000 A 
ATOM     61  C   UNL     1      -3.675   6.261 130.572  0.00  0.00    +0.000 A 
ENDBRANCH  54  55
ENDBRANCH  33  54
ENDBRANCH  14  31
BRANCH   1  62
ATOM     62  C   UNL     1      -6.215   4.101 141.522  0.00  0.00    +0.000 C 
ATOM     63  C   UNL     1      -6.927   2.585 141.726  0.00  0.00    +0.000 C 
BRANCH  62  65
ATOM     64  C   UNL     1      -8.323   3.272 141.769  0.00  0.00    +0.000 C 
ATOM     65  C   UNL     1      -7.565   4.518 141.604  0.00  0.00    +0.000 C 
ENDBRANCH  62  65
ENDBRANCH   1  62
BRANCH  18  66
ATOM     66  C   UNL     1      -3.584   6.649 138.231  0.00  0.00    +0.000 C 
BRANCH  66  67
ATOM     67  C   UNL     1      -2.102   6.344 137.883  0.00  0.00    +0.000 C 
ATOM     68  N   UNL     1      -1.390   5.322 138.419  0.00  0.00    +0.000 N 
ATOM     69  O   UNL     1      -1.426   7.241 137.426  0.00  0.00    +0.000 OA
ATOM     70  H   UNL     1      -1.711   4.811 139.215  0.00  0.00    +0.000 HD
ATOM     71  H   UNL     1      -0.420   5.509 138.622  0.00  0.00    +0.000 HD
ENDBRANCH  66  67
ENDBRANCH  18  66
BRANCH   5  72
ATOM     72  C   UNL     1      -5.806  10.268 139.402  0.00  0.00    +0.000 C 
BRANCH  72  73
ATOM     73  C   UNL     1      -7.336   9.364 139.214  0.00  0.00    +0.000 A 
ATOM     74  C   UNL     1      -7.253   8.484 138.221  0.00  0.00    +0.000 A 
ATOM     75  C   UNL     1      -8.458   8.223 137.417  0.00  0.00    +0.000 A 
ATOM     76  C   UNL     1      -9.746   8.685 137.349  0.00  0.00    +0.000 A 
ATOM     77  C   UNL     1      -9.925   9.530 138.344  0.00  0.00    +0.000 A 
ATOM     78  C   UNL     1      -8.776   9.789 139.252  0.00  0.00    +0.000 A 
BRANCH  76  79
ATOM     79  O   UNL     1     -10.525   8.738 136.224  0.00  0.00    +0.000 OA
ATOM     80  H   UNL     1     -10.948   9.594 136.018  0.00  0.00    +0.000 HD
ENDBRANCH  76  79
ENDBRANCH  72  73
ENDBRANCH   5  72
BRANCH  22  81
ATOM     81  C   UNL     1      -3.862   3.123 140.315  0.00  0.00    +0.000 C 
BRANCH  81  82
ATOM     82  C   UNL     1      -2.514   2.391 140.815  0.00  0.00    +0.000 C 
BRANCH  82  83
ATOM     83  C   UNL     1      -2.046   1.325 139.920  0.00  0.00    +0.000 C 
ATOM     84  N   UNL     1      -1.376   1.774 138.842  0.00  0.00    +0.000 N 
ATOM     85  O   UNL     1      -2.320   0.148 140.109  0.00  0.00    +0.000 OA
ATOM     86  H   UNL     1      -1.300   2.751 138.598  0.00  0.00    +0.000 HD
ATOM     87  H   UNL     1      -0.941   1.084 138.263  0.00  0.00    +0.000 HD
ENDBRANCH  82  83
ENDBRANCH  81  82
ENDBRANCH  22  81
TORSDOF 21
ENDMDL
