MODEL 1
REMARK VINA RESULT:      -8.6      0.000      0.000
REMARK  Name = CHEMBL2113181
REMARK  13 active torsions:
REMARK  status: ('A' for Active; 'I' for Inactive)
REMARK    1  A    between atoms: C_2  and  C_3
REMARK    2  A    between atoms: C_3  and  C_4
REMARK    3  A    between atoms: C_4  and  C_5
REMARK    4  A    between atoms: C_8  and  S_9
REMARK    5  A    between atoms: S_9  and  N_12
REMARK    6  A    between atoms: N_12  and  C_13
REMARK    7  A    between atoms: N_12  and  C_28
REMARK    8  A    between atoms: C_13  and  C_14
REMARK    9  A    between atoms: N_16  and  N_17
REMARK   10  A    between atoms: N_37  and  C_38
REMARK   11  A    between atoms: C_38  and  C_39
REMARK   12  A    between atoms: C_39  and  C_40
REMARK   13  A    between atoms: C_40  and  O_41
REMARK                            x       y       z     vdW  Elec       q    Type
REMARK                         _______ _______ _______ _____ _____    ______ ____
ROOT
ATOM      1  N   UNL     1      -9.974   5.119 131.474  0.00  0.00    +0.000 N 
ENDROOT
BRANCH   1   2
ATOM      2  C   UNL     1     -10.721   6.301 130.908  0.00  0.00    +0.000 A 
ATOM      3  C   UNL     1     -12.013   6.604 131.384  0.00  0.00    +0.000 A 
ATOM      4  C   UNL     1     -12.804   7.631 130.819  0.00  0.00    +0.000 A 
ATOM      5  C   UNL     1     -12.290   8.428 129.803  0.00  0.00    +0.000 A 
ATOM      6 CL   UNL     1     -13.185   9.782 129.224  0.00  0.00    +0.000 Cl
ATOM      7  C   UNL     1     -11.034   8.140 129.285  0.00  0.00    +0.000 A 
ATOM      8  C   UNL     1     -10.274   7.069 129.815  0.00  0.00    +0.000 A 
ENDBRANCH   1   2
BRANCH   1   9
ATOM      9  S   UNL     1      -8.877   5.488 132.811  0.00  0.00    +0.000 S 
ATOM     10  O   UNL     1      -8.610   4.213 133.456  0.00  0.00    +0.000 OA
ATOM     11  O   UNL     1      -9.486   6.544 133.602  0.00  0.00    +0.000 OA
BRANCH   9  15
ATOM     12  C   UNL     1      -4.660   6.285 131.218  0.00  0.00    +0.000 A 
ATOM     13  C   UNL     1      -5.731   6.960 130.616  0.00  0.00    +0.000 A 
ATOM     14  C   UNL     1      -7.032   6.827 131.162  0.00  0.00    +0.000 A 
ATOM     15  C   UNL     1      -7.225   6.123 132.370  0.00  0.00    +0.000 A 
ATOM     16  C   UNL     1      -6.097   5.746 133.063  0.00  0.00    +0.000 A 
ATOM     17  C   UNL     1      -4.905   5.579 132.376  0.00  0.00    +0.000 A 
BRANCH  12  18
ATOM     18  C   UNL     1      -3.194   6.396 130.900  0.00  0.00    +0.000 C 
BRANCH  18  19
ATOM     19  C   UNL     1      -2.799   5.257 129.995  0.00  0.00    +0.000 C 
BRANCH  19  21
ATOM     20  O   UNL     1      -1.991   6.843 128.360  0.00  0.00    +0.000 OA
ATOM     21  C   UNL     1      -2.524   5.762 128.607  0.00  0.00    +0.000 C 
ATOM     22  N   UNL     1      -2.914   4.942 127.591  0.00  0.00    +0.000 N 
ATOM     23  H   UNL     1      -2.680   5.289 126.669  0.00  0.00    +0.000 HD
BRANCH  22  24
ATOM     24  C   UNL     1      -3.580   3.669 127.758  0.00  0.00    +0.000 C 
BRANCH  24  25
ATOM     25  C   UNL     1      -4.430   3.323 126.556  0.00  0.00    +0.000 C 
BRANCH  25  26
ATOM     26  C   UNL     1      -5.787   3.997 126.657  0.00  0.00    +0.000 C 
BRANCH  26  27
ATOM     27  O   UNL     1      -5.924   4.611 127.929  0.00  0.00    +0.000 OA
ATOM     28  H   UNL     1      -5.344   5.392 127.945  0.00  0.00    +0.000 HD
ENDBRANCH  26  27
ENDBRANCH  25  26
ENDBRANCH  24  25
ENDBRANCH  22  24
ENDBRANCH  19  21
ENDBRANCH  18  19
ENDBRANCH  12  18
ENDBRANCH   9  15
ENDBRANCH   1   9
BRANCH   1  29
ATOM     29  C   UNL     1      -9.923   3.895 130.548  0.00  0.00    +0.000 C 
BRANCH  29  30
ATOM     30  C   UNL     1      -8.730   3.579 129.598  0.00  0.00    +0.000 C 
ATOM     31  O   UNL     1      -8.788   4.053 128.461  0.00  0.00    +0.000 OA
ATOM     32  N   UNL     1      -7.639   2.775 130.104  0.00  0.00    +0.000 N 
ATOM     33  H   UNL     1      -7.719   2.419 131.058  0.00  0.00    +0.000 HD
BRANCH  32  34
ATOM     34  N   UNL     1      -6.731   1.824 129.307  0.00  0.00    +0.000 NA
ATOM     35  C   UNL     1      -7.101   0.543 129.393  0.00  0.00    +0.000 C 
ATOM     36  C   UNL     1      -7.697   0.041 130.672  0.00  0.00    +0.000 C 
ATOM     37  O   UNL     1      -8.813   0.437 130.864  0.00  0.00    +0.000 OA
ATOM     38  N   UNL     1      -7.172  -1.251 130.859  0.00  0.00    +0.000 N 
ATOM     39  C   UNL     1      -7.311  -1.824 129.587  0.00  0.00    +0.000 A 
ATOM     40  C   UNL     1      -7.721  -3.170 129.539  0.00  0.00    +0.000 A 
ATOM     41  C   UNL     1      -8.236  -3.684 128.375  0.00  0.00    +0.000 A 
ATOM     42  C   UNL     1      -8.367  -2.783 127.314  0.00  0.00    +0.000 A 
ATOM     43  C   UNL     1      -7.900  -1.377 127.385  0.00  0.00    +0.000 A 
ATOM     44  C   UNL     1      -7.290  -0.854 128.558  0.00  0.00    +0.000 A 
ATOM     45  H   UNL     1      -6.168  -1.296 131.035  0.00  0.00    +0.000 HD
ENDBRANCH  32  34
ENDBRANCH  29  30
ENDBRANCH   1  29
TORSDOF 13
ENDMDL
MODEL 2
REMARK VINA RESULT:      -8.6      1.967      2.211
REMARK  Name = CHEMBL2113181
REMARK  13 active torsions:
REMARK  status: ('A' for Active; 'I' for Inactive)
REMARK    1  A    between atoms: C_2  and  C_3
REMARK    2  A    between atoms: C_3  and  C_4
REMARK    3  A    between atoms: C_4  and  C_5
REMARK    4  A    between atoms: C_8  and  S_9
REMARK    5  A    between atoms: S_9  and  N_12
REMARK    6  A    between atoms: N_12  and  C_13
REMARK    7  A    between atoms: N_12  and  C_28
REMARK    8  A    between atoms: C_13  and  C_14
REMARK    9  A    between atoms: N_16  and  N_17
REMARK   10  A    between atoms: N_37  and  C_38
REMARK   11  A    between atoms: C_38  and  C_39
REMARK   12  A    between atoms: C_39  and  C_40
REMARK   13  A    between atoms: C_40  and  O_41
REMARK                            x       y       z     vdW  Elec       q    Type
REMARK                         _______ _______ _______ _____ _____    ______ ____
ROOT
ATOM      1  N   UNL     1      -9.650   4.987 130.982  0.00  0.00    +0.000 N 
ENDROOT
BRANCH   1   2
ATOM      2  C   UNL     1     -10.473   6.133 130.446  0.00  0.00    +0.000 A 
ATOM      3  C   UNL     1     -11.845   6.213 130.761  0.00  0.00    +0.000 A 
ATOM      4  C   UNL     1     -12.690   7.201 130.203  0.00  0.00    +0.000 A 
ATOM      5  C   UNL     1     -12.164   8.177 129.365  0.00  0.00    +0.000 A 
ATOM      6 CL   UNL     1     -13.154   9.475 128.813  0.00  0.00    +0.000 Cl
ATOM      7  C   UNL     1     -10.824   8.111 129.004  0.00  0.00    +0.000 A 
ATOM      8  C   UNL     1      -9.999   7.081 129.519  0.00  0.00    +0.000 A 
ENDBRANCH   1   2
BRANCH   1   9
ATOM      9  S   UNL     1      -8.693   5.353 132.424  0.00  0.00    +0.000 S 
ATOM     10  O   UNL     1      -8.454   4.071 133.065  0.00  0.00    +0.000 OA
ATOM     11  O   UNL     1      -9.402   6.376 133.174  0.00  0.00    +0.000 OA
BRANCH   9  15
ATOM     12  C   UNL     1      -4.453   6.426 131.073  0.00  0.00    +0.000 A 
ATOM     13  C   UNL     1      -5.506   7.258 130.665  0.00  0.00    +0.000 A 
ATOM     14  C   UNL     1      -6.811   7.022 131.164  0.00  0.00    +0.000 A 
ATOM     15  C   UNL     1      -7.026   6.039 132.154  0.00  0.00    +0.000 A 
ATOM     16  C   UNL     1      -5.910   5.472 132.725  0.00  0.00    +0.000 A 
ATOM     17  C   UNL     1      -4.719   5.456 132.015  0.00  0.00    +0.000 A 
BRANCH  12  18
ATOM     18  C   UNL     1      -2.984   6.580 130.789  0.00  0.00    +0.000 C 
BRANCH  18  19
ATOM     19  C   UNL     1      -2.548   5.485 129.848  0.00  0.00    +0.000 C 
BRANCH  19  21
ATOM     20  O   UNL     1      -2.285   7.229 128.196  0.00  0.00    +0.000 OA
ATOM     21  C   UNL     1      -2.361   6.030 128.462  0.00  0.00    +0.000 C 
ATOM     22  N   UNL     1      -2.284   5.102 127.467  0.00  0.00    +0.000 N 
ATOM     23  H   UNL     1      -2.118   5.496 126.548  0.00  0.00    +0.000 HD
BRANCH  22  24
ATOM     24  C   UNL     1      -2.396   3.672 127.652  0.00  0.00    +0.000 C 
BRANCH  24  25
ATOM     25  C   UNL     1      -3.245   3.035 126.575  0.00  0.00    +0.000 C 
BRANCH  25  26
ATOM     26  C   UNL     1      -4.342   3.989 126.134  0.00  0.00    +0.000 C 
BRANCH  26  27
ATOM     27  O   UNL     1      -5.203   4.264 127.227  0.00  0.00    +0.000 OA
ATOM     28  H   UNL     1      -4.650   4.388 128.018  0.00  0.00    +0.000 HD
ENDBRANCH  26  27
ENDBRANCH  25  26
ENDBRANCH  24  25
ENDBRANCH  22  24
ENDBRANCH  19  21
ENDBRANCH  18  19
ENDBRANCH  12  18
ENDBRANCH   9  15
ENDBRANCH   1   9
BRANCH   1  29
ATOM     29  C   UNL     1      -9.408   3.852 129.977  0.00  0.00    +0.000 C 
BRANCH  29  30
ATOM     30  C   UNL     1      -8.257   3.858 128.926  0.00  0.00    +0.000 C 
ATOM     31  O   UNL     1      -7.536   4.858 128.902  0.00  0.00    +0.000 OA
ATOM     32  N   UNL     1      -8.100   2.703 128.070  0.00  0.00    +0.000 N 
ATOM     33  H   UNL     1      -8.778   1.946 128.169  0.00  0.00    +0.000 HD
BRANCH  32  34
ATOM     34  N   UNL     1      -7.548   2.673 126.635  0.00  0.00    +0.000 NA
ATOM     35  C   UNL     1      -7.036   1.488 126.290  0.00  0.00    +0.000 C 
ATOM     36  C   UNL     1      -6.341   0.664 127.330  0.00  0.00    +0.000 C 
ATOM     37  O   UNL     1      -7.090   0.174 128.127  0.00  0.00    +0.000 OA
ATOM     38  N   UNL     1      -5.233   0.085 126.683  0.00  0.00    +0.000 N 
ATOM     39  C   UNL     1      -5.788  -0.377 125.481  0.00  0.00    +0.000 A 
ATOM     40  C   UNL     1      -5.347  -1.631 125.018  0.00  0.00    +0.000 A 
ATOM     41  C   UNL     1      -6.090  -2.313 124.087  0.00  0.00    +0.000 A 
ATOM     42  C   UNL     1      -7.292  -1.711 123.702  0.00  0.00    +0.000 A 
ATOM     43  C   UNL     1      -7.717  -0.375 124.186  0.00  0.00    +0.000 A 
ATOM     44  C   UNL     1      -6.918   0.379 125.089  0.00  0.00    +0.000 A 
ATOM     45  H   UNL     1      -4.510   0.737 126.379  0.00  0.00    +0.000 HD
ENDBRANCH  32  34
ENDBRANCH  29  30
ENDBRANCH   1  29
TORSDOF 13
ENDMDL
MODEL 3
REMARK VINA RESULT:      -8.6      4.119      9.217
REMARK  Name = CHEMBL2113181
REMARK  13 active torsions:
REMARK  status: ('A' for Active; 'I' for Inactive)
REMARK    1  A    between atoms: C_2  and  C_3
REMARK    2  A    between atoms: C_3  and  C_4
REMARK    3  A    between atoms: C_4  and  C_5
REMARK    4  A    between atoms: C_8  and  S_9
REMARK    5  A    between atoms: S_9  and  N_12
REMARK    6  A    between atoms: N_12  and  C_13
REMARK    7  A    between atoms: N_12  and  C_28
REMARK    8  A    between atoms: C_13  and  C_14
REMARK    9  A    between atoms: N_16  and  N_17
REMARK   10  A    between atoms: N_37  and  C_38
REMARK   11  A    between atoms: C_38  and  C_39
REMARK   12  A    between atoms: C_39  and  C_40
REMARK   13  A    between atoms: C_40  and  O_41
REMARK                            x       y       z     vdW  Elec       q    Type
REMARK                         _______ _______ _______ _____ _____    ______ ____
ROOT
ATOM      1  N   UNL     1      -6.514   1.427 130.667  0.00  0.00    +0.000 N 
ENDROOT
BRANCH   1   2
ATOM      2  C   UNL     1      -5.328   2.179 131.216  0.00  0.00    +0.000 A 
ATOM      3  C   UNL     1      -4.696   3.160 130.424  0.00  0.00    +0.000 A 
ATOM      4  C   UNL     1      -3.516   3.821 130.841  0.00  0.00    +0.000 A 
ATOM      5  C   UNL     1      -2.977   3.562 132.095  0.00  0.00    +0.000 A 
ATOM      6 CL   UNL     1      -1.638   4.480 132.672  0.00  0.00    +0.000 Cl
ATOM      7  C   UNL     1      -3.552   2.579 132.890  0.00  0.00    +0.000 A 
ATOM      8  C   UNL     1      -4.696   1.877 132.439  0.00  0.00    +0.000 A 
ENDBRANCH   1   2
BRANCH   1   9
ATOM      9  S   UNL     1      -6.261  -0.306 130.418  0.00  0.00    +0.000 S 
ATOM     10  O   UNL     1      -6.494  -0.921 131.714  0.00  0.00    +0.000 OA
ATOM     11  O   UNL     1      -4.955  -0.476 129.801  0.00  0.00    +0.000 OA
BRANCH   9  15
ATOM     12  C   UNL     1      -8.407  -2.859 127.283  0.00  0.00    +0.000 A 
ATOM     13  C   UNL     1      -8.474  -3.266 128.624  0.00  0.00    +0.000 A 
ATOM     14  C   UNL     1      -7.923  -2.435 129.630  0.00  0.00    +0.000 A 
ATOM     15  C   UNL     1      -7.423  -1.156 129.300  0.00  0.00    +0.000 A 
ATOM     16  C   UNL     1      -7.663  -0.701 128.024  0.00  0.00    +0.000 A 
ATOM     17  C   UNL     1      -7.876  -1.618 127.007  0.00  0.00    +0.000 A 
BRANCH  12  18
ATOM     18  C   UNL     1      -9.046  -3.504 126.084  0.00  0.00    +0.000 C 
BRANCH  18  19
ATOM     19  C   UNL     1      -7.975  -3.838 125.076  0.00  0.00    +0.000 C 
BRANCH  19  21
ATOM     20  O   UNL     1      -9.191  -2.842 123.240  0.00  0.00    +0.000 OA
ATOM     21  C   UNL     1      -8.131  -2.989 123.847  0.00  0.00    +0.000 C 
ATOM     22  N   UNL     1      -6.999  -2.371 123.408  0.00  0.00    +0.000 N 
ATOM     23  H   UNL     1      -7.141  -1.774 122.602  0.00  0.00    +0.000 HD
BRANCH  22  24
ATOM     24  C   UNL     1      -5.692  -2.498 124.015  0.00  0.00    +0.000 C 
BRANCH  24  25
ATOM     25  C   UNL     1      -4.756  -3.318 123.156  0.00  0.00    +0.000 C 
BRANCH  25  26
ATOM     26  C   UNL     1      -4.364  -4.598 123.875  0.00  0.00    +0.000 C 
BRANCH  26  27
ATOM     27  O   UNL     1      -4.097  -5.617 122.926  0.00  0.00    +0.000 OA
ATOM     28  H   UNL     1      -4.874  -6.201 122.889  0.00  0.00    +0.000 HD
ENDBRANCH  26  27
ENDBRANCH  25  26
ENDBRANCH  24  25
ENDBRANCH  22  24
ENDBRANCH  19  21
ENDBRANCH  18  19
ENDBRANCH  12  18
ENDBRANCH   9  15
ENDBRANCH   1   9
BRANCH   1  29
ATOM     29  C   UNL     1      -7.574   2.310 129.995  0.00  0.00    +0.000 C 
BRANCH  29  30
ATOM     30  C   UNL     1      -9.002   2.542 130.575  0.00  0.00    +0.000 C 
ATOM     31  O   UNL     1      -9.464   1.642 131.281  0.00  0.00    +0.000 OA
ATOM     32  N   UNL     1      -9.679   3.782 130.266  0.00  0.00    +0.000 N 
ATOM     33  H   UNL     1      -9.201   4.439 129.648  0.00  0.00    +0.000 HD
BRANCH  32  34
ATOM     34  N   UNL     1     -11.193   4.013 130.138  0.00  0.00    +0.000 NA
ATOM     35  C   UNL     1     -11.532   5.305 130.119  0.00  0.00    +0.000 C 
ATOM     36  C   UNL     1     -10.737   6.279 130.934  0.00  0.00    +0.000 C 
ATOM     37  O   UNL     1      -9.647   6.497 130.484  0.00  0.00    +0.000 OA
ATOM     38  N   UNL     1     -11.672   7.184 131.469  0.00  0.00    +0.000 N 
ATOM     39  C   UNL     1     -12.479   7.480 130.362  0.00  0.00    +0.000 A 
ATOM     40  C   UNL     1     -12.886   8.819 130.213  0.00  0.00    +0.000 A 
ATOM     41  C   UNL     1     -13.342   9.262 128.996  0.00  0.00    +0.000 A 
ATOM     42  C   UNL     1     -13.311   8.330 127.955  0.00  0.00    +0.000 A 
ATOM     43  C   UNL     1     -12.903   6.917 128.148  0.00  0.00    +0.000 A 
ATOM     44  C   UNL     1     -12.506   6.424 129.422  0.00  0.00    +0.000 A 
ATOM     45  H   UNL     1     -12.327   6.792 132.146  0.00  0.00    +0.000 HD
ENDBRANCH  32  34
ENDBRANCH  29  30
ENDBRANCH   1  29
TORSDOF 13
ENDMDL
MODEL 4
REMARK VINA RESULT:      -8.3      4.107      8.045
REMARK  Name = CHEMBL2113181
REMARK  13 active torsions:
REMARK  status: ('A' for Active; 'I' for Inactive)
REMARK    1  A    between atoms: C_2  and  C_3
REMARK    2  A    between atoms: C_3  and  C_4
REMARK    3  A    between atoms: C_4  and  C_5
REMARK    4  A    between atoms: C_8  and  S_9
REMARK    5  A    between atoms: S_9  and  N_12
REMARK    6  A    between atoms: N_12  and  C_13
REMARK    7  A    between atoms: N_12  and  C_28
REMARK    8  A    between atoms: C_13  and  C_14
REMARK    9  A    between atoms: N_16  and  N_17
REMARK   10  A    between atoms: N_37  and  C_38
REMARK   11  A    between atoms: C_38  and  C_39
REMARK   12  A    between atoms: C_39  and  C_40
REMARK   13  A    between atoms: C_40  and  O_41
REMARK                            x       y       z     vdW  Elec       q    Type
REMARK                         _______ _______ _______ _____ _____    ______ ____
ROOT
ATOM      1  N   UNL     1      -3.700   5.588 131.350  0.00  0.00    +0.000 N 
ENDROOT
BRANCH   1   2
ATOM      2  C   UNL     1      -2.664   6.425 132.058  0.00  0.00    +0.000 A 
ATOM      3  C   UNL     1      -2.989   7.732 132.474  0.00  0.00    +0.000 A 
ATOM      4  C   UNL     1      -2.031   8.602 133.045  0.00  0.00    +0.000 A 
ATOM      5  C   UNL     1      -0.734   8.158 133.274  0.00  0.00    +0.000 A 
ATOM      6 CL   UNL     1       0.391   9.157 134.116  0.00  0.00    +0.000 Cl
ATOM      7  C   UNL     1      -0.367   6.888 132.847  0.00  0.00    +0.000 A 
ATOM      8  C   UNL     1      -1.317   6.046 132.220  0.00  0.00    +0.000 A 
ENDBRANCH   1   2
BRANCH   1   9
ATOM      9  S   UNL     1      -4.066   6.082 129.691  0.00  0.00    +0.000 S 
ATOM     10  O   UNL     1      -2.879   6.778 129.224  0.00  0.00    +0.000 OA
ATOM     11  O   UNL     1      -5.325   6.808 129.716  0.00  0.00    +0.000 OA
BRANCH   9  15
ATOM     12  C   UNL     1      -5.115   3.408 126.127  0.00  0.00    +0.000 A 
ATOM     13  C   UNL     1      -3.792   3.855 126.249  0.00  0.00    +0.000 A 
ATOM     14  C   UNL     1      -3.408   4.584 127.402  0.00  0.00    +0.000 A 
ATOM     15  C   UNL     1      -4.315   4.750 128.471  0.00  0.00    +0.000 A 
ATOM     16  C   UNL     1      -5.488   4.032 128.415  0.00  0.00    +0.000 A 
ATOM     17  C   UNL     1      -5.975   3.626 127.182  0.00  0.00    +0.000 A 
BRANCH  12  18
ATOM     18  C   UNL     1      -5.697   2.506 125.074  0.00  0.00    +0.000 C 
BRANCH  18  19
ATOM     19  C   UNL     1      -6.416   3.347 124.048  0.00  0.00    +0.000 C 
BRANCH  19  21
ATOM     20  O   UNL     1      -7.632   1.445 123.186  0.00  0.00    +0.000 OA
ATOM     21  C   UNL     1      -6.996   2.476 122.971  0.00  0.00    +0.000 C 
ATOM     22  N   UNL     1      -6.769   2.887 121.692  0.00  0.00    +0.000 N 
ATOM     23  H   UNL     1      -7.206   2.303 120.988  0.00  0.00    +0.000 HD
BRANCH  22  24
ATOM     24  C   UNL     1      -6.007   4.057 121.317  0.00  0.00    +0.000 C 
BRANCH  24  25
ATOM     25  C   UNL     1      -6.274   4.460 119.885  0.00  0.00    +0.000 C 
BRANCH  25  26
ATOM     26  C   UNL     1      -5.362   5.606 119.479  0.00  0.00    +0.000 C 
BRANCH  26  27
ATOM     27  O   UNL     1      -4.607   6.036 120.601  0.00  0.00    +0.000 OA
ATOM     28  H   UNL     1      -4.305   6.944 120.426  0.00  0.00    +0.000 HD
ENDBRANCH  26  27
ENDBRANCH  25  26
ENDBRANCH  24  25
ENDBRANCH  22  24
ENDBRANCH  19  21
ENDBRANCH  18  19
ENDBRANCH  12  18
ENDBRANCH   9  15
ENDBRANCH   1   9
BRANCH   1  29
ATOM     29  C   UNL     1      -4.588   4.751 132.281  0.00  0.00    +0.000 C 
BRANCH  29  30
ATOM     30  C   UNL     1      -5.925   4.087 131.835  0.00  0.00    +0.000 C 
ATOM     31  O   UNL     1      -5.917   2.860 131.705  0.00  0.00    +0.000 OA
ATOM     32  N   UNL     1      -7.077   4.934 131.618  0.00  0.00    +0.000 N 
ATOM     33  H   UNL     1      -6.950   5.941 131.733  0.00  0.00    +0.000 HD
BRANCH  32  34
ATOM     34  N   UNL     1      -8.235   4.702 130.633  0.00  0.00    +0.000 NA
ATOM     35  C   UNL     1      -9.315   5.442 130.903  0.00  0.00    +0.000 C 
ATOM     36  C   UNL     1      -9.653   5.744 132.331  0.00  0.00    +0.000 C 
ATOM     37  O   UNL     1      -8.911   6.537 132.838  0.00  0.00    +0.000 OA
ATOM     38  N   UNL     1     -11.055   5.661 132.419  0.00  0.00    +0.000 N 
ATOM     39  C   UNL     1     -11.475   6.377 131.289  0.00  0.00    +0.000 A 
ATOM     40  C   UNL     1     -12.594   7.215 131.448  0.00  0.00    +0.000 A 
ATOM     41  C   UNL     1     -12.835   8.211 130.533  0.00  0.00    +0.000 A 
ATOM     42  C   UNL     1     -11.886   8.350 129.516  0.00  0.00    +0.000 A 
ATOM     43  C   UNL     1     -10.731   7.433 129.357  0.00  0.00    +0.000 A 
ATOM     44  C   UNL     1     -10.514   6.347 130.250  0.00  0.00    +0.000 A 
ATOM     45  H   UNL     1     -11.451   4.732 132.276  0.00  0.00    +0.000 HD
ENDBRANCH  32  34
ENDBRANCH  29  30
ENDBRANCH   1  29
TORSDOF 13
ENDMDL
MODEL 5
REMARK VINA RESULT:      -8.3      3.258      8.099
REMARK  Name = CHEMBL2113181
REMARK  13 active torsions:
REMARK  status: ('A' for Active; 'I' for Inactive)
REMARK    1  A    between atoms: C_2  and  C_3
REMARK    2  A    between atoms: C_3  and  C_4
REMARK    3  A    between atoms: C_4  and  C_5
REMARK    4  A    between atoms: C_8  and  S_9
REMARK    5  A    between atoms: S_9  and  N_12
REMARK    6  A    between atoms: N_12  and  C_13
REMARK    7  A    between atoms: N_12  and  C_28
REMARK    8  A    between atoms: C_13  and  C_14
REMARK    9  A    between atoms: N_16  and  N_17
REMARK   10  A    between atoms: N_37  and  C_38
REMARK   11  A    between atoms: C_38  and  C_39
REMARK   12  A    between atoms: C_39  and  C_40
REMARK   13  A    between atoms: C_40  and  O_41
REMARK                            x       y       z     vdW  Elec       q    Type
REMARK                         _______ _______ _______ _____ _____    ______ ____
ROOT
ATOM      1  N   UNL     1      -5.673   3.738 129.816  0.00  0.00    +0.000 N 
ENDROOT
BRANCH   1   2
ATOM      2  C   UNL     1      -4.859   4.839 130.447  0.00  0.00    +0.000 A 
ATOM      3  C   UNL     1      -5.438   6.110 130.644  0.00  0.00    +0.000 A 
ATOM      4  C   UNL     1      -4.694   7.211 131.130  0.00  0.00    +0.000 A 
ATOM      5  C   UNL     1      -3.363   7.046 131.496  0.00  0.00    +0.000 A 
ATOM      6 CL   UNL     1      -2.501   8.339 132.240  0.00  0.00    +0.000 Cl
ATOM      7  C   UNL     1      -2.749   5.818 131.286  0.00  0.00    +0.000 A 
ATOM      8  C   UNL     1      -3.485   4.739 130.740  0.00  0.00    +0.000 A 
ENDBRANCH   1   2
BRANCH   1   9
ATOM      9  S   UNL     1      -5.879   3.859 128.063  0.00  0.00    +0.000 S 
ATOM     10  O   UNL     1      -4.581   4.264 127.549  0.00  0.00    +0.000 OA
ATOM     11  O   UNL     1      -7.019   4.726 127.813  0.00  0.00    +0.000 OA
BRANCH   9  15
ATOM     12  C   UNL     1      -6.256  -0.408 126.449  0.00  0.00    +0.000 A 
ATOM     13  C   UNL     1      -7.315   0.105 127.212  0.00  0.00    +0.000 A 
ATOM     14  C   UNL     1      -7.282   1.460 127.625  0.00  0.00    +0.000 A 
ATOM     15  C   UNL     1      -6.256   2.316 127.169  0.00  0.00    +0.000 A 
ATOM     16  C   UNL     1      -5.425   1.828 126.186  0.00  0.00    +0.000 A 
ATOM     17  C   UNL     1      -5.258   0.458 126.059  0.00  0.00    +0.000 A 
BRANCH  12  18
ATOM     18  C   UNL     1      -6.154  -1.755 125.790  0.00  0.00    +0.000 C 
BRANCH  18  19
ATOM     19  C   UNL     1      -6.361  -1.594 124.305  0.00  0.00    +0.000 C 
BRANCH  19  21
ATOM     20  O   UNL     1      -8.337  -2.935 123.933  0.00  0.00    +0.000 OA
ATOM     21  C   UNL     1      -7.801  -1.827 123.949  0.00  0.00    +0.000 C 
ATOM     22  N   UNL     1      -8.518  -0.715 123.622  0.00  0.00    +0.000 N 
ATOM     23  H   UNL     1      -9.495  -0.897 123.426  0.00  0.00    +0.000 HD
BRANCH  22  24
ATOM     24  C   UNL     1      -7.988   0.630 123.570  0.00  0.00    +0.000 C 
BRANCH  24  25
ATOM     25  C   UNL     1      -8.999   1.645 124.053  0.00  0.00    +0.000 C 
BRANCH  25  26
ATOM     26  C   UNL     1      -8.357   3.016 124.171  0.00  0.00    +0.000 C 
BRANCH  26  27
ATOM     27  O   UNL     1      -9.059   3.794 125.127  0.00  0.00    +0.000 OA
ATOM     28  H   UNL     1      -8.451   4.476 125.460  0.00  0.00    +0.000 HD
ENDBRANCH  26  27
ENDBRANCH  25  26
ENDBRANCH  24  25
ENDBRANCH  22  24
ENDBRANCH  19  21
ENDBRANCH  18  19
ENDBRANCH  12  18
ENDBRANCH   9  15
ENDBRANCH   1   9
BRANCH   1  29
ATOM     29  C   UNL     1      -6.559   2.957 130.797  0.00  0.00    +0.000 C 
BRANCH  29  30
ATOM     30  C   UNL     1      -8.110   3.095 130.860  0.00  0.00    +0.000 C 
ATOM     31  O   UNL     1      -8.728   2.156 131.368  0.00  0.00    +0.000 OA
ATOM     32  N   UNL     1      -8.717   4.300 130.340  0.00  0.00    +0.000 N 
ATOM     33  H   UNL     1      -8.099   4.996 129.920  0.00  0.00    +0.000 HD
BRANCH  32  34
ATOM     34  N   UNL     1     -10.110   4.447 129.707  0.00  0.00    +0.000 NA
ATOM     35  C   UNL     1     -10.768   5.534 130.121  0.00  0.00    +0.000 C 
ATOM     36  C   UNL     1     -10.580   6.006 131.531  0.00  0.00    +0.000 C 
ATOM     37  O   UNL     1      -9.509   6.508 131.725  0.00  0.00    +0.000 OA
ATOM     38  N   UNL     1     -11.850   6.431 131.964  0.00  0.00    +0.000 N 
ATOM     39  C   UNL     1     -12.304   7.193 130.879  0.00  0.00    +0.000 A 
ATOM     40  C   UNL     1     -12.995   8.381 131.182  0.00  0.00    +0.000 A 
ATOM     41  C   UNL     1     -13.137   9.352 130.221  0.00  0.00    +0.000 A 
ATOM     42  C   UNL     1     -12.515   9.094 128.996  0.00  0.00    +0.000 A 
ATOM     43  C   UNL     1     -11.817   7.820 128.695  0.00  0.00    +0.000 A 
ATOM     44  C   UNL     1     -11.733   6.773 129.655  0.00  0.00    +0.000 A 
ATOM     45  H   UNL     1     -12.553   5.697 132.054  0.00  0.00    +0.000 HD
ENDBRANCH  32  34
ENDBRANCH  29  30
ENDBRANCH   1  29
TORSDOF 13
ENDMDL
MODEL 6
REMARK VINA RESULT:      -8.3      3.220      6.327
REMARK  Name = CHEMBL2113181
REMARK  13 active torsions:
REMARK  status: ('A' for Active; 'I' for Inactive)
REMARK    1  A    between atoms: C_2  and  C_3
REMARK    2  A    between atoms: C_3  and  C_4
REMARK    3  A    between atoms: C_4  and  C_5
REMARK    4  A    between atoms: C_8  and  S_9
REMARK    5  A    between atoms: S_9  and  N_12
REMARK    6  A    between atoms: N_12  and  C_13
REMARK    7  A    between atoms: N_12  and  C_28
REMARK    8  A    between atoms: C_13  and  C_14
REMARK    9  A    between atoms: N_16  and  N_17
REMARK   10  A    between atoms: N_37  and  C_38
REMARK   11  A    between atoms: C_38  and  C_39
REMARK   12  A    between atoms: C_39  and  C_40
REMARK   13  A    between atoms: C_40  and  O_41
REMARK                            x       y       z     vdW  Elec       q    Type
REMARK                         _______ _______ _______ _____ _____    ______ ____
ROOT
ATOM      1  N   UNL     1      -6.891   3.591 129.920  0.00  0.00    +0.000 N 
ENDROOT
BRANCH   1   2
ATOM      2  C   UNL     1      -5.961   4.709 130.318  0.00  0.00    +0.000 A 
ATOM      3  C   UNL     1      -6.493   5.955 130.709  0.00  0.00    +0.000 A 
ATOM      4  C   UNL     1      -5.672   7.072 130.990  0.00  0.00    +0.000 A 
ATOM      5  C   UNL     1      -4.289   6.949 130.949  0.00  0.00    +0.000 A 
ATOM      6 CL   UNL     1      -3.285   8.258 131.446  0.00  0.00    +0.000 Cl
ATOM      7  C   UNL     1      -3.727   5.748 130.535  0.00  0.00    +0.000 A 
ATOM      8  C   UNL     1      -4.558   4.653 130.196  0.00  0.00    +0.000 A 
ENDBRANCH   1   2
BRANCH   1   9
ATOM      9  S   UNL     1      -8.012   3.056 131.180  0.00  0.00    +0.000 S 
ATOM     10  O   UNL     1      -7.289   3.209 132.431  0.00  0.00    +0.000 OA
ATOM     11  O   UNL     1      -8.484   1.730 130.815  0.00  0.00    +0.000 OA
BRANCH   9  15
ATOM     12  C   UNL     1     -11.320   6.216 131.333  0.00  0.00    +0.000 A 
ATOM     13  C   UNL     1     -11.421   5.201 130.370  0.00  0.00    +0.000 A 
ATOM     14  C   UNL     1     -10.479   4.143 130.375  0.00  0.00    +0.000 A 
ATOM     15  C   UNL     1      -9.525   4.046 131.411  0.00  0.00    +0.000 A 
ATOM     16  C   UNL     1      -9.675   4.899 132.481  0.00  0.00    +0.000 A 
ATOM     17  C   UNL     1     -10.349   6.096 132.303  0.00  0.00    +0.000 A 
BRANCH  12  18
ATOM     18  C   UNL     1     -12.282   7.340 131.602  0.00  0.00    +0.000 C 
BRANCH  18  19
ATOM     19  C   UNL     1     -13.057   7.637 130.342  0.00  0.00    +0.000 C 
BRANCH  19  21
ATOM     20  O   UNL     1     -13.176  10.024 130.700  0.00  0.00    +0.000 OA
ATOM     21  C   UNL     1     -12.900   9.080 129.960  0.00  0.00    +0.000 C 
ATOM     22  N   UNL     1     -12.429   9.311 128.703  0.00  0.00    +0.000 N 
ATOM     23  H   UNL     1     -12.295  10.291 128.486  0.00  0.00    +0.000 HD
BRANCH  22  24
ATOM     24  C   UNL     1     -12.106   8.287 127.734  0.00  0.00    +0.000 C 
BRANCH  24  25
ATOM     25  C   UNL     1     -10.617   8.036 127.664  0.00  0.00    +0.000 C 
BRANCH  25  26
ATOM     26  C   UNL     1     -10.310   6.959 126.637  0.00  0.00    +0.000 C 
BRANCH  26  27
ATOM     27  O   UNL     1      -9.373   6.040 127.174  0.00  0.00    +0.000 OA
ATOM     28  H   UNL     1      -9.842   5.206 127.352  0.00  0.00    +0.000 HD
ENDBRANCH  26  27
ENDBRANCH  25  26
ENDBRANCH  24  25
ENDBRANCH  22  24
ENDBRANCH  19  21
ENDBRANCH  18  19
ENDBRANCH  12  18
ENDBRANCH   9  15
ENDBRANCH   1   9
BRANCH   1  29
ATOM     29  C   UNL     1      -6.441   2.795 128.687  0.00  0.00    +0.000 C 
BRANCH  29  30
ATOM     30  C   UNL     1      -7.166   2.852 127.309  0.00  0.00    +0.000 C 
ATOM     31  O   UNL     1      -8.276   3.387 127.290  0.00  0.00    +0.000 OA
ATOM     32  N   UNL     1      -6.496   2.295 126.154  0.00  0.00    +0.000 N 
ATOM     33  H   UNL     1      -5.587   1.855 126.303  0.00  0.00    +0.000 HD
BRANCH  32  34
ATOM     34  N   UNL     1      -7.145   1.657 124.915  0.00  0.00    +0.000 NA
ATOM     35  C   UNL     1      -7.070   0.323 124.906  0.00  0.00    +0.000 C 
ATOM     36  C   UNL     1      -5.863  -0.343 125.491  0.00  0.00    +0.000 C 
ATOM     37  O   UNL     1      -5.824  -0.291 126.688  0.00  0.00    +0.000 OA
ATOM     38  N   UNL     1      -5.575  -1.428 124.643  0.00  0.00    +0.000 N 
ATOM     39  C   UNL     1      -6.837  -2.005 124.445  0.00  0.00    +0.000 A 
ATOM     40  C   UNL     1      -6.899  -3.411 124.438  0.00  0.00    +0.000 A 
ATOM     41  C   UNL     1      -8.103  -4.042 124.629  0.00  0.00    +0.000 A 
ATOM     42  C   UNL     1      -9.197  -3.208 124.877  0.00  0.00    +0.000 A 
ATOM     43  C   UNL     1      -9.108  -1.728 124.850  0.00  0.00    +0.000 A 
ATOM     44  C   UNL     1      -7.883  -1.061 124.574  0.00  0.00    +0.000 A 
ATOM     45  H   UNL     1      -5.273  -1.182 123.700  0.00  0.00    +0.000 HD
ENDBRANCH  32  34
ENDBRANCH  29  30
ENDBRANCH   1  29
TORSDOF 13
ENDMDL
MODEL 7
REMARK VINA RESULT:      -8.3      4.133      7.699
REMARK  Name = CHEMBL2113181
REMARK  13 active torsions:
REMARK  status: ('A' for Active; 'I' for Inactive)
REMARK    1  A    between atoms: C_2  and  C_3
REMARK    2  A    between atoms: C_3  and  C_4
REMARK    3  A    between atoms: C_4  and  C_5
REMARK    4  A    between atoms: C_8  and  S_9
REMARK    5  A    between atoms: S_9  and  N_12
REMARK    6  A    between atoms: N_12  and  C_13
REMARK    7  A    between atoms: N_12  and  C_28
REMARK    8  A    between atoms: C_13  and  C_14
REMARK    9  A    between atoms: N_16  and  N_17
REMARK   10  A    between atoms: N_37  and  C_38
REMARK   11  A    between atoms: C_38  and  C_39
REMARK   12  A    between atoms: C_39  and  C_40
REMARK   13  A    between atoms: C_40  and  O_41
REMARK                            x       y       z     vdW  Elec       q    Type
REMARK                         _______ _______ _______ _____ _____    ______ ____
ROOT
ATOM      1  N   UNL     1      -3.817   7.158 131.086  0.00  0.00    +0.000 N 
ENDROOT
BRANCH   1   2
ATOM      2  C   UNL     1      -2.670   7.733 131.879  0.00  0.00    +0.000 A 
ATOM      3  C   UNL     1      -1.493   6.975 132.053  0.00  0.00    +0.000 A 
ATOM      4  C   UNL     1      -0.428   7.414 132.874  0.00  0.00    +0.000 A 
ATOM      5  C   UNL     1      -0.488   8.659 133.489  0.00  0.00    +0.000 A 
ATOM      6 CL   UNL     1       0.871   9.267 134.356  0.00  0.00    +0.000 Cl
ATOM      7  C   UNL     1      -1.645   9.419 133.369  0.00  0.00    +0.000 A 
ATOM      8  C   UNL     1      -2.732   8.944 132.596  0.00  0.00    +0.000 A 
ENDBRANCH   1   2
BRANCH   1   9
ATOM      9  S   UNL     1      -4.793   5.951 131.935  0.00  0.00    +0.000 S 
ATOM     10  O   UNL     1      -4.263   5.907 133.287  0.00  0.00    +0.000 OA
ATOM     11  O   UNL     1      -4.767   4.730 131.146  0.00  0.00    +0.000 OA
BRANCH   9  15
ATOM     12  C   UNL     1      -9.367   6.084 132.053  0.00  0.00    +0.000 A 
ATOM     13  C   UNL     1      -8.686   5.737 133.229  0.00  0.00    +0.000 A 
ATOM     14  C   UNL     1      -7.271   5.803 133.258  0.00  0.00    +0.000 A 
ATOM     15  C   UNL     1      -6.562   6.330 132.157  0.00  0.00    +0.000 A 
ATOM     16  C   UNL     1      -7.303   6.929 131.164  0.00  0.00    +0.000 A 
ATOM     17  C   UNL     1      -8.628   6.559 130.991  0.00  0.00    +0.000 A 
BRANCH  12  18
ATOM     18  C   UNL     1     -10.849   6.226 131.845  0.00  0.00    +0.000 C 
BRANCH  18  19
ATOM     19  C   UNL     1     -11.096   7.080 130.627  0.00  0.00    +0.000 C 
BRANCH  19  21
ATOM     20  O   UNL     1     -13.384   7.184 131.397  0.00  0.00    +0.000 OA
ATOM     21  C   UNL     1     -12.546   7.461 130.540  0.00  0.00    +0.000 C 
ATOM     22  N   UNL     1     -12.912   8.145 129.420  0.00  0.00    +0.000 N 
ATOM     23  H   UNL     1     -13.886   8.423 129.407  0.00  0.00    +0.000 HD
BRANCH  22  24
ATOM     24  C   UNL     1     -12.026   8.493 128.331  0.00  0.00    +0.000 C 
BRANCH  24  25
ATOM     25  C   UNL     1     -12.109   7.490 127.203  0.00  0.00    +0.000 C 
BRANCH  25  26
ATOM     26  C   UNL     1     -10.762   7.358 126.513  0.00  0.00    +0.000 C 
BRANCH  26  27
ATOM     27  O   UNL     1     -10.765   8.109 125.310  0.00  0.00    +0.000 OA
ATOM     28  H   UNL     1     -10.151   8.856 125.423  0.00  0.00    +0.000 HD
ENDBRANCH  26  27
ENDBRANCH  25  26
ENDBRANCH  24  25
ENDBRANCH  22  24
ENDBRANCH  19  21
ENDBRANCH  18  19
ENDBRANCH  12  18
ENDBRANCH   9  15
ENDBRANCH   1   9
BRANCH   1  29
ATOM     29  C   UNL     1      -3.702   7.350 129.567  0.00  0.00    +0.000 C 
BRANCH  29  30
ATOM     30  C   UNL     1      -2.881   6.407 128.637  0.00  0.00    +0.000 C 
ATOM     31  O   UNL     1      -1.933   6.915 128.033  0.00  0.00    +0.000 OA
ATOM     32  N   UNL     1      -3.268   5.016 128.550  0.00  0.00    +0.000 N 
ATOM     33  H   UNL     1      -4.089   4.721 129.080  0.00  0.00    +0.000 HD
BRANCH  32  34
ATOM     34  N   UNL     1      -3.105   4.074 127.346  0.00  0.00    +0.000 NA
ATOM     35  C   UNL     1      -4.265   3.749 126.768  0.00  0.00    +0.000 C 
ATOM     36  C   UNL     1      -5.487   3.598 127.621  0.00  0.00    +0.000 C 
ATOM     37  O   UNL     1      -5.915   4.641 128.028  0.00  0.00    +0.000 OA
ATOM     38  N   UNL     1      -6.189   2.498 127.094  0.00  0.00    +0.000 N 
ATOM     39  C   UNL     1      -6.155   2.746 125.715  0.00  0.00    +0.000 A 
ATOM     40  C   UNL     1      -7.329   2.466 124.990  0.00  0.00    +0.000 A 
ATOM     41  C   UNL     1      -7.510   3.019 123.746  0.00  0.00    +0.000 A 
ATOM     42  C   UNL     1      -6.505   3.887 123.310  0.00  0.00    +0.000 A 
ATOM     43  C   UNL     1      -5.265   4.141 124.084  0.00  0.00    +0.000 A 
ATOM     44  C   UNL     1      -5.027   3.513 125.337  0.00  0.00    +0.000 A 
ATOM     45  H   UNL     1      -5.725   1.594 127.187  0.00  0.00    +0.000 HD
ENDBRANCH  32  34
ENDBRANCH  29  30
ENDBRANCH   1  29
TORSDOF 13
ENDMDL
MODEL 8
REMARK VINA RESULT:      -8.2      4.320      8.813
REMARK  Name = CHEMBL2113181
REMARK  13 active torsions:
REMARK  status: ('A' for Active; 'I' for Inactive)
REMARK    1  A    between atoms: C_2  and  C_3
REMARK    2  A    between atoms: C_3  and  C_4
REMARK    3  A    between atoms: C_4  and  C_5
REMARK    4  A    between atoms: C_8  and  S_9
REMARK    5  A    between atoms: S_9  and  N_12
REMARK    6  A    between atoms: N_12  and  C_13
REMARK    7  A    between atoms: N_12  and  C_28
REMARK    8  A    between atoms: C_13  and  C_14
REMARK    9  A    between atoms: N_16  and  N_17
REMARK   10  A    between atoms: N_37  and  C_38
REMARK   11  A    between atoms: C_38  and  C_39
REMARK   12  A    between atoms: C_39  and  C_40
REMARK   13  A    between atoms: C_40  and  O_41
REMARK                            x       y       z     vdW  Elec       q    Type
REMARK                         _______ _______ _______ _____ _____    ______ ____
ROOT
ATOM      1  N   UNL     1      -7.712   2.150 123.763  0.00  0.00    +0.000 N 
ENDROOT
BRANCH   1   2
ATOM      2  C   UNL     1      -7.404   2.906 122.495  0.00  0.00    +0.000 A 
ATOM      3  C   UNL     1      -8.458   3.317 121.654  0.00  0.00    +0.000 A 
ATOM      4  C   UNL     1      -8.227   3.933 120.401  0.00  0.00    +0.000 A 
ATOM      5  C   UNL     1      -6.930   4.214 119.991  0.00  0.00    +0.000 A 
ATOM      6 CL   UNL     1      -6.650   5.108 118.544  0.00  0.00    +0.000 Cl
ATOM      7  C   UNL     1      -5.864   3.794 120.777  0.00  0.00    +0.000 A 
ATOM      8  C   UNL     1      -6.103   3.122 122.000  0.00  0.00    +0.000 A 
ENDBRANCH   1   2
BRANCH   1   9
ATOM      9  S   UNL     1      -7.976   0.412 123.562  0.00  0.00    +0.000 S 
ATOM     10  O   UNL     1      -6.841  -0.064 122.789  0.00  0.00    +0.000 OA
ATOM     11  O   UNL     1      -9.308   0.230 123.010  0.00  0.00    +0.000 OA
BRANCH   9  15
ATOM     12  C   UNL     1      -8.065  -2.855 126.767  0.00  0.00    +0.000 A 
ATOM     13  C   UNL     1      -6.817  -2.348 126.376  0.00  0.00    +0.000 A 
ATOM     14  C   UNL     1      -6.762  -1.256 125.475  0.00  0.00    +0.000 A 
ATOM     15  C   UNL     1      -7.950  -0.606 125.074  0.00  0.00    +0.000 A 
ATOM     16  C   UNL     1      -9.108  -0.959 125.728  0.00  0.00    +0.000 A 
ATOM     17  C   UNL     1      -9.197  -2.210 126.319  0.00  0.00    +0.000 A 
BRANCH  12  18
ATOM     18  C   UNL     1      -8.358  -3.898 127.810  0.00  0.00    +0.000 C 
BRANCH  18  19
ATOM     19  C   UNL     1      -8.529  -3.223 129.147  0.00  0.00    +0.000 C 
BRANCH  19  21
ATOM     20  O   UNL     1      -6.371  -3.834 130.047  0.00  0.00    +0.000 OA
ATOM     21  C   UNL     1      -7.191  -2.957 129.774  0.00  0.00    +0.000 C 
ATOM     22  N   UNL     1      -6.914  -1.652 130.048  0.00  0.00    +0.000 N 
ATOM     23  H   UNL     1      -5.990  -1.498 130.433  0.00  0.00    +0.000 HD
BRANCH  22  24
ATOM     24  C   UNL     1      -7.811  -0.543 129.806  0.00  0.00    +0.000 C 
BRANCH  24  25
ATOM     25  C   UNL     1      -7.207   0.464 128.854  0.00  0.00    +0.000 C 
BRANCH  25  26
ATOM     26  C   UNL     1      -5.700   0.282 128.779  0.00  0.00    +0.000 C 
BRANCH  26  27
ATOM     27  O   UNL     1      -5.067   1.551 128.744  0.00  0.00    +0.000 OA
ATOM     28  H   UNL     1      -4.164   1.423 128.404  0.00  0.00    +0.000 HD
ENDBRANCH  26  27
ENDBRANCH  25  26
ENDBRANCH  24  25
ENDBRANCH  22  24
ENDBRANCH  19  21
ENDBRANCH  18  19
ENDBRANCH  12  18
ENDBRANCH   9  15
ENDBRANCH   1   9
BRANCH   1  29
ATOM     29  C   UNL     1      -8.192   3.026 124.928  0.00  0.00    +0.000 C 
BRANCH  29  30
ATOM     30  C   UNL     1      -7.232   3.773 125.902  0.00  0.00    +0.000 C 
ATOM     31  O   UNL     1      -6.164   4.171 125.428  0.00  0.00    +0.000 OA
ATOM     32  N   UNL     1      -7.650   3.963 127.273  0.00  0.00    +0.000 N 
ATOM     33  H   UNL     1      -8.548   3.564 127.551  0.00  0.00    +0.000 HD
BRANCH  32  34
ATOM     34  N   UNL     1      -6.754   4.054 128.519  0.00  0.00    +0.000 NA
ATOM     35  C   UNL     1      -7.440   4.226 129.653  0.00  0.00    +0.000 C 
ATOM     36  C   UNL     1      -8.698   5.040 129.627  0.00  0.00    +0.000 C 
ATOM     37  O   UNL     1      -9.613   4.484 129.088  0.00  0.00    +0.000 OA
ATOM     38  N   UNL     1      -8.694   5.789 130.818  0.00  0.00    +0.000 N 
ATOM     39  C   UNL     1      -8.333   4.834 131.779  0.00  0.00    +0.000 A 
ATOM     40  C   UNL     1      -9.003   4.892 133.015  0.00  0.00    +0.000 A 
ATOM     41  C   UNL     1      -8.993   3.801 133.849  0.00  0.00    +0.000 A 
ATOM     42  C   UNL     1      -8.342   2.665 133.360  0.00  0.00    +0.000 A 
ATOM     43  C   UNL     1      -7.619   2.642 132.065  0.00  0.00    +0.000 A 
ATOM     44  C   UNL     1      -7.553   3.790 131.228  0.00  0.00    +0.000 A 
ATOM     45  H   UNL     1      -7.960   6.494 130.893  0.00  0.00    +0.000 HD
ENDBRANCH  32  34
ENDBRANCH  29  30
ENDBRANCH   1  29
TORSDOF 13
ENDMDL
MODEL 9
REMARK VINA RESULT:      -8.2      3.504      8.204
REMARK  Name = CHEMBL2113181
REMARK  13 active torsions:
REMARK  status: ('A' for Active; 'I' for Inactive)
REMARK    1  A    between atoms: C_2  and  C_3
REMARK    2  A    between atoms: C_3  and  C_4
REMARK    3  A    between atoms: C_4  and  C_5
REMARK    4  A    between atoms: C_8  and  S_9
REMARK    5  A    between atoms: S_9  and  N_12
REMARK    6  A    between atoms: N_12  and  C_13
REMARK    7  A    between atoms: N_12  and  C_28
REMARK    8  A    between atoms: C_13  and  C_14
REMARK    9  A    between atoms: N_16  and  N_17
REMARK   10  A    between atoms: N_37  and  C_38
REMARK   11  A    between atoms: C_38  and  C_39
REMARK   12  A    between atoms: C_39  and  C_40
REMARK   13  A    between atoms: C_40  and  O_41
REMARK                            x       y       z     vdW  Elec       q    Type
REMARK                         _______ _______ _______ _____ _____    ______ ____
ROOT
ATOM      1  N   UNL     1      -3.436   5.535 130.877  0.00  0.00    +0.000 N 
ENDROOT
BRANCH   1   2
ATOM      2  C   UNL     1      -2.544   6.455 131.674  0.00  0.00    +0.000 A 
ATOM      3  C   UNL     1      -2.991   7.752 132.000  0.00  0.00    +0.000 A 
ATOM      4  C   UNL     1      -2.161   8.695 132.650  0.00  0.00    +0.000 A 
ATOM      5  C   UNL     1      -0.880   8.337 133.051  0.00  0.00    +0.000 A 
ATOM      6 CL   UNL     1       0.075   9.427 133.985  0.00  0.00    +0.000 Cl
ATOM      7  C   UNL     1      -0.391   7.080 132.718  0.00  0.00    +0.000 A 
ATOM      8  C   UNL     1      -1.207   6.163 132.012  0.00  0.00    +0.000 A 
ENDBRANCH   1   2
BRANCH   1   9
ATOM      9  S   UNL     1      -3.488   5.854 129.138  0.00  0.00    +0.000 S 
ATOM     10  O   UNL     1      -2.152   6.306 128.787  0.00  0.00    +0.000 OA
ATOM     11  O   UNL     1      -4.605   6.750 128.888  0.00  0.00    +0.000 OA
BRANCH   9  15
ATOM     12  C   UNL     1      -5.070   2.255 126.793  0.00  0.00    +0.000 A 
ATOM     13  C   UNL     1      -5.005   3.493 126.137  0.00  0.00    +0.000 A 
ATOM     14  C   UNL     1      -4.410   4.598 126.796  0.00  0.00    +0.000 A 
ATOM     15  C   UNL     1      -3.780   4.423 128.046  0.00  0.00    +0.000 A 
ATOM     16  C   UNL     1      -3.615   3.131 128.490  0.00  0.00    +0.000 A 
ATOM     17  C   UNL     1      -4.472   2.143 128.029  0.00  0.00    +0.000 A 
BRANCH  12  18
ATOM     18  C   UNL     1      -5.519   0.932 126.237  0.00  0.00    +0.000 C 
BRANCH  18  19
ATOM     19  C   UNL     1      -6.919   0.645 126.719  0.00  0.00    +0.000 C 
BRANCH  19  21
ATOM     20  O   UNL     1      -8.104   1.517 124.802  0.00  0.00    +0.000 OA
ATOM     21  C   UNL     1      -7.868   0.575 125.558  0.00  0.00    +0.000 C 
ATOM     22  N   UNL     1      -8.491  -0.623 125.375  0.00  0.00    +0.000 N 
ATOM     23  H   UNL     1      -9.094  -0.654 124.562  0.00  0.00    +0.000 HD
BRANCH  22  24
ATOM     24  C   UNL     1      -8.322  -1.786 126.218  0.00  0.00    +0.000 C 
BRANCH  24  25
ATOM     25  C   UNL     1      -9.254  -2.906 125.815  0.00  0.00    +0.000 C 
BRANCH  25  26
ATOM     26  C   UNL     1      -8.900  -3.415 124.428  0.00  0.00    +0.000 C 
BRANCH  26  27
ATOM     27  O   UNL     1     -10.013  -3.258 123.563  0.00  0.00    +0.000 OA
ATOM     28  H   UNL     1      -9.770  -3.628 122.696  0.00  0.00    +0.000 HD
ENDBRANCH  26  27
ENDBRANCH  25  26
ENDBRANCH  24  25
ENDBRANCH  22  24
ENDBRANCH  19  21
ENDBRANCH  18  19
ENDBRANCH  12  18
ENDBRANCH   9  15
ENDBRANCH   1   9
BRANCH   1  29
ATOM     29  C   UNL     1      -4.484   4.784 131.710  0.00  0.00    +0.000 C 
BRANCH  29  30
ATOM     30  C   UNL     1      -5.885   4.371 131.168  0.00  0.00    +0.000 C 
ATOM     31  O   UNL     1      -6.142   3.165 131.163  0.00  0.00    +0.000 OA
ATOM     32  N   UNL     1      -6.787   5.411 130.724  0.00  0.00    +0.000 N 
ATOM     33  H   UNL     1      -6.448   6.374 130.754  0.00  0.00    +0.000 HD
BRANCH  32  34
ATOM     34  N   UNL     1      -7.863   5.312 129.631  0.00  0.00    +0.000 NA
ATOM     35  C   UNL     1      -9.034   5.846 129.990  0.00  0.00    +0.000 C 
ATOM     36  C   UNL     1      -9.471   5.748 131.420  0.00  0.00    +0.000 C 
ATOM     37  O   UNL     1      -8.852   6.465 132.156  0.00  0.00    +0.000 OA
ATOM     38  N   UNL     1     -10.856   5.502 131.381  0.00  0.00    +0.000 N 
ATOM     39  C   UNL     1     -11.304   6.428 130.429  0.00  0.00    +0.000 A 
ATOM     40  C   UNL     1     -12.521   7.081 130.702  0.00  0.00    +0.000 A 
ATOM     41  C   UNL     1     -12.836   8.241 130.039  0.00  0.00    +0.000 A 
ATOM     42  C   UNL     1     -11.864   8.724 129.157  0.00  0.00    +0.000 A 
ATOM     43  C   UNL     1     -10.603   8.000 128.868  0.00  0.00    +0.000 A 
ATOM     44  C   UNL     1     -10.300   6.755 129.487  0.00  0.00    +0.000 A 
ATOM     45  H   UNL     1     -11.132   4.601 130.990  0.00  0.00    +0.000 HD
ENDBRANCH  32  34
ENDBRANCH  29  30
ENDBRANCH   1  29
TORSDOF 13
ENDMDL
