MODEL 1
REMARK VINA RESULT:     -10.5      0.000      0.000
REMARK  Name = CHEMBL4128839
REMARK  22 active torsions:
REMARK  status: ('A' for Active; 'I' for Inactive)
REMARK    1  A    between atoms: C_1  and  C_2
REMARK    2  A    between atoms: C_2  and  C_3
REMARK    3  A    between atoms: C_3  and  C_4
REMARK    4  A    between atoms: C_3  and  C_5
REMARK    5  A    between atoms: C_9  and  C_10
REMARK    6  A    between atoms: C_10  and  C_11
REMARK    7  A    between atoms: C_14  and  O_15
REMARK    8  A    between atoms: C_33  and  C_34
REMARK    9  A    between atoms: C_40  and  C_41
REMARK   10  A    between atoms: N_43  and  C_44
REMARK   11  A    between atoms: C_44  and  C_45
REMARK   12  A    between atoms: C_44  and  C_49
REMARK   13  A    between atoms: C_45  and  C_46
REMARK   14  A    between atoms: C_46  and  C_47
REMARK   15  A    between atoms: C_46  and  C_48
REMARK   16  A    between atoms: N_51  and  C_52
REMARK   17  A    between atoms: C_52  and  C_53
REMARK   18  A    between atoms: C_59  and  C_60
REMARK   19  A    between atoms: C_60  and  C_61
REMARK   20  A    between atoms: C_67  and  C_68
REMARK   21  A    between atoms: C_68  and  C_69
REMARK   22  A    between atoms: C_69  and  C_70
REMARK                            x       y       z     vdW  Elec       q    Type
REMARK                         _______ _______ _______ _____ _____    ______ ____
ROOT
ATOM      1  C   UNL     1      -5.649  -0.092 135.421  0.00  0.00    +0.000 C 
ATOM      2  N   UNL     1      -5.534   2.492 135.811  0.00  0.00    +0.000 N 
ATOM      3  C   UNL     1      -5.332   4.960 136.258  0.00  0.00    +0.000 C 
ATOM      4  O   UNL     1      -5.711   6.582 135.661  0.00  0.00    +0.000 OA
ATOM      5  C   UNL     1      -4.907   7.372 137.017  0.00  0.00    +0.000 C 
ATOM      6  N   UNL     1      -5.775   8.986 138.296  0.00  0.00    +0.000 N 
ATOM      7  C   UNL     1      -7.223   8.786 138.807  0.00  0.00    +0.000 C 
ATOM      8  O   UNL     1      -8.023   9.235 139.634  0.00  0.00    +0.000 OA
ATOM      9  C   UNL     1      -7.674   7.621 138.031  0.00  0.00    +0.000 C 
ATOM     10  C   UNL     1      -6.838   7.143 137.108  0.00  0.00    +0.000 C 
ATOM     11  S   UNL     1      -7.464   5.785 135.743  0.00  0.00    +0.000 S 
ATOM     12  C   UNL     1      -5.666   5.917 134.051  0.00  0.00    +0.000 C 
ATOM     13  C   UNL     1      -5.784   4.411 133.818  0.00  0.00    +0.000 A 
ATOM     14  C   UNL     1      -6.973   3.678 134.054  0.00  0.00    +0.000 A 
ATOM     15  C   UNL     1      -7.160   2.433 133.546  0.00  0.00    +0.000 A 
ATOM     16  C   UNL     1      -6.268   2.068 132.606  0.00  0.00    +0.000 A 
ATOM     17  C   UNL     1      -5.153   2.766 132.337  0.00  0.00    +0.000 A 
ATOM     18  C   UNL     1      -4.809   3.836 133.089  0.00  0.00    +0.000 A 
ATOM     19  S   UNL     1      -6.628   0.866 131.564  0.00  0.00    +0.000 S 
ATOM     20  C   UNL     1      -6.181   0.715 129.954  0.00  0.00    +0.000 C 
ATOM     21  C   UNL     1      -6.406  -0.591 129.239  0.00  0.00    +0.000 C 
ATOM     22  N   UNL     1      -5.493  -1.621 129.781  0.00  0.00    +0.000 N 
ATOM     23  C   UNL     1      -5.478  -2.021 131.085  0.00  0.00    +0.000 C 
ATOM     24  O   UNL     1      -4.662  -2.850 131.443  0.00  0.00    +0.000 OA
ATOM     25  C   UNL     1      -6.469  -1.443 132.059  0.00  0.00    +0.000 C 
ATOM     26  N   UNL     1      -7.479  -2.124 132.555  0.00  0.00    +0.000 N 
ATOM     27  C   UNL     1      -7.064  -2.922 133.366  0.00  0.00    +0.000 C 
ATOM     28  O   UNL     1      -7.817  -3.726 134.722  0.00  0.00    +0.000 OA
ATOM     29  C   UNL     1      -5.001  -3.499 133.484  0.00  0.00    +0.000 C 
ATOM     30  N   UNL     1      -4.652  -3.537 135.133  0.00  0.00    +0.000 N 
ATOM     31  C   UNL     1      -5.493  -2.307 136.069  0.00  0.00    +0.000 C 
ATOM     32  O   UNL     1      -5.463  -3.690 136.848  0.00  0.00    +0.000 OA
ATOM     33  H   UNL     1      -5.469   4.074 135.560  0.00  0.00    +0.000 HD
ATOM     34  H   UNL     1      -5.665  10.135 139.166  0.00  0.00    +0.000 HD
ATOM     35  H   UNL     1      -4.807  -2.027 129.131  0.00  0.00    +0.000 HD
ATOM     36  H   UNL     1      -8.444  -2.378 132.400  0.00  0.00    +0.000 HD
ATOM     37  H   UNL     1      -4.277  -2.751 135.469  0.00  0.00    +0.000 HD
ENDROOT
BRANCH  21  38
ATOM     38  C   UNL     1      -6.168  -0.351 127.728  0.00  0.00    +0.000 C 
ATOM     39  O   UNL     1      -5.222   0.392 127.466  0.00  0.00    +0.000 OA
ATOM     40  N   UNL     1      -6.996  -1.023 126.779  0.00  0.00    +0.000 N 
ATOM     41  C   UNL     1      -8.448  -1.151 126.789  0.00  0.00    +0.000 C 
ATOM     42  C   UNL     1      -8.667  -2.537 126.246  0.00  0.00    +0.000 C 
ATOM     43  C   UNL     1      -7.691  -2.608 125.088  0.00  0.00    +0.000 C 
ATOM     44  C   UNL     1      -6.532  -1.750 125.539  0.00  0.00    +0.000 C 
BRANCH  44  45
ATOM     45  C   UNL     1      -6.550  -0.850 124.288  0.00  0.00    +0.000 C 
ATOM     46  O   UNL     1      -6.972  -1.457 123.167  0.00  0.00    +0.000 OA
ATOM     47  N   UNL     1      -6.781   0.590 124.468  0.00  0.00    +0.000 N 
ATOM     48  H   UNL     1      -6.448   1.045 125.299  0.00  0.00    +0.000 HD
BRANCH  47  49
ATOM     49  C   UNL     1      -7.281   1.480 123.364  0.00  0.00    +0.000 C 
BRANCH  49  50
ATOM     50  C   UNL     1      -6.337   2.705 123.202  0.00  0.00    +0.000 C 
ATOM     51  O   UNL     1      -5.857   3.221 124.216  0.00  0.00    +0.000 OA
ATOM     52  N   UNL     1      -6.056   3.184 121.914  0.00  0.00    +0.000 N 
ATOM     53  H   UNL     1      -6.448   2.762 121.087  0.00  0.00    +0.000 HD
BRANCH  52  54
ATOM     54  C   UNL     1      -5.173   4.337 121.705  0.00  0.00    +0.000 C 
BRANCH  54  55
ATOM     55  C   UNL     1      -5.459   5.081 120.383  0.00  0.00    +0.000 C 
ATOM     56  N   UNL     1      -6.420   4.534 119.523  0.00  0.00    +0.000 N 
ATOM     57  O   UNL     1      -4.855   6.119 120.111  0.00  0.00    +0.000 OA
ATOM     58  H   UNL     1      -6.938   3.689 119.702  0.00  0.00    +0.000 HD
ATOM     59  H   UNL     1      -6.644   4.990 118.638  0.00  0.00    +0.000 HD
ENDBRANCH  54  55
ENDBRANCH  52  54
ENDBRANCH  49  50
BRANCH  49  60
ATOM     60  C   UNL     1      -8.697   1.961 123.632  0.00  0.00    +0.000 C 
BRANCH  60  61
ATOM     61  C   UNL     1      -9.670   0.816 123.790  0.00  0.00    +0.000 C 
ATOM     62  C   UNL     1     -10.988   1.266 124.238  0.00  0.00    +0.000 C 
ATOM     63  C   UNL     1     -10.101   0.250 122.500  0.00  0.00    +0.000 C 
ENDBRANCH  60  61
ENDBRANCH  49  60
ENDBRANCH  47  49
ENDBRANCH  44  45
ENDBRANCH  21  38
BRANCH   1  64
ATOM     64  C   UNL     1      -6.249  -2.696 134.697  0.00  0.00    +0.000 C 
ATOM     65  C   UNL     1      -6.754  -5.139 134.193  0.00  0.00    +0.000 C 
BRANCH  64  67
ATOM     66  C   UNL     1      -6.468  -6.029 135.573  0.00  0.00    +0.000 C 
ATOM     67  C   UNL     1      -7.232  -4.783 134.780  0.00  0.00    +0.000 C 
ENDBRANCH  64  67
ENDBRANCH   1  64
BRANCH  25  68
ATOM     68  C   UNL     1      -5.820  -0.738 133.271  0.00  0.00    +0.000 C 
BRANCH  68  69
ATOM     69  C   UNL     1      -4.193  -0.516 132.750  0.00  0.00    +0.000 C 
ATOM     70  N   UNL     1      -3.184  -0.913 133.385  0.00  0.00    +0.000 N 
ATOM     71  O   UNL     1      -3.553  -0.057 131.703  0.00  0.00    +0.000 OA
ATOM     72  H   UNL     1      -3.298  -1.088 134.308  0.00  0.00    +0.000 HD
ATOM     73  H   UNL     1      -2.340  -1.110 133.002  0.00  0.00    +0.000 HD
ENDBRANCH  68  69
ENDBRANCH  25  68
BRANCH   5  74
ATOM     74  C   UNL     1      -4.339   7.309 138.207  0.00  0.00    +0.000 C 
BRANCH  74  75
ATOM     75  C   UNL     1      -3.447   7.676 137.088  0.00  0.00    +0.000 A 
ATOM     76  C   UNL     1      -3.524   8.711 136.084  0.00  0.00    +0.000 A 
ATOM     77  C   UNL     1      -2.767   8.639 134.946  0.00  0.00    +0.000 A 
ATOM     78  C   UNL     1      -1.753   7.742 134.876  0.00  0.00    +0.000 A 
ATOM     79  C   UNL     1      -1.554   6.902 135.965  0.00  0.00    +0.000 A 
ATOM     80  C   UNL     1      -2.472   6.760 136.976  0.00  0.00    +0.000 A 
BRANCH  78  81
ATOM     81  O   UNL     1      -0.964   7.648 133.765  0.00  0.00    +0.000 OA
ATOM     82  H   UNL     1      -1.400   7.679 132.889  0.00  0.00    +0.000 HD
ENDBRANCH  78  81
ENDBRANCH  74  75
ENDBRANCH   5  74
BRANCH  29  83
ATOM     83  C   UNL     1      -4.535  -4.877 132.999  0.00  0.00    +0.000 C 
BRANCH  83  84
ATOM     84  C   UNL     1      -2.918  -5.331 133.118  0.00  0.00    +0.000 C 
BRANCH  84  85
ATOM     85  C   UNL     1      -2.344  -5.363 134.397  0.00  0.00    +0.000 C 
ATOM     86  N   UNL     1      -1.268  -4.560 134.467  0.00  0.00    +0.000 N 
ATOM     87  O   UNL     1      -2.851  -6.038 135.273  0.00  0.00    +0.000 OA
ATOM     88  H   UNL     1      -0.868  -4.025 133.703  0.00  0.00    +0.000 HD
ATOM     89  H   UNL     1      -0.853  -4.461 135.364  0.00  0.00    +0.000 HD
ENDBRANCH  84  85
ENDBRANCH  83  84
ENDBRANCH  29  83
TORSDOF 18
ENDMDL
MODEL 2
REMARK VINA RESULT:     -10.4      1.856      2.607
REMARK  Name = CHEMBL4128839
REMARK  22 active torsions:
REMARK  status: ('A' for Active; 'I' for Inactive)
REMARK    1  A    between atoms: C_1  and  C_2
REMARK    2  A    between atoms: C_2  and  C_3
REMARK    3  A    between atoms: C_3  and  C_4
REMARK    4  A    between atoms: C_3  and  C_5
REMARK    5  A    between atoms: C_9  and  C_10
REMARK    6  A    between atoms: C_10  and  C_11
REMARK    7  A    between atoms: C_14  and  O_15
REMARK    8  A    between atoms: C_33  and  C_34
REMARK    9  A    between atoms: C_40  and  C_41
REMARK   10  A    between atoms: N_43  and  C_44
REMARK   11  A    between atoms: C_44  and  C_45
REMARK   12  A    between atoms: C_44  and  C_49
REMARK   13  A    between atoms: C_45  and  C_46
REMARK   14  A    between atoms: C_46  and  C_47
REMARK   15  A    between atoms: C_46  and  C_48
REMARK   16  A    between atoms: N_51  and  C_52
REMARK   17  A    between atoms: C_52  and  C_53
REMARK   18  A    between atoms: C_59  and  C_60
REMARK   19  A    between atoms: C_60  and  C_61
REMARK   20  A    between atoms: C_67  and  C_68
REMARK   21  A    between atoms: C_68  and  C_69
REMARK   22  A    between atoms: C_69  and  C_70
REMARK                            x       y       z     vdW  Elec       q    Type
REMARK                         _______ _______ _______ _____ _____    ______ ____
ROOT
ATOM      1  C   UNL     1      -5.574   0.657 135.291  0.00  0.00    +0.000 C 
ATOM      2  N   UNL     1      -5.259   3.117 136.124  0.00  0.00    +0.000 N 
ATOM      3  C   UNL     1      -4.853   5.452 136.971  0.00  0.00    +0.000 C 
ATOM      4  O   UNL     1      -5.275   7.159 136.787  0.00  0.00    +0.000 OA
ATOM      5  C   UNL     1      -4.164   7.669 138.058  0.00  0.00    +0.000 C 
ATOM      6  N   UNL     1      -4.663   9.009 139.776  0.00  0.00    +0.000 N 
ATOM      7  C   UNL     1      -5.975   8.720 140.544  0.00  0.00    +0.000 C 
ATOM      8  O   UNL     1      -6.558   9.003 141.596  0.00  0.00    +0.000 OA
ATOM      9  C   UNL     1      -6.635   7.729 139.681  0.00  0.00    +0.000 C 
ATOM     10  C   UNL     1      -6.039   7.434 138.525  0.00  0.00    +0.000 C 
ATOM     11  S   UNL     1      -7.005   6.368 137.100  0.00  0.00    +0.000 S 
ATOM     12  C   UNL     1      -5.607   6.818 135.111  0.00  0.00    +0.000 C 
ATOM     13  C   UNL     1      -5.842   5.386 134.631  0.00  0.00    +0.000 A 
ATOM     14  C   UNL     1      -6.985   4.626 134.981  0.00  0.00    +0.000 A 
ATOM     15  C   UNL     1      -7.334   3.503 134.300  0.00  0.00    +0.000 A 
ATOM     16  C   UNL     1      -6.681   3.323 133.137  0.00  0.00    +0.000 A 
ATOM     17  C   UNL     1      -5.619   4.056 132.766  0.00  0.00    +0.000 A 
ATOM     18  C   UNL     1      -5.073   4.959 133.612  0.00  0.00    +0.000 A 
ATOM     19  S   UNL     1      -7.311   2.346 131.993  0.00  0.00    +0.000 S 
ATOM     20  C   UNL     1      -7.226   2.507 130.324  0.00  0.00    +0.000 C 
ATOM     21  C   UNL     1      -7.659   1.365 129.444  0.00  0.00    +0.000 C 
ATOM     22  N   UNL     1      -6.700   0.246 129.569  0.00  0.00    +0.000 N 
ATOM     23  C   UNL     1      -6.424  -0.398 130.740  0.00  0.00    +0.000 C 
ATOM     24  O   UNL     1      -5.590  -1.284 130.748  0.00  0.00    +0.000 OA
ATOM     25  C   UNL     1      -7.156  -0.015 131.998  0.00  0.00    +0.000 C 
ATOM     26  N   UNL     1      -8.067  -0.776 132.567  0.00  0.00    +0.000 N 
ATOM     27  C   UNL     1      -7.524  -1.717 133.102  0.00  0.00    +0.000 C 
ATOM     28  O   UNL     1      -8.006  -2.765 134.415  0.00  0.00    +0.000 OA
ATOM     29  C   UNL     1      -5.513  -2.313 132.654  0.00  0.00    +0.000 C 
ATOM     30  N   UNL     1      -4.821  -2.671 134.149  0.00  0.00    +0.000 N 
ATOM     31  C   UNL     1      -5.384  -1.642 135.461  0.00  0.00    +0.000 C 
ATOM     32  O   UNL     1      -5.251  -3.150 135.941  0.00  0.00    +0.000 OA
ATOM     33  H   UNL     1      -5.177   4.717 136.167  0.00  0.00    +0.000 HD
ATOM     34  H   UNL     1      -4.316   9.968 140.801  0.00  0.00    +0.000 HD
ATOM     35  H   UNL     1      -6.189  -0.028 128.721  0.00  0.00    +0.000 HD
ATOM     36  H   UNL     1      -9.053  -0.991 132.582  0.00  0.00    +0.000 HD
ATOM     37  H   UNL     1      -4.346  -1.966 134.537  0.00  0.00    +0.000 HD
ENDROOT
BRANCH  21  38
ATOM     38  C   UNL     1      -7.740   1.892 127.990  0.00  0.00    +0.000 C 
ATOM     39  O   UNL     1      -8.866   1.862 127.492  0.00  0.00    +0.000 OA
ATOM     40  N   UNL     1      -6.562   2.408 127.371  0.00  0.00    +0.000 N 
ATOM     41  C   UNL     1      -5.229   1.818 127.352  0.00  0.00    +0.000 C 
ATOM     42  C   UNL     1      -4.327   3.018 127.438  0.00  0.00    +0.000 C 
ATOM     43  C   UNL     1      -4.972   3.999 126.478  0.00  0.00    +0.000 C 
ATOM     44  C   UNL     1      -6.448   3.693 126.587  0.00  0.00    +0.000 C 
BRANCH  44  45
ATOM     45  C   UNL     1      -6.642   3.478 125.073  0.00  0.00    +0.000 C 
ATOM     46  O   UNL     1      -5.553   3.726 124.328  0.00  0.00    +0.000 OA
ATOM     47  N   UNL     1      -7.613   2.467 124.632  0.00  0.00    +0.000 N 
ATOM     48  H   UNL     1      -8.435   2.296 125.182  0.00  0.00    +0.000 HD
BRANCH  47  49
ATOM     49  C   UNL     1      -7.569   1.834 123.268  0.00  0.00    +0.000 C 
BRANCH  49  50
ATOM     50  C   UNL     1      -7.569   2.936 122.172  0.00  0.00    +0.000 C 
ATOM     51  O   UNL     1      -8.618   3.545 121.944  0.00  0.00    +0.000 OA
ATOM     52  N   UNL     1      -6.381   3.208 121.478  0.00  0.00    +0.000 N 
ATOM     53  H   UNL     1      -5.524   2.711 121.665  0.00  0.00    +0.000 HD
BRANCH  52  54
ATOM     54  C   UNL     1      -6.326   4.237 120.433  0.00  0.00    +0.000 C 
BRANCH  54  55
ATOM     55  C   UNL     1      -5.138   5.207 120.608  0.00  0.00    +0.000 C 
ATOM     56  N   UNL     1      -4.253   4.970 121.666  0.00  0.00    +0.000 N 
ATOM     57  O   UNL     1      -4.990   6.153 119.832  0.00  0.00    +0.000 OA
ATOM     58  H   UNL     1      -4.333   4.212 122.325  0.00  0.00    +0.000 HD
ATOM     59  H   UNL     1      -3.453   5.583 121.822  0.00  0.00    +0.000 HD
ENDBRANCH  54  55
ENDBRANCH  52  54
ENDBRANCH  49  50
BRANCH  49  60
ATOM     60  C   UNL     1      -8.745   0.897 123.049  0.00  0.00    +0.000 C 
BRANCH  60  61
ATOM     61  C   UNL     1      -8.478  -0.491 123.583  0.00  0.00    +0.000 C 
ATOM     62  C   UNL     1      -9.226  -1.518 122.857  0.00  0.00    +0.000 C 
ATOM     63  C   UNL     1      -7.130  -0.982 123.251  0.00  0.00    +0.000 C 
ENDBRANCH  60  61
ENDBRANCH  49  60
ENDBRANCH  47  49
ENDBRANCH  44  45
ENDBRANCH  21  38
BRANCH   1  64
ATOM     64  C   UNL     1      -6.433  -1.756 134.240  0.00  0.00    +0.000 C 
ATOM     65  C   UNL     1      -7.153  -4.052 133.413  0.00  0.00    +0.000 C 
BRANCH  64  67
ATOM     66  C   UNL     1      -6.667  -5.191 134.499  0.00  0.00    +0.000 C 
ATOM     67  C   UNL     1      -7.501  -3.799 134.131  0.00  0.00    +0.000 C 
ENDBRANCH  64  67
ENDBRANCH   1  64
BRANCH  25  68
ATOM     68  C   UNL     1      -6.231   0.439 133.149  0.00  0.00    +0.000 C 
BRANCH  68  69
ATOM     69  C   UNL     1      -4.739   0.731 132.339  0.00  0.00    +0.000 C 
ATOM     70  N   UNL     1      -3.649   0.181 132.638  0.00  0.00    +0.000 N 
ATOM     71  O   UNL     1      -4.303   1.392 131.294  0.00  0.00    +0.000 OA
ATOM     72  H   UNL     1      -3.578  -0.188 133.507  0.00  0.00    +0.000 HD
ATOM     73  H   UNL     1      -2.921   0.052 132.046  0.00  0.00    +0.000 HD
ENDBRANCH  68  69
ENDBRANCH  25  68
BRANCH   5  74
ATOM     74  C   UNL     1      -3.358   7.375 139.061  0.00  0.00    +0.000 C 
BRANCH  74  75
ATOM     75  C   UNL     1      -2.702   7.877 137.835  0.00  0.00    +0.000 A 
ATOM     76  C   UNL     1      -2.952   9.030 137.003  0.00  0.00    +0.000 A 
ATOM     77  C   UNL     1      -2.446   9.098 135.733  0.00  0.00    +0.000 A 
ATOM     78  C   UNL     1      -1.494   8.213 135.347  0.00  0.00    +0.000 A 
ATOM     79  C   UNL     1      -1.101   7.243 136.261  0.00  0.00    +0.000 A 
ATOM     80  C   UNL     1      -1.798   6.978 137.414  0.00  0.00    +0.000 A 
BRANCH  78  81
ATOM     81  O   UNL     1      -0.951   8.257 134.094  0.00  0.00    +0.000 OA
ATOM     82  H   UNL     1      -1.545   8.464 133.344  0.00  0.00    +0.000 HD
ENDBRANCH  78  81
ENDBRANCH  74  75
ENDBRANCH   5  74
BRANCH  29  83
ATOM     83  C   UNL     1      -5.225  -3.573 131.829  0.00  0.00    +0.000 C 
BRANCH  83  84
ATOM     84  C   UNL     1      -3.688  -3.865 131.208  0.00  0.00    +0.000 C 
BRANCH  84  85
ATOM     85  C   UNL     1      -3.381  -3.324 129.951  0.00  0.00    +0.000 C 
ATOM     86  N   UNL     1      -2.661  -2.195 130.070  0.00  0.00    +0.000 N 
ATOM     87  O   UNL     1      -3.740  -3.897 128.940  0.00  0.00    +0.000 OA
ATOM     88  H   UNL     1      -2.398  -1.740 130.938  0.00  0.00    +0.000 HD
ATOM     89  H   UNL     1      -2.331  -1.794 129.223  0.00  0.00    +0.000 HD
ENDBRANCH  84  85
ENDBRANCH  83  84
ENDBRANCH  29  83
TORSDOF 18
ENDMDL
MODEL 3
REMARK VINA RESULT:     -10.0      3.121      9.385
REMARK  Name = CHEMBL4128839
REMARK  22 active torsions:
REMARK  status: ('A' for Active; 'I' for Inactive)
REMARK    1  A    between atoms: C_1  and  C_2
REMARK    2  A    between atoms: C_2  and  C_3
REMARK    3  A    between atoms: C_3  and  C_4
REMARK    4  A    between atoms: C_3  and  C_5
REMARK    5  A    between atoms: C_9  and  C_10
REMARK    6  A    between atoms: C_10  and  C_11
REMARK    7  A    between atoms: C_14  and  O_15
REMARK    8  A    between atoms: C_33  and  C_34
REMARK    9  A    between atoms: C_40  and  C_41
REMARK   10  A    between atoms: N_43  and  C_44
REMARK   11  A    between atoms: C_44  and  C_45
REMARK   12  A    between atoms: C_44  and  C_49
REMARK   13  A    between atoms: C_45  and  C_46
REMARK   14  A    between atoms: C_46  and  C_47
REMARK   15  A    between atoms: C_46  and  C_48
REMARK   16  A    between atoms: N_51  and  C_52
REMARK   17  A    between atoms: C_52  and  C_53
REMARK   18  A    between atoms: C_59  and  C_60
REMARK   19  A    between atoms: C_60  and  C_61
REMARK   20  A    between atoms: C_67  and  C_68
REMARK   21  A    between atoms: C_68  and  C_69
REMARK   22  A    between atoms: C_69  and  C_70
REMARK                            x       y       z     vdW  Elec       q    Type
REMARK                         _______ _______ _______ _____ _____    ______ ____
ROOT
ATOM      1  C   UNL     1      -4.605   2.470 133.892  0.00  0.00    +0.000 C 
ATOM      2  N   UNL     1      -4.376  -0.005 134.706  0.00  0.00    +0.000 N 
ATOM      3  C   UNL     1      -4.209  -2.356 135.589  0.00  0.00    +0.000 C 
ATOM      4  O   UNL     1      -4.003  -4.060 135.160  0.00  0.00    +0.000 OA
ATOM      5  C   UNL     1      -4.121  -4.595 136.836  0.00  0.00    +0.000 C 
ATOM      6  N   UNL     1      -2.697  -5.966 137.878  0.00  0.00    +0.000 N 
ATOM      7  C   UNL     1      -1.184  -5.690 137.698  0.00  0.00    +0.000 C 
ATOM      8  O   UNL     1      -0.086  -5.993 138.176  0.00  0.00    +0.000 OA
ATOM      9  C   UNL     1      -1.173  -4.682 136.627  0.00  0.00    +0.000 C 
ATOM     10  C   UNL     1      -2.344  -4.366 136.074  0.00  0.00    +0.000 C 
ATOM     11  S   UNL     1      -2.429  -3.273 134.372  0.00  0.00    +0.000 S 
ATOM     12  C   UNL     1      -4.751  -3.687 133.632  0.00  0.00    +0.000 C 
ATOM     13  C   UNL     1      -4.841  -2.245 133.131  0.00  0.00    +0.000 A 
ATOM     14  C   UNL     1      -3.712  -1.491 132.727  0.00  0.00    +0.000 A 
ATOM     15  C   UNL     1      -3.836  -0.355 131.992  0.00  0.00    +0.000 A 
ATOM     16  C   UNL     1      -5.059  -0.154 131.466  0.00  0.00    +0.000 A 
ATOM     17  C   UNL     1      -6.135  -0.881 131.804  0.00  0.00    +0.000 A 
ATOM     18  C   UNL     1      -6.066  -1.801 132.793  0.00  0.00    +0.000 A 
ATOM     19  S   UNL     1      -5.241   0.845 130.189  0.00  0.00    +0.000 S 
ATOM     20  C   UNL     1      -6.321   0.715 128.912  0.00  0.00    +0.000 C 
ATOM     21  C   UNL     1      -6.499   1.874 127.968  0.00  0.00    +0.000 C 
ATOM     22  N   UNL     1      -7.174   2.989 128.666  0.00  0.00    +0.000 N 
ATOM     23  C   UNL     1      -6.677   3.611 129.775  0.00  0.00    +0.000 C 
ATOM     24  O   UNL     1      -7.326   4.495 130.300  0.00  0.00    +0.000 OA
ATOM     25  C   UNL     1      -5.336   3.206 130.325  0.00  0.00    +0.000 C 
ATOM     26  N   UNL     1      -4.259   3.956 130.236  0.00  0.00    +0.000 N 
ATOM     27  C   UNL     1      -4.356   4.887 131.006  0.00  0.00    +0.000 C 
ATOM     28  O   UNL     1      -3.166   5.910 131.773  0.00  0.00    +0.000 OA
ATOM     29  C   UNL     1      -6.221   5.489 131.879  0.00  0.00    +0.000 C 
ATOM     30  N   UNL     1      -5.860   5.818 133.493  0.00  0.00    +0.000 N 
ATOM     31  C   UNL     1      -4.628   4.765 134.177  0.00  0.00    +0.000 C 
ATOM     32  O   UNL     1      -4.427   6.263 134.663  0.00  0.00    +0.000 OA
ATOM     33  H   UNL     1      -4.432  -1.607 134.765  0.00  0.00    +0.000 HD
ATOM     34  H   UNL     1      -2.361  -6.944 138.888  0.00  0.00    +0.000 HD
ATOM     35  H   UNL     1      -8.092   3.279 128.306  0.00  0.00    +0.000 HD
ATOM     36  H   UNL     1      -3.464   4.172 129.654  0.00  0.00    +0.000 HD
ATOM     37  H   UNL     1      -6.010   5.105 134.078  0.00  0.00    +0.000 HD
ENDROOT
BRANCH  21  38
ATOM     38  C   UNL     1      -7.322   1.374 126.755  0.00  0.00    +0.000 C 
ATOM     39  O   UNL     1      -8.155   0.507 127.018  0.00  0.00    +0.000 OA
ATOM     40  N   UNL     1      -7.105   1.969 125.475  0.00  0.00    +0.000 N 
ATOM     41  C   UNL     1      -5.832   2.246 124.820  0.00  0.00    +0.000 C 
ATOM     42  C   UNL     1      -6.096   3.543 124.107  0.00  0.00    +0.000 C 
ATOM     43  C   UNL     1      -7.473   3.330 123.509  0.00  0.00    +0.000 C 
ATOM     44  C   UNL     1      -8.168   2.439 124.512  0.00  0.00    +0.000 C 
BRANCH  44  45
ATOM     45  C   UNL     1      -8.546   1.360 123.478  0.00  0.00    +0.000 C 
ATOM     46  O   UNL     1      -7.955   1.500 122.281  0.00  0.00    +0.000 OA
ATOM     47  N   UNL     1      -8.893   0.019 123.967  0.00  0.00    +0.000 N 
ATOM     48  H   UNL     1      -9.351  -0.082 124.856  0.00  0.00    +0.000 HD
BRANCH  47  49
ATOM     49  C   UNL     1      -8.819  -1.210 123.103  0.00  0.00    +0.000 C 
BRANCH  49  50
ATOM     50  C   UNL     1      -9.252  -2.459 123.920  0.00  0.00    +0.000 C 
ATOM     51  O   UNL     1      -9.638  -3.461 123.310  0.00  0.00    +0.000 OA
ATOM     52  N   UNL     1      -9.187  -2.416 125.320  0.00  0.00    +0.000 N 
ATOM     53  H   UNL     1      -8.871  -1.598 125.817  0.00  0.00    +0.000 HD
BRANCH  52  54
ATOM     54  C   UNL     1      -9.584  -3.567 126.139  0.00  0.00    +0.000 C 
BRANCH  54  55
ATOM     55  C   UNL     1      -8.872  -3.603 127.508  0.00  0.00    +0.000 C 
ATOM     56  N   UNL     1      -8.125  -2.480 127.884  0.00  0.00    +0.000 N 
ATOM     57  O   UNL     1      -8.970  -4.595 128.233  0.00  0.00    +0.000 OA
ATOM     58  H   UNL     1      -8.016  -1.649 127.327  0.00  0.00    +0.000 HD
ATOM     59  H   UNL     1      -7.637  -2.457 128.780  0.00  0.00    +0.000 HD
ENDBRANCH  54  55
ENDBRANCH  52  54
ENDBRANCH  49  50
BRANCH  49  60
ATOM     60  C   UNL     1      -7.420  -1.422 122.551  0.00  0.00    +0.000 C 
BRANCH  60  61
ATOM     61  C   UNL     1      -6.541  -2.200 123.503  0.00  0.00    +0.000 C 
ATOM     62  C   UNL     1      -5.357  -2.750 122.842  0.00  0.00    +0.000 C 
ATOM     63  C   UNL     1      -5.828  -1.335 124.459  0.00  0.00    +0.000 C 
ENDBRANCH  60  61
ENDBRANCH  49  60
ENDBRANCH  47  49
ENDBRANCH  44  45
ENDBRANCH  21  38
BRANCH   1  64
ATOM     64  C   UNL     1      -4.533   4.903 132.573  0.00  0.00    +0.000 C 
ATOM     65  C   UNL     1      -4.489   7.217 131.515  0.00  0.00    +0.000 C 
BRANCH  64  67
ATOM     66  C   UNL     1      -2.849   7.876 133.071  0.00  0.00    +0.000 C 
ATOM     67  C   UNL     1      -3.863   7.048 132.045  0.00  0.00    +0.000 C 
ENDBRANCH  64  67
ENDBRANCH   1  64
BRANCH  25  68
ATOM     68  C   UNL     1      -5.379   2.728 131.793  0.00  0.00    +0.000 C 
BRANCH  68  69
ATOM     69  C   UNL     1      -7.058   2.438 132.046  0.00  0.00    +0.000 C 
ATOM     70  N   UNL     1      -7.734   2.948 132.974  0.00  0.00    +0.000 N 
ATOM     71  O   UNL     1      -8.046   1.814 131.451  0.00  0.00    +0.000 OA
ATOM     72  H   UNL     1      -7.259   3.275 133.723  0.00  0.00    +0.000 HD
ATOM     73  H   UNL     1      -8.672   3.086 132.955  0.00  0.00    +0.000 HD
ENDBRANCH  68  69
ENDBRANCH  25  68
BRANCH   5  74
ATOM     74  C   UNL     1      -4.151  -4.321 138.127  0.00  0.00    +0.000 C 
BRANCH  74  75
ATOM     75  C   UNL     1      -5.438  -4.728 137.527  0.00  0.00    +0.000 A 
ATOM     76  C   UNL     1      -5.810  -5.850 136.697  0.00  0.00    +0.000 A 
ATOM     77  C   UNL     1      -6.975  -5.831 135.977  0.00  0.00    +0.000 A 
ATOM     78  C   UNL     1      -7.906  -4.882 136.243  0.00  0.00    +0.000 A 
ATOM     79  C   UNL     1      -7.613  -3.941 137.222  0.00  0.00    +0.000 A 
ATOM     80  C   UNL     1      -6.352  -3.767 137.737  0.00  0.00    +0.000 A 
BRANCH  78  81
ATOM     81  O   UNL     1      -9.088  -4.838 135.559  0.00  0.00    +0.000 OA
ATOM     82  H   UNL     1      -9.913  -4.724 136.074  0.00  0.00    +0.000 HD
ENDBRANCH  78  81
ENDBRANCH  74  75
ENDBRANCH   5  74
BRANCH  29  83
ATOM     83  C   UNL     1      -6.936   6.764 131.417  0.00  0.00    +0.000 C 
BRANCH  83  84
ATOM     84  C   UNL     1      -8.616   6.822 131.317  0.00  0.00    +0.000 C 
BRANCH  84  85
ATOM     85  C   UNL     1      -9.349   6.121 132.285  0.00  0.00    +0.000 C 
ATOM     86  N   UNL     1     -10.210   5.260 131.715  0.00  0.00    +0.000 N 
ATOM     87  O   UNL     1      -9.135   6.317 133.467  0.00  0.00    +0.000 OA
ATOM     88  H   UNL     1     -10.369   5.142 130.720  0.00  0.00    +0.000 HD
ATOM     89  H   UNL     1     -10.708   4.664 132.334  0.00  0.00    +0.000 HD
ENDBRANCH  84  85
ENDBRANCH  83  84
ENDBRANCH  29  83
TORSDOF 18
ENDMDL
MODEL 4
REMARK VINA RESULT:      -9.9      1.953      3.571
REMARK  Name = CHEMBL4128839
REMARK  22 active torsions:
REMARK  status: ('A' for Active; 'I' for Inactive)
REMARK    1  A    between atoms: C_1  and  C_2
REMARK    2  A    between atoms: C_2  and  C_3
REMARK    3  A    between atoms: C_3  and  C_4
REMARK    4  A    between atoms: C_3  and  C_5
REMARK    5  A    between atoms: C_9  and  C_10
REMARK    6  A    between atoms: C_10  and  C_11
REMARK    7  A    between atoms: C_14  and  O_15
REMARK    8  A    between atoms: C_33  and  C_34
REMARK    9  A    between atoms: C_40  and  C_41
REMARK   10  A    between atoms: N_43  and  C_44
REMARK   11  A    between atoms: C_44  and  C_45
REMARK   12  A    between atoms: C_44  and  C_49
REMARK   13  A    between atoms: C_45  and  C_46
REMARK   14  A    between atoms: C_46  and  C_47
REMARK   15  A    between atoms: C_46  and  C_48
REMARK   16  A    between atoms: N_51  and  C_52
REMARK   17  A    between atoms: C_52  and  C_53
REMARK   18  A    between atoms: C_59  and  C_60
REMARK   19  A    between atoms: C_60  and  C_61
REMARK   20  A    between atoms: C_67  and  C_68
REMARK   21  A    between atoms: C_68  and  C_69
REMARK   22  A    between atoms: C_69  and  C_70
REMARK                            x       y       z     vdW  Elec       q    Type
REMARK                         _______ _______ _______ _____ _____    ______ ____
ROOT
ATOM      1  C   UNL     1      -5.630   0.632 135.154  0.00  0.00    +0.000 C 
ATOM      2  N   UNL     1      -5.374   3.085 136.024  0.00  0.00    +0.000 N 
ATOM      3  C   UNL     1      -5.024   5.416 136.906  0.00  0.00    +0.000 C 
ATOM      4  O   UNL     1      -5.490   7.115 136.751  0.00  0.00    +0.000 OA
ATOM      5  C   UNL     1      -4.386   7.633 138.025  0.00  0.00    +0.000 C 
ATOM      6  N   UNL     1      -4.911   8.933 139.766  0.00  0.00    +0.000 N 
ATOM      7  C   UNL     1      -6.211   8.599 140.535  0.00  0.00    +0.000 C 
ATOM      8  O   UNL     1      -6.796   8.851 141.594  0.00  0.00    +0.000 OA
ATOM      9  C   UNL     1      -6.850   7.604 139.660  0.00  0.00    +0.000 C 
ATOM     10  C   UNL     1      -6.252   7.343 138.496  0.00  0.00    +0.000 C 
ATOM     11  S   UNL     1      -7.198   6.276 137.059  0.00  0.00    +0.000 S 
ATOM     12  C   UNL     1      -5.822   6.792 135.071  0.00  0.00    +0.000 C 
ATOM     13  C   UNL     1      -6.022   5.362 134.570  0.00  0.00    +0.000 A 
ATOM     14  C   UNL     1      -7.144   4.568 134.912  0.00  0.00    +0.000 A 
ATOM     15  C   UNL     1      -7.467   3.447 134.216  0.00  0.00    +0.000 A 
ATOM     16  C   UNL     1      -6.816   3.303 133.046  0.00  0.00    +0.000 A 
ATOM     17  C   UNL     1      -5.775   4.067 132.683  0.00  0.00    +0.000 A 
ATOM     18  C   UNL     1      -5.248   4.971 133.540  0.00  0.00    +0.000 A 
ATOM     19  S   UNL     1      -7.426   2.328 131.890  0.00  0.00    +0.000 S 
ATOM     20  C   UNL     1      -7.354   2.517 130.224  0.00  0.00    +0.000 C 
ATOM     21  C   UNL     1      -7.762   1.378 129.328  0.00  0.00    +0.000 C 
ATOM     22  N   UNL     1      -6.774   0.282 129.431  0.00  0.00    +0.000 N 
ATOM     23  C   UNL     1      -6.476  -0.373 130.590  0.00  0.00    +0.000 C 
ATOM     24  O   UNL     1      -5.620  -1.237 130.580  0.00  0.00    +0.000 OA
ATOM     25  C   UNL     1      -7.212  -0.029 131.858  0.00  0.00    +0.000 C 
ATOM     26  N   UNL     1      -8.100  -0.821 132.418  0.00  0.00    +0.000 N 
ATOM     27  C   UNL     1      -7.531  -1.756 132.936  0.00  0.00    +0.000 C 
ATOM     28  O   UNL     1      -7.979  -2.837 134.234  0.00  0.00    +0.000 OA
ATOM     29  C   UNL     1      -5.507  -2.294 132.470  0.00  0.00    +0.000 C 
ATOM     30  N   UNL     1      -4.799  -2.658 133.956  0.00  0.00    +0.000 N 
ATOM     31  C   UNL     1      -5.382  -1.664 135.286  0.00  0.00    +0.000 C 
ATOM     32  O   UNL     1      -5.208  -3.175 135.742  0.00  0.00    +0.000 OA
ATOM     33  H   UNL     1      -5.332   4.687 136.092  0.00  0.00    +0.000 HD
ATOM     34  H   UNL     1      -4.583   9.884 140.804  0.00  0.00    +0.000 HD
ATOM     35  H   UNL     1      -6.260   0.034 128.576  0.00  0.00    +0.000 HD
ATOM     36  H   UNL     1      -9.080  -1.061 132.434  0.00  0.00    +0.000 HD
ATOM     37  H   UNL     1      -4.341  -1.947 134.353  0.00  0.00    +0.000 HD
ENDROOT
BRANCH  21  38
ATOM     38  C   UNL     1      -7.863   1.926 127.883  0.00  0.00    +0.000 C 
ATOM     39  O   UNL     1      -8.947   1.732 127.332  0.00  0.00    +0.000 OA
ATOM     40  N   UNL     1      -6.756   2.638 127.330  0.00  0.00    +0.000 N 
ATOM     41  C   UNL     1      -5.347   2.267 127.361  0.00  0.00    +0.000 C 
ATOM     42  C   UNL     1      -4.653   3.592 127.514  0.00  0.00    +0.000 C 
ATOM     43  C   UNL     1      -5.404   4.484 126.545  0.00  0.00    +0.000 C 
ATOM     44  C   UNL     1      -6.815   3.946 126.578  0.00  0.00    +0.000 C 
BRANCH  44  45
ATOM     45  C   UNL     1      -6.908   3.746 125.053  0.00  0.00    +0.000 C 
ATOM     46  O   UNL     1      -5.724   3.625 124.431  0.00  0.00    +0.000 OA
ATOM     47  N   UNL     1      -8.089   3.060 124.511  0.00  0.00    +0.000 N 
ATOM     48  H   UNL     1      -8.977   3.166 124.968  0.00  0.00    +0.000 HD
BRANCH  47  49
ATOM     49  C   UNL     1      -8.099   2.394 123.163  0.00  0.00    +0.000 C 
BRANCH  49  50
ATOM     50  C   UNL     1      -7.919   0.859 123.328  0.00  0.00    +0.000 C 
ATOM     51  O   UNL     1      -6.809   0.365 123.107  0.00  0.00    +0.000 OA
ATOM     52  N   UNL     1      -9.016   0.082 123.726  0.00  0.00    +0.000 N 
ATOM     53  H   UNL     1      -9.922   0.486 123.907  0.00  0.00    +0.000 HD
BRANCH  52  54
ATOM     54  C   UNL     1      -8.901  -1.372 123.896  0.00  0.00    +0.000 C 
BRANCH  54  55
ATOM     55  C   UNL     1      -9.098  -1.822 125.359  0.00  0.00    +0.000 C 
ATOM     56  N   UNL     1      -8.341  -1.179 126.346  0.00  0.00    +0.000 N 
ATOM     57  O   UNL     1      -9.899  -2.717 125.630  0.00  0.00    +0.000 OA
ATOM     58  H   UNL     1      -7.675  -0.444 126.173  0.00  0.00    +0.000 HD
ATOM     59  H   UNL     1      -8.436  -1.442 127.327  0.00  0.00    +0.000 HD
ENDBRANCH  54  55
ENDBRANCH  52  54
ENDBRANCH  49  50
BRANCH  49  60
ATOM     60  C   UNL     1      -7.005   2.940 122.261  0.00  0.00    +0.000 C 
BRANCH  60  61
ATOM     61  C   UNL     1      -7.531   3.959 121.276  0.00  0.00    +0.000 C 
ATOM     62  C   UNL     1      -6.799   3.934 120.009  0.00  0.00    +0.000 C 
ATOM     63  C   UNL     1      -8.849   3.596 120.729  0.00  0.00    +0.000 C 
ENDBRANCH  60  61
ENDBRANCH  49  60
ENDBRANCH  47  49
ENDBRANCH  44  45
ENDBRANCH  21  38
BRANCH   1  64
ATOM     64  C   UNL     1      -6.434  -1.785 134.069  0.00  0.00    +0.000 C 
ATOM     65  C   UNL     1      -7.086  -4.087 133.201  0.00  0.00    +0.000 C 
BRANCH  64  67
ATOM     66  C   UNL     1      -6.495  -5.225 134.367  0.00  0.00    +0.000 C 
ATOM     67  C   UNL     1      -7.388  -3.883 133.954  0.00  0.00    +0.000 C 
ENDBRANCH  64  67
ENDBRANCH   1  64
BRANCH  25  68
ATOM     68  C   UNL     1      -6.293   0.431 133.011  0.00  0.00    +0.000 C 
BRANCH  68  69
ATOM     69  C   UNL     1      -4.812   0.773 132.199  0.00  0.00    +0.000 C 
ATOM     70  N   UNL     1      -3.707   0.251 132.489  0.00  0.00    +0.000 N 
ATOM     71  O   UNL     1      -4.399   1.458 131.160  0.00  0.00    +0.000 OA
ATOM     72  H   UNL     1      -3.622  -0.125 133.353  0.00  0.00    +0.000 HD
ATOM     73  H   UNL     1      -2.977   0.149 131.893  0.00  0.00    +0.000 HD
ENDBRANCH  68  69
ENDBRANCH  25  68
BRANCH   5  74
ATOM     74  C   UNL     1      -3.568   7.344 139.019  0.00  0.00    +0.000 C 
BRANCH  74  75
ATOM     75  C   UNL     1      -2.932   7.890 137.802  0.00  0.00    +0.000 A 
ATOM     76  C   UNL     1      -3.201   9.069 137.012  0.00  0.00    +0.000 A 
ATOM     77  C   UNL     1      -2.712   9.183 135.738  0.00  0.00    +0.000 A 
ATOM     78  C   UNL     1      -1.760   8.317 135.310  0.00  0.00    +0.000 A 
ATOM     79  C   UNL     1      -1.349   7.320 136.186  0.00  0.00    +0.000 A 
ATOM     80  C   UNL     1      -2.028   7.013 137.339  0.00  0.00    +0.000 A 
BRANCH  78  81
ATOM     81  O   UNL     1      -1.235   8.406 134.053  0.00  0.00    +0.000 OA
ATOM     82  H   UNL     1      -0.330   8.061 133.907  0.00  0.00    +0.000 HD
ENDBRANCH  78  81
ENDBRANCH  74  75
ENDBRANCH   5  74
BRANCH  29  83
ATOM     83  C   UNL     1      -5.192  -3.534 131.624  0.00  0.00    +0.000 C 
BRANCH  83  84
ATOM     84  C   UNL     1      -3.626  -3.832 131.083  0.00  0.00    +0.000 C 
BRANCH  84  85
ATOM     85  C   UNL     1      -3.270  -3.341 129.819  0.00  0.00    +0.000 C 
ATOM     86  N   UNL     1      -2.766  -2.098 129.904  0.00  0.00    +0.000 N 
ATOM     87  O   UNL     1      -3.409  -4.043 128.834  0.00  0.00    +0.000 OA
ATOM     88  H   UNL     1      -2.685  -1.540 130.747  0.00  0.00    +0.000 HD
ATOM     89  H   UNL     1      -2.412  -1.710 129.060  0.00  0.00    +0.000 HD
ENDBRANCH  84  85
ENDBRANCH  83  84
ENDBRANCH  29  83
TORSDOF 18
ENDMDL
MODEL 5
REMARK VINA RESULT:      -9.8      2.175      3.011
REMARK  Name = CHEMBL4128839
REMARK  22 active torsions:
REMARK  status: ('A' for Active; 'I' for Inactive)
REMARK    1  A    between atoms: C_1  and  C_2
REMARK    2  A    between atoms: C_2  and  C_3
REMARK    3  A    between atoms: C_3  and  C_4
REMARK    4  A    between atoms: C_3  and  C_5
REMARK    5  A    between atoms: C_9  and  C_10
REMARK    6  A    between atoms: C_10  and  C_11
REMARK    7  A    between atoms: C_14  and  O_15
REMARK    8  A    between atoms: C_33  and  C_34
REMARK    9  A    between atoms: C_40  and  C_41
REMARK   10  A    between atoms: N_43  and  C_44
REMARK   11  A    between atoms: C_44  and  C_45
REMARK   12  A    between atoms: C_44  and  C_49
REMARK   13  A    between atoms: C_45  and  C_46
REMARK   14  A    between atoms: C_46  and  C_47
REMARK   15  A    between atoms: C_46  and  C_48
REMARK   16  A    between atoms: N_51  and  C_52
REMARK   17  A    between atoms: C_52  and  C_53
REMARK   18  A    between atoms: C_59  and  C_60
REMARK   19  A    between atoms: C_60  and  C_61
REMARK   20  A    between atoms: C_67  and  C_68
REMARK   21  A    between atoms: C_68  and  C_69
REMARK   22  A    between atoms: C_69  and  C_70
REMARK                            x       y       z     vdW  Elec       q    Type
REMARK                         _______ _______ _______ _____ _____    ______ ____
ROOT
ATOM      1  C   UNL     1      -3.573   0.251 136.992  0.00  0.00    +0.000 C 
ATOM      2  N   UNL     1      -3.636   2.851 136.706  0.00  0.00    +0.000 N 
ATOM      3  C   UNL     1      -3.598   5.358 136.492  0.00  0.00    +0.000 C 
ATOM      4  O   UNL     1      -4.170   6.747 135.558  0.00  0.00    +0.000 OA
ATOM      5  C   UNL     1      -3.302   7.904 136.568  0.00  0.00    +0.000 C 
ATOM      6  N   UNL     1      -4.169   9.743 137.495  0.00  0.00    +0.000 N 
ATOM      7  C   UNL     1      -5.536   9.602 138.209  0.00  0.00    +0.000 C 
ATOM      8  O   UNL     1      -6.283  10.205 138.987  0.00  0.00    +0.000 OA
ATOM      9  C   UNL     1      -5.964   8.253 137.809  0.00  0.00    +0.000 C 
ATOM     10  C   UNL     1      -5.188   7.599 136.943  0.00  0.00    +0.000 C 
ATOM     11  S   UNL     1      -5.833   5.903 136.046  0.00  0.00    +0.000 S 
ATOM     12  C   UNL     1      -4.233   5.692 134.173  0.00  0.00    +0.000 C 
ATOM     13  C   UNL     1      -4.247   4.173 134.340  0.00  0.00    +0.000 A 
ATOM     14  C   UNL     1      -5.340   3.462 134.893  0.00  0.00    +0.000 A 
ATOM     15  C   UNL     1      -5.472   2.118 134.738  0.00  0.00    +0.000 A 
ATOM     16  C   UNL     1      -4.652   1.574 133.820  0.00  0.00    +0.000 A 
ATOM     17  C   UNL     1      -3.633   2.239 133.254  0.00  0.00    +0.000 A 
ATOM     18  C   UNL     1      -3.306   3.484 133.667  0.00  0.00    +0.000 A 
ATOM     19  S   UNL     1      -5.014   0.125 133.164  0.00  0.00    +0.000 S 
ATOM     20  C   UNL     1      -4.721  -0.412 131.601  0.00  0.00    +0.000 C 
ATOM     21  C   UNL     1      -4.906  -1.868 131.269  0.00  0.00    +0.000 C 
ATOM     22  N   UNL     1      -3.861  -2.672 131.938  0.00  0.00    +0.000 N 
ATOM     23  C   UNL     1      -3.679  -2.719 133.290  0.00  0.00    +0.000 C 
ATOM     24  O   UNL     1      -2.765  -3.381 133.743  0.00  0.00    +0.000 OA
ATOM     25  C   UNL     1      -4.612  -1.965 134.199  0.00  0.00    +0.000 C 
ATOM     26  N   UNL     1      -5.506  -2.550 134.966  0.00  0.00    +0.000 N 
ATOM     27  C   UNL     1      -4.945  -3.087 135.896  0.00  0.00    +0.000 C 
ATOM     28  O   UNL     1      -5.487  -3.554 137.490  0.00  0.00    +0.000 OA
ATOM     29  C   UNL     1      -2.840  -3.498 135.907  0.00  0.00    +0.000 C 
ATOM     30  N   UNL     1      -2.324  -3.091 137.459  0.00  0.00    +0.000 N 
ATOM     31  C   UNL     1      -3.166  -1.709 138.151  0.00  0.00    +0.000 C 
ATOM     32  O   UNL     1      -2.941  -2.840 139.242  0.00  0.00    +0.000 OA
ATOM     33  H   UNL     1      -3.730   4.315 136.061  0.00  0.00    +0.000 HD
ATOM     34  H   UNL     1      -4.068  11.082 138.031  0.00  0.00    +0.000 HD
ATOM     35  H   UNL     1      -3.212  -3.192 131.333  0.00  0.00    +0.000 HD
ATOM     36  H   UNL     1      -6.457  -2.888 134.996  0.00  0.00    +0.000 HD
ATOM     37  H   UNL     1      -1.984  -2.224 137.541  0.00  0.00    +0.000 HD
ENDROOT
BRANCH  21  38
ATOM     38  C   UNL     1      -4.844  -2.014 129.728  0.00  0.00    +0.000 C 
ATOM     39  O   UNL     1      -3.831  -2.569 129.302  0.00  0.00    +0.000 OA
ATOM     40  N   UNL     1      -5.947  -1.562 128.942  0.00  0.00    +0.000 N 
ATOM     41  C   UNL     1      -6.663  -0.296 129.047  0.00  0.00    +0.000 C 
ATOM     42  C   UNL     1      -8.083  -0.687 128.745  0.00  0.00    +0.000 C 
ATOM     43  C   UNL     1      -7.935  -1.626 127.564  0.00  0.00    +0.000 C 
ATOM     44  C   UNL     1      -6.611  -2.311 127.812  0.00  0.00    +0.000 C 
BRANCH  44  45
ATOM     45  C   UNL     1      -6.022  -1.944 126.436  0.00  0.00    +0.000 C 
ATOM     46  O   UNL     1      -5.159  -2.844 125.938  0.00  0.00    +0.000 OA
ATOM     47  N   UNL     1      -6.840  -1.135 125.521  0.00  0.00    +0.000 N 
ATOM     48  H   UNL     1      -7.472  -0.451 125.896  0.00  0.00    +0.000 HD
BRANCH  47  49
ATOM     49  C   UNL     1      -6.612  -1.103 124.035  0.00  0.00    +0.000 C 
BRANCH  49  50
ATOM     50  C   UNL     1      -7.165   0.223 123.443  0.00  0.00    +0.000 C 
ATOM     51  O   UNL     1      -6.485   0.830 122.610  0.00  0.00    +0.000 OA
ATOM     52  N   UNL     1      -8.419   0.689 123.866  0.00  0.00    +0.000 N 
ATOM     53  H   UNL     1      -8.974   0.193 124.545  0.00  0.00    +0.000 HD
BRANCH  52  54
ATOM     54  C   UNL     1      -8.988   1.936 123.340  0.00  0.00    +0.000 C 
BRANCH  54  55
ATOM     55  C   UNL     1      -8.390   3.195 124.003  0.00  0.00    +0.000 C 
ATOM     56  N   UNL     1      -7.302   3.809 123.373  0.00  0.00    +0.000 N 
ATOM     57  O   UNL     1      -8.869   3.631 125.051  0.00  0.00    +0.000 OA
ATOM     58  H   UNL     1      -6.876   3.491 122.518  0.00  0.00    +0.000 HD
ATOM     59  H   UNL     1      -6.873   4.644 123.774  0.00  0.00    +0.000 HD
ENDBRANCH  54  55
ENDBRANCH  52  54
ENDBRANCH  49  50
BRANCH  49  60
ATOM     60  C   UNL     1      -7.272  -2.283 123.343  0.00  0.00    +0.000 C 
BRANCH  60  61
ATOM     61  C   UNL     1      -8.432  -2.838 124.137  0.00  0.00    +0.000 C 
ATOM     62  C   UNL     1      -9.577  -3.169 123.288  0.00  0.00    +0.000 C 
ATOM     63  C   UNL     1      -8.181  -4.199 124.640  0.00  0.00    +0.000 C 
ENDBRANCH  60  61
ENDBRANCH  49  60
ENDBRANCH  47  49
ENDBRANCH  44  45
ENDBRANCH  21  38
BRANCH   1  64
ATOM     64  C   UNL     1      -4.021  -2.480 137.021  0.00  0.00    +0.000 C 
ATOM     65  C   UNL     1      -4.370  -4.994 137.210  0.00  0.00    +0.000 C 
BRANCH  64  67
ATOM     66  C   UNL     1      -3.876  -5.498 138.692  0.00  0.00    +0.000 C 
ATOM     67  C   UNL     1      -4.824  -4.524 137.733  0.00  0.00    +0.000 C 
ENDBRANCH  64  67
ENDBRANCH   1  64
BRANCH  25  68
ATOM     68  C   UNL     1      -3.906  -0.937 135.109  0.00  0.00    +0.000 C 
BRANCH  68  69
ATOM     69  C   UNL     1      -2.346  -0.805 134.389  0.00  0.00    +0.000 C 
ATOM     70  N   UNL     1      -1.264  -0.993 134.998  0.00  0.00    +0.000 N 
ATOM     71  O   UNL     1      -1.829  -0.611 133.200  0.00  0.00    +0.000 OA
ATOM     72  H   UNL     1      -1.285  -0.927 135.942  0.00  0.00    +0.000 HD
ATOM     73  H   UNL     1      -0.448  -1.255 134.596  0.00  0.00    +0.000 HD
ENDBRANCH  68  69
ENDBRANCH  25  68
BRANCH   5  74
ATOM     74  C   UNL     1      -2.614   8.182 137.659  0.00  0.00    +0.000 C 
BRANCH  74  75
ATOM     75  C   UNL     1      -1.853   8.218 136.392  0.00  0.00    +0.000 A 
ATOM     76  C   UNL     1      -2.108   8.861 135.125  0.00  0.00    +0.000 A 
ATOM     77  C   UNL     1      -1.442   8.468 133.995  0.00  0.00    +0.000 A 
ATOM     78  C   UNL     1      -0.358   7.662 134.107  0.00  0.00    +0.000 A 
ATOM     79  C   UNL     1       0.007   7.238 135.380  0.00  0.00    +0.000 A 
ATOM     80  C   UNL     1      -0.809   7.378 136.475  0.00  0.00    +0.000 A 
BRANCH  78  81
ATOM     81  O   UNL     1       0.344   7.260 133.007  0.00  0.00    +0.000 OA
ATOM     82  H   UNL     1       0.372   7.862 132.235  0.00  0.00    +0.000 HD
ENDBRANCH  78  81
ENDBRANCH  74  75
ENDBRANCH   5  74
BRANCH  29  83
ATOM     83  C   UNL     1      -2.311  -4.927 135.731  0.00  0.00    +0.000 C 
BRANCH  83  84
ATOM     84  C   UNL     1      -0.665  -5.259 135.858  0.00  0.00    +0.000 C 
BRANCH  84  85
ATOM     85  C   UNL     1       0.229  -4.197 135.665  0.00  0.00    +0.000 C 
ATOM     86  N   UNL     1       0.317  -3.865 134.365  0.00  0.00    +0.000 N 
ATOM     87  O   UNL     1       0.780  -3.686 136.622  0.00  0.00    +0.000 OA
ATOM     88  H   UNL     1      -0.150  -4.332 133.595  0.00  0.00    +0.000 HD
ATOM     89  H   UNL     1       0.867  -3.065 134.153  0.00  0.00    +0.000 HD
ENDBRANCH  84  85
ENDBRANCH  83  84
ENDBRANCH  29  83
TORSDOF 18
ENDMDL
MODEL 6
REMARK VINA RESULT:      -9.6      2.893      8.697
REMARK  Name = CHEMBL4128839
REMARK  22 active torsions:
REMARK  status: ('A' for Active; 'I' for Inactive)
REMARK    1  A    between atoms: C_1  and  C_2
REMARK    2  A    between atoms: C_2  and  C_3
REMARK    3  A    between atoms: C_3  and  C_4
REMARK    4  A    between atoms: C_3  and  C_5
REMARK    5  A    between atoms: C_9  and  C_10
REMARK    6  A    between atoms: C_10  and  C_11
REMARK    7  A    between atoms: C_14  and  O_15
REMARK    8  A    between atoms: C_33  and  C_34
REMARK    9  A    between atoms: C_40  and  C_41
REMARK   10  A    between atoms: N_43  and  C_44
REMARK   11  A    between atoms: C_44  and  C_45
REMARK   12  A    between atoms: C_44  and  C_49
REMARK   13  A    between atoms: C_45  and  C_46
REMARK   14  A    between atoms: C_46  and  C_47
REMARK   15  A    between atoms: C_46  and  C_48
REMARK   16  A    between atoms: N_51  and  C_52
REMARK   17  A    between atoms: C_52  and  C_53
REMARK   18  A    between atoms: C_59  and  C_60
REMARK   19  A    between atoms: C_60  and  C_61
REMARK   20  A    between atoms: C_67  and  C_68
REMARK   21  A    between atoms: C_68  and  C_69
REMARK   22  A    between atoms: C_69  and  C_70
REMARK                            x       y       z     vdW  Elec       q    Type
REMARK                         _______ _______ _______ _____ _____    ______ ____
ROOT
ATOM      1  C   UNL     1      -4.697   2.686 134.265  0.00  0.00    +0.000 C 
ATOM      2  N   UNL     1      -4.692   0.251 135.221  0.00  0.00    +0.000 N 
ATOM      3  C   UNL     1      -4.769  -2.059 136.218  0.00  0.00    +0.000 C 
ATOM      4  O   UNL     1      -4.415  -3.771 135.951  0.00  0.00    +0.000 OA
ATOM      5  C   UNL     1      -5.035  -4.244 137.532  0.00  0.00    +0.000 C 
ATOM      6  N   UNL     1      -3.980  -5.534 139.022  0.00  0.00    +0.000 N 
ATOM      7  C   UNL     1      -2.490  -5.222 139.302  0.00  0.00    +0.000 C 
ATOM      8  O   UNL     1      -1.588  -5.475 140.107  0.00  0.00    +0.000 OA
ATOM      9  C   UNL     1      -2.165  -4.256 138.242  0.00  0.00    +0.000 C 
ATOM     10  C   UNL     1      -3.114  -3.995 137.342  0.00  0.00    +0.000 C 
ATOM     11  S   UNL     1      -2.688  -2.970 135.649  0.00  0.00    +0.000 S 
ATOM     12  C   UNL     1      -4.663  -3.478 134.251  0.00  0.00    +0.000 C 
ATOM     13  C   UNL     1      -4.616  -2.060 133.682  0.00  0.00    +0.000 A 
ATOM     14  C   UNL     1      -3.429  -1.290 133.610  0.00  0.00    +0.000 A 
ATOM     15  C   UNL     1      -3.338  -0.186 132.823  0.00  0.00    +0.000 A 
ATOM     16  C   UNL     1      -4.342  -0.041 131.938  0.00  0.00    +0.000 A 
ATOM     17  C   UNL     1      -5.459  -0.784 131.962  0.00  0.00    +0.000 A 
ATOM     18  C   UNL     1      -5.684  -1.663 132.965  0.00  0.00    +0.000 A 
ATOM     19  S   UNL     1      -4.138   0.903 130.623  0.00  0.00    +0.000 S 
ATOM     20  C   UNL     1      -4.771   0.694 129.083  0.00  0.00    +0.000 C 
ATOM     21  C   UNL     1      -4.667   1.810 128.079  0.00  0.00    +0.000 C 
ATOM     22  N   UNL     1      -5.541   2.932 128.485  0.00  0.00    +0.000 N 
ATOM     23  C   UNL     1      -5.419   3.609 129.664  0.00  0.00    +0.000 C 
ATOM     24  O   UNL     1      -6.212   4.494 129.924  0.00  0.00    +0.000 OA
ATOM     25  C   UNL     1      -4.306   3.264 130.616  0.00  0.00    +0.000 C 
ATOM     26  N   UNL     1      -3.266   4.040 130.828  0.00  0.00    +0.000 N 
ATOM     27  C   UNL     1      -3.609   4.996 131.488  0.00  0.00    +0.000 C 
ATOM     28  O   UNL     1      -2.729   6.082 132.537  0.00  0.00    +0.000 OA
ATOM     29  C   UNL     1      -5.661   5.578 131.719  0.00  0.00    +0.000 C 
ATOM     30  N   UNL     1      -5.820   5.979 133.349  0.00  0.00    +0.000 N 
ATOM     31  C   UNL     1      -4.842   4.988 134.426  0.00  0.00    +0.000 C 
ATOM     32  O   UNL     1      -4.823   6.510 134.882  0.00  0.00    +0.000 OA
ATOM     33  H   UNL     1      -4.739  -1.348 135.332  0.00  0.00    +0.000 HD
ATOM     34  H   UNL     1      -3.957  -6.462 140.129  0.00  0.00    +0.000 HD
ATOM     35  H   UNL     1      -6.308   3.181 127.848  0.00  0.00    +0.000 HD
ATOM     36  H   UNL     1      -2.333   4.256 130.509  0.00  0.00    +0.000 HD
ATOM     37  H   UNL     1      -6.131   5.285 133.891  0.00  0.00    +0.000 HD
ENDROOT
BRANCH  21  38
ATOM     38  C   UNL     1      -5.069   1.241 126.696  0.00  0.00    +0.000 C 
ATOM     39  O   UNL     1      -4.957   2.033 125.759  0.00  0.00    +0.000 OA
ATOM     40  N   UNL     1      -5.473  -0.125 126.597  0.00  0.00    +0.000 N 
ATOM     41  C   UNL     1      -6.411  -0.845 127.448  0.00  0.00    +0.000 C 
ATOM     42  C   UNL     1      -5.808  -2.221 127.525  0.00  0.00    +0.000 C 
ATOM     43  C   UNL     1      -5.388  -2.490 126.093  0.00  0.00    +0.000 C 
ATOM     44  C   UNL     1      -5.009  -1.126 125.566  0.00  0.00    +0.000 C 
BRANCH  44  45
ATOM     45  C   UNL     1      -5.950  -1.197 124.347  0.00  0.00    +0.000 C 
ATOM     46  O   UNL     1      -5.714  -2.224 123.516  0.00  0.00    +0.000 OA
ATOM     47  N   UNL     1      -7.316  -0.675 124.492  0.00  0.00    +0.000 N 
ATOM     48  H   UNL     1      -7.487   0.105 125.101  0.00  0.00    +0.000 HD
BRANCH  47  49
ATOM     49  C   UNL     1      -8.447  -1.089 123.591  0.00  0.00    +0.000 C 
BRANCH  49  50
ATOM     50  C   UNL     1      -9.201   0.168 123.075  0.00  0.00    +0.000 C 
ATOM     51  O   UNL     1     -10.377   0.049 122.719  0.00  0.00    +0.000 OA
ATOM     52  N   UNL     1      -8.528   1.398 123.032  0.00  0.00    +0.000 N 
ATOM     53  H   UNL     1      -7.569   1.495 123.324  0.00  0.00    +0.000 HD
BRANCH  52  54
ATOM     54  C   UNL     1      -9.193   2.616 122.553  0.00  0.00    +0.000 C 
BRANCH  54  55
ATOM     55  C   UNL     1      -8.351   3.391 121.517  0.00  0.00    +0.000 C 
ATOM     56  N   UNL     1      -9.002   3.868 120.374  0.00  0.00    +0.000 N 
ATOM     57  O   UNL     1      -7.148   3.574 121.708  0.00  0.00    +0.000 OA
ATOM     58  H   UNL     1      -9.981   3.743 120.174  0.00  0.00    +0.000 HD
ATOM     59  H   UNL     1      -8.487   4.387 119.661  0.00  0.00    +0.000 HD
ENDBRANCH  54  55
ENDBRANCH  52  54
ENDBRANCH  49  50
BRANCH  49  60
ATOM     60  C   UNL     1      -9.422  -2.010 124.305  0.00  0.00    +0.000 C 
BRANCH  60  61
ATOM     61  C   UNL     1      -8.748  -2.840 125.373  0.00  0.00    +0.000 C 
ATOM     62  C   UNL     1      -9.689  -3.300 126.395  0.00  0.00    +0.000 C 
ATOM     63  C   UNL     1      -8.342  -4.171 124.890  0.00  0.00    +0.000 C 
ENDBRANCH  60  61
ENDBRANCH  49  60
ENDBRANCH  47  49
ENDBRANCH  44  45
ENDBRANCH  21  38
BRANCH   1  64
ATOM     64  C   UNL     1      -4.260   5.067 132.923  0.00  0.00    +0.000 C 
ATOM     65  C   UNL     1      -3.932   7.340 131.825  0.00  0.00    +0.000 C 
BRANCH  64  67
ATOM     66  C   UNL     1      -2.700   8.039 133.735  0.00  0.00    +0.000 C 
ATOM     67  C   UNL     1      -3.514   7.218 132.539  0.00  0.00    +0.000 C 
ENDBRANCH  64  67
ENDBRANCH   1  64
BRANCH  25  68
ATOM     68  C   UNL     1      -4.791   2.842 132.021  0.00  0.00    +0.000 C 
BRANCH  68  69
ATOM     69  C   UNL     1      -6.460   2.503 131.757  0.00  0.00    +0.000 C 
ATOM     70  N   UNL     1      -7.398   2.977 132.444  0.00  0.00    +0.000 N 
ATOM     71  O   UNL     1      -7.205   1.865 130.887  0.00  0.00    +0.000 OA
ATOM     72  H   UNL     1      -7.178   3.303 133.305  0.00  0.00    +0.000 HD
ATOM     73  H   UNL     1      -8.290   3.091 132.148  0.00  0.00    +0.000 HD
ENDBRANCH  68  69
ENDBRANCH  25  68
BRANCH   5  74
ATOM     74  C   UNL     1      -5.465  -3.922 138.738  0.00  0.00    +0.000 C 
BRANCH  74  75
ATOM     75  C   UNL     1      -6.505  -4.348 137.777  0.00  0.00    +0.000 A 
ATOM     76  C   UNL     1      -6.625  -5.510 136.930  0.00  0.00    +0.000 A 
ATOM     77  C   UNL     1      -7.497  -5.518 135.874  0.00  0.00    +0.000 A 
ATOM     78  C   UNL     1      -8.436  -4.546 135.780  0.00  0.00    +0.000 A 
ATOM     79  C   UNL     1      -8.444  -3.553 136.752  0.00  0.00    +0.000 A 
ATOM     80  C   UNL     1      -7.409  -3.366 137.635  0.00  0.00    +0.000 A 
BRANCH  78  81
ATOM     81  O   UNL     1      -9.336  -4.527 134.752  0.00  0.00    +0.000 OA
ATOM     82  H   UNL     1      -9.867  -5.333 134.591  0.00  0.00    +0.000 HD
ENDBRANCH  78  81
ENDBRANCH  74  75
ENDBRANCH   5  74
BRANCH  29  83
ATOM     83  C   UNL     1      -6.218   6.814 131.003  0.00  0.00    +0.000 C 
BRANCH  83  84
ATOM     84  C   UNL     1      -7.864   7.167 131.047  0.00  0.00    +0.000 C 
BRANCH  84  85
ATOM     85  C   UNL     1      -8.728   6.177 131.538  0.00  0.00    +0.000 C 
ATOM     86  N   UNL     1      -9.055   5.296 130.577  0.00  0.00    +0.000 N 
ATOM     87  O   UNL     1      -9.054   6.183 132.710  0.00  0.00    +0.000 OA
ATOM     88  H   UNL     1      -8.773   5.339 129.603  0.00  0.00    +0.000 HD
ATOM     89  H   UNL     1      -9.598   4.515 130.864  0.00  0.00    +0.000 HD
ENDBRANCH  84  85
ENDBRANCH  83  84
ENDBRANCH  29  83
TORSDOF 18
ENDMDL
MODEL 7
REMARK VINA RESULT:      -9.4      3.386      9.254
REMARK  Name = CHEMBL4128839
REMARK  22 active torsions:
REMARK  status: ('A' for Active; 'I' for Inactive)
REMARK    1  A    between atoms: C_1  and  C_2
REMARK    2  A    between atoms: C_2  and  C_3
REMARK    3  A    between atoms: C_3  and  C_4
REMARK    4  A    between atoms: C_3  and  C_5
REMARK    5  A    between atoms: C_9  and  C_10
REMARK    6  A    between atoms: C_10  and  C_11
REMARK    7  A    between atoms: C_14  and  O_15
REMARK    8  A    between atoms: C_33  and  C_34
REMARK    9  A    between atoms: C_40  and  C_41
REMARK   10  A    between atoms: N_43  and  C_44
REMARK   11  A    between atoms: C_44  and  C_45
REMARK   12  A    between atoms: C_44  and  C_49
REMARK   13  A    between atoms: C_45  and  C_46
REMARK   14  A    between atoms: C_46  and  C_47
REMARK   15  A    between atoms: C_46  and  C_48
REMARK   16  A    between atoms: N_51  and  C_52
REMARK   17  A    between atoms: C_52  and  C_53
REMARK   18  A    between atoms: C_59  and  C_60
REMARK   19  A    between atoms: C_60  and  C_61
REMARK   20  A    between atoms: C_67  and  C_68
REMARK   21  A    between atoms: C_68  and  C_69
REMARK   22  A    between atoms: C_69  and  C_70
REMARK                            x       y       z     vdW  Elec       q    Type
REMARK                         _______ _______ _______ _____ _____    ______ ____
ROOT
ATOM      1  C   UNL     1      -3.718   2.822 134.652  0.00  0.00    +0.000 C 
ATOM      2  N   UNL     1      -4.315   0.526 135.755  0.00  0.00    +0.000 N 
ATOM      3  C   UNL     1      -4.929  -1.624 136.910  0.00  0.00    +0.000 C 
ATOM      4  O   UNL     1      -5.300  -3.339 136.688  0.00  0.00    +0.000 OA
ATOM      5  C   UNL     1      -5.578  -3.599 138.410  0.00  0.00    +0.000 C 
ATOM      6  N   UNL     1      -4.681  -5.226 139.652  0.00  0.00    +0.000 N 
ATOM      7  C   UNL     1      -3.164  -5.486 139.493  0.00  0.00    +0.000 C 
ATOM      8  O   UNL     1      -2.224  -6.073 140.041  0.00  0.00    +0.000 OA
ATOM      9  C   UNL     1      -2.826  -4.675 138.314  0.00  0.00    +0.000 C 
ATOM     10  C   UNL     1      -3.831  -4.061 137.688  0.00  0.00    +0.000 C 
ATOM     11  S   UNL     1      -3.559  -3.214 135.869  0.00  0.00    +0.000 S 
ATOM     12  C   UNL     1      -5.892  -2.928 135.102  0.00  0.00    +0.000 C 
ATOM     13  C   UNL     1      -5.504  -1.609 134.435  0.00  0.00    +0.000 A 
ATOM     14  C   UNL     1      -4.191  -1.322 133.985  0.00  0.00    +0.000 A 
ATOM     15  C   UNL     1      -3.937  -0.306 133.120  0.00  0.00    +0.000 A 
ATOM     16  C   UNL     1      -5.028   0.220 132.532  0.00  0.00    +0.000 A 
ATOM     17  C   UNL     1      -6.282  -0.066 132.915  0.00  0.00    +0.000 A 
ATOM     18  C   UNL     1      -6.515  -0.831 134.005  0.00  0.00    +0.000 A 
ATOM     19  S   UNL     1      -4.877   1.062 131.143  0.00  0.00    +0.000 S 
ATOM     20  C   UNL     1      -5.947   1.141 129.853  0.00  0.00    +0.000 C 
ATOM     21  C   UNL     1      -5.737   2.171 128.775  0.00  0.00    +0.000 C 
ATOM     22  N   UNL     1      -6.002   3.522 129.316  0.00  0.00    +0.000 N 
ATOM     23  C   UNL     1      -5.321   4.075 130.362  0.00  0.00    +0.000 C 
ATOM     24  O   UNL     1      -5.639   5.180 130.759  0.00  0.00    +0.000 OA
ATOM     25  C   UNL     1      -4.186   3.321 131.001  0.00  0.00    +0.000 C 
ATOM     26  N   UNL     1      -2.922   3.659 130.863  0.00  0.00    +0.000 N 
ATOM     27  C   UNL     1      -2.702   4.656 131.516  0.00  0.00    +0.000 C 
ATOM     28  O   UNL     1      -1.236   5.316 132.200  0.00  0.00    +0.000 OA
ATOM     29  C   UNL     1      -4.258   5.938 132.249  0.00  0.00    +0.000 C 
ATOM     30  N   UNL     1      -3.800   6.323 133.825  0.00  0.00    +0.000 N 
ATOM     31  C   UNL     1      -2.980   5.013 134.669  0.00  0.00    +0.000 C 
ATOM     32  O   UNL     1      -2.293   6.410 134.985  0.00  0.00    +0.000 OA
ATOM     33  H   UNL     1      -4.897  -0.948 135.997  0.00  0.00    +0.000 HD
ATOM     34  H   UNL     1      -4.682  -6.131 140.780  0.00  0.00    +0.000 HD
ATOM     35  H   UNL     1      -6.775   4.052 128.894  0.00  0.00    +0.000 HD
ATOM     36  H   UNL     1      -2.103   3.530 130.287  0.00  0.00    +0.000 HD
ATOM     37  H   UNL     1      -4.173   5.774 134.483  0.00  0.00    +0.000 HD
ENDROOT
BRANCH  21  38
ATOM     38  C   UNL     1      -6.686   1.827 127.601  0.00  0.00    +0.000 C 
ATOM     39  O   UNL     1      -7.605   1.059 127.887  0.00  0.00    +0.000 OA
ATOM     40  N   UNL     1      -6.471   2.442 126.330  0.00  0.00    +0.000 N 
ATOM     41  C   UNL     1      -5.214   2.585 125.606  0.00  0.00    +0.000 C 
ATOM     42  C   UNL     1      -5.353   3.933 124.954  0.00  0.00    +0.000 C 
ATOM     43  C   UNL     1      -6.778   3.917 124.437  0.00  0.00    +0.000 C 
ATOM     44  C   UNL     1      -7.521   3.079 125.452  0.00  0.00    +0.000 C 
BRANCH  44  45
ATOM     45  C   UNL     1      -8.091   2.098 124.409  0.00  0.00    +0.000 C 
ATOM     46  O   UNL     1      -7.946   2.489 123.133  0.00  0.00    +0.000 OA
ATOM     47  N   UNL     1      -8.103   0.665 124.735  0.00  0.00    +0.000 N 
ATOM     48  H   UNL     1      -8.230   0.374 125.688  0.00  0.00    +0.000 HD
BRANCH  47  49
ATOM     49  C   UNL     1      -8.178  -0.410 123.686  0.00  0.00    +0.000 C 
BRANCH  49  50
ATOM     50  C   UNL     1      -8.915  -1.655 124.254  0.00  0.00    +0.000 C 
ATOM     51  O   UNL     1      -9.539  -2.381 123.474  0.00  0.00    +0.000 OA
ATOM     52  N   UNL     1      -8.846  -1.920 125.630  0.00  0.00    +0.000 N 
ATOM     53  H   UNL     1      -8.336  -1.327 126.265  0.00  0.00    +0.000 HD
BRANCH  52  54
ATOM     54  C   UNL     1      -9.524  -3.081 126.218  0.00  0.00    +0.000 C 
BRANCH  54  55
ATOM     55  C   UNL     1      -8.897  -3.527 127.556  0.00  0.00    +0.000 C 
ATOM     56  N   UNL     1      -7.669  -2.962 127.921  0.00  0.00    +0.000 N 
ATOM     57  O   UNL     1      -9.472  -4.352 128.267  0.00  0.00    +0.000 OA
ATOM     58  H   UNL     1      -7.162  -2.285 127.375  0.00  0.00    +0.000 HD
ATOM     59  H   UNL     1      -7.216  -3.224 128.797  0.00  0.00    +0.000 HD
ENDBRANCH  54  55
ENDBRANCH  52  54
ENDBRANCH  49  50
BRANCH  49  60
ATOM     60  C   UNL     1      -6.797  -0.814 123.200  0.00  0.00    +0.000 C 
BRANCH  60  61
ATOM     61  C   UNL     1      -6.217  -1.954 124.006  0.00  0.00    +0.000 C 
ATOM     62  C   UNL     1      -5.247  -2.737 123.240  0.00  0.00    +0.000 C 
ATOM     63  C   UNL     1      -5.291  -1.497 125.056  0.00  0.00    +0.000 C 
ENDBRANCH  60  61
ENDBRANCH  49  60
ENDBRANCH  47  49
ENDBRANCH  44  45
ENDBRANCH  21  38
BRANCH   1  64
ATOM     64  C   UNL     1      -2.854   4.918 133.063  0.00  0.00    +0.000 C 
ATOM     65  C   UNL     1      -2.004   6.924 131.748  0.00  0.00    +0.000 C 
BRANCH  64  67
ATOM     66  C   UNL     1      -1.402   8.033 132.734  0.00  0.00    +0.000 C 
ATOM     67  C   UNL     1      -1.420   6.477 132.147  0.00  0.00    +0.000 C 
ENDBRANCH  64  67
ENDBRANCH   1  64
BRANCH  25  68
ATOM     68  C   UNL     1      -4.375   3.065 132.512  0.00  0.00    +0.000 C 
BRANCH  68  69
ATOM     69  C   UNL     1      -6.051   3.390 132.742  0.00  0.00    +0.000 C 
ATOM     70  N   UNL     1      -6.507   4.225 133.563  0.00  0.00    +0.000 N 
ATOM     71  O   UNL     1      -7.199   3.051 132.205  0.00  0.00    +0.000 OA
ATOM     72  H   UNL     1      -5.940   4.481 134.275  0.00  0.00    +0.000 HD
ATOM     73  H   UNL     1      -7.344   4.663 133.490  0.00  0.00    +0.000 HD
ENDBRANCH  68  69
ENDBRANCH  25  68
BRANCH   5  74
ATOM     74  C   UNL     1      -5.508  -3.177 139.659  0.00  0.00    +0.000 C 
BRANCH  74  75
ATOM     75  C   UNL     1      -6.869  -3.280 139.090  0.00  0.00    +0.000 A 
ATOM     76  C   UNL     1      -7.549  -4.342 138.387  0.00  0.00    +0.000 A 
ATOM     77  C   UNL     1      -8.676  -4.084 137.653  0.00  0.00    +0.000 A 
ATOM     78  C   UNL     1      -9.307  -2.893 137.798  0.00  0.00    +0.000 A 
ATOM     79  C   UNL     1      -8.749  -1.965 138.668  0.00  0.00    +0.000 A 
ATOM     80  C   UNL     1      -7.480  -2.088 139.178  0.00  0.00    +0.000 A 
BRANCH  78  81
ATOM     81  O   UNL     1     -10.443  -2.603 137.097  0.00  0.00    +0.000 OA
ATOM     82  H   UNL     1     -10.503  -2.914 136.171  0.00  0.00    +0.000 HD
ENDBRANCH  78  81
ENDBRANCH  74  75
ENDBRANCH   5  74
BRANCH  29  83
ATOM     83  C   UNL     1      -4.514   7.312 131.618  0.00  0.00    +0.000 C 
BRANCH  83  84
ATOM     84  C   UNL     1      -4.772   7.465 129.961  0.00  0.00    +0.000 C 
BRANCH  84  85
ATOM     85  C   UNL     1      -3.866   8.248 129.232  0.00  0.00    +0.000 C 
ATOM     86  N   UNL     1      -3.959   9.545 129.574  0.00  0.00    +0.000 N 
ATOM     87  O   UNL     1      -3.111   7.721 128.437  0.00  0.00    +0.000 OA
ATOM     88  H   UNL     1      -4.619   9.946 130.232  0.00  0.00    +0.000 HD
ATOM     89  H   UNL     1      -3.292  10.156 129.163  0.00  0.00    +0.000 HD
ENDBRANCH  84  85
ENDBRANCH  83  84
ENDBRANCH  29  83
TORSDOF 18
ENDMDL
MODEL 8
REMARK VINA RESULT:      -9.4      3.072      9.828
REMARK  Name = CHEMBL4128839
REMARK  22 active torsions:
REMARK  status: ('A' for Active; 'I' for Inactive)
REMARK    1  A    between atoms: C_1  and  C_2
REMARK    2  A    between atoms: C_2  and  C_3
REMARK    3  A    between atoms: C_3  and  C_4
REMARK    4  A    between atoms: C_3  and  C_5
REMARK    5  A    between atoms: C_9  and  C_10
REMARK    6  A    between atoms: C_10  and  C_11
REMARK    7  A    between atoms: C_14  and  O_15
REMARK    8  A    between atoms: C_33  and  C_34
REMARK    9  A    between atoms: C_40  and  C_41
REMARK   10  A    between atoms: N_43  and  C_44
REMARK   11  A    between atoms: C_44  and  C_45
REMARK   12  A    between atoms: C_44  and  C_49
REMARK   13  A    between atoms: C_45  and  C_46
REMARK   14  A    between atoms: C_46  and  C_47
REMARK   15  A    between atoms: C_46  and  C_48
REMARK   16  A    between atoms: N_51  and  C_52
REMARK   17  A    between atoms: C_52  and  C_53
REMARK   18  A    between atoms: C_59  and  C_60
REMARK   19  A    between atoms: C_60  and  C_61
REMARK   20  A    between atoms: C_67  and  C_68
REMARK   21  A    between atoms: C_68  and  C_69
REMARK   22  A    between atoms: C_69  and  C_70
REMARK                            x       y       z     vdW  Elec       q    Type
REMARK                         _______ _______ _______ _____ _____    ______ ____
ROOT
ATOM      1  C   UNL     1      -4.703   5.304 131.546  0.00  0.00    +0.000 C 
ATOM      2  N   UNL     1      -4.576   6.393 133.921  0.00  0.00    +0.000 N 
ATOM      3  C   UNL     1      -4.522   7.527 136.168  0.00  0.00    +0.000 C 
ATOM      4  O   UNL     1      -4.234   7.312 137.899  0.00  0.00    +0.000 OA
ATOM      5  C   UNL     1      -4.604   8.996 138.267  0.00  0.00    +0.000 C 
ATOM      6  N   UNL     1      -3.343  10.378 139.491  0.00  0.00    +0.000 N 
ATOM      7  C   UNL     1      -1.824  10.404 139.194  0.00  0.00    +0.000 C 
ATOM      8  O   UNL     1      -0.810  11.072 139.418  0.00  0.00    +0.000 OA
ATOM      9  C   UNL     1      -1.658   9.250 138.297  0.00  0.00    +0.000 C 
ATOM     10  C   UNL     1      -2.733   8.495 138.069  0.00  0.00    +0.000 C 
ATOM     11  S   UNL     1      -2.566   6.697 137.153  0.00  0.00    +0.000 S 
ATOM     12  C   UNL     1      -4.741   5.657 137.700  0.00  0.00    +0.000 C 
ATOM     13  C   UNL     1      -4.768   5.003 136.318  0.00  0.00    +0.000 A 
ATOM     14  C   UNL     1      -3.598   4.701 135.578  0.00  0.00    +0.000 A 
ATOM     15  C   UNL     1      -3.619   3.844 134.524  0.00  0.00    +0.000 A 
ATOM     16  C   UNL     1      -4.748   3.119 134.410  0.00  0.00    +0.000 A 
ATOM     17  C   UNL     1      -5.856   3.361 135.127  0.00  0.00    +0.000 A 
ATOM     18  C   UNL     1      -5.930   4.438 135.942  0.00  0.00    +0.000 A 
ATOM     19  S   UNL     1      -4.741   1.734 133.548  0.00  0.00    +0.000 S 
ATOM     20  C   UNL     1      -5.610   0.327 133.833  0.00  0.00    +0.000 C 
ATOM     21  C   UNL     1      -5.652  -0.747 132.778  0.00  0.00    +0.000 C 
ATOM     22  N   UNL     1      -6.438  -0.277 131.617  0.00  0.00    +0.000 N 
ATOM     23  C   UNL     1      -6.126   0.824 130.876  0.00  0.00    +0.000 C 
ATOM     24  O   UNL     1      -6.858   1.151 129.961  0.00  0.00    +0.000 OA
ATOM     25  C   UNL     1      -4.881   1.611 131.188  0.00  0.00    +0.000 C 
ATOM     26  N   UNL     1      -3.812   1.612 130.422  0.00  0.00    +0.000 N 
ATOM     27  C   UNL     1      -4.037   2.258 129.423  0.00  0.00    +0.000 C 
ATOM     28  O   UNL     1      -2.991   3.090 128.297  0.00  0.00    +0.000 OA
ATOM     29  C   UNL     1      -6.020   2.770 128.786  0.00  0.00    +0.000 C 
ATOM     30  N   UNL     1      -5.918   4.378 128.289  0.00  0.00    +0.000 N 
ATOM     31  C   UNL     1      -4.794   5.347 129.236  0.00  0.00    +0.000 C 
ATOM     32  O   UNL     1      -4.687   5.702 127.692  0.00  0.00    +0.000 OA
ATOM     33  H   UNL     1      -4.623   6.606 135.510  0.00  0.00    +0.000 HD
ATOM     34  H   UNL     1      -3.157  11.522 140.354  0.00  0.00    +0.000 HD
ATOM     35  H   UNL     1      -7.293  -0.801 131.389  0.00  0.00    +0.000 HD
ATOM     36  H   UNL     1      -2.939   1.139 130.244  0.00  0.00    +0.000 HD
ATOM     37  H   UNL     1      -6.148   5.003 128.944  0.00  0.00    +0.000 HD
ENDROOT
BRANCH  21  38
ATOM     38  C   UNL     1      -6.272  -2.014 133.418  0.00  0.00    +0.000 C 
ATOM     39  O   UNL     1      -7.458  -1.908 133.729  0.00  0.00    +0.000 OA
ATOM     40  N   UNL     1      -5.472  -3.189 133.547  0.00  0.00    +0.000 N 
ATOM     41  C   UNL     1      -4.108  -3.293 134.052  0.00  0.00    +0.000 C 
ATOM     42  C   UNL     1      -3.509  -4.366 133.185  0.00  0.00    +0.000 C 
ATOM     43  C   UNL     1      -4.608  -5.409 133.126  0.00  0.00    +0.000 C 
ATOM     44  C   UNL     1      -5.881  -4.598 133.189  0.00  0.00    +0.000 C 
BRANCH  44  45
ATOM     45  C   UNL     1      -6.460  -5.368 134.392  0.00  0.00    +0.000 C 
ATOM     46  O   UNL     1      -5.632  -6.282 134.923  0.00  0.00    +0.000 OA
ATOM     47  N   UNL     1      -7.438  -4.685 135.250  0.00  0.00    +0.000 N 
ATOM     48  H   UNL     1      -8.067  -4.014 134.847  0.00  0.00    +0.000 HD
BRANCH  47  49
ATOM     49  C   UNL     1      -7.718  -5.109 136.666  0.00  0.00    +0.000 C 
BRANCH  49  50
ATOM     50  C   UNL     1      -9.221  -4.894 136.997  0.00  0.00    +0.000 C 
ATOM     51  O   UNL     1     -10.063  -5.555 136.383  0.00  0.00    +0.000 OA
ATOM     52  N   UNL     1      -9.576  -3.961 137.982  0.00  0.00    +0.000 N 
ATOM     53  H   UNL     1      -8.888  -3.422 138.484  0.00  0.00    +0.000 HD
BRANCH  52  54
ATOM     54  C   UNL     1     -10.981  -3.719 138.333  0.00  0.00    +0.000 C 
BRANCH  54  55
ATOM     55  C   UNL     1     -11.411  -2.254 138.108  0.00  0.00    +0.000 C 
ATOM     56  N   UNL     1     -12.673  -2.023 137.549  0.00  0.00    +0.000 N 
ATOM     57  O   UNL     1     -10.656  -1.331 138.418  0.00  0.00    +0.000 OA
ATOM     58  H   UNL     1     -13.324  -2.743 137.280  0.00  0.00    +0.000 HD
ATOM     59  H   UNL     1     -13.002  -1.072 137.382  0.00  0.00    +0.000 HD
ENDBRANCH  54  55
ENDBRANCH  52  54
ENDBRANCH  49  50
BRANCH  49  60
ATOM     60  C   UNL     1      -6.863  -4.340 137.659  0.00  0.00    +0.000 C 
BRANCH  60  61
ATOM     61  C   UNL     1      -6.224  -3.119 137.038  0.00  0.00    +0.000 C 
ATOM     62  C   UNL     1      -6.835  -1.874 137.506  0.00  0.00    +0.000 C 
ATOM     63  C   UNL     1      -4.869  -2.859 137.554  0.00  0.00    +0.000 C 
ENDBRANCH  60  61
ENDBRANCH  49  60
ENDBRANCH  47  49
ENDBRANCH  44  45
ENDBRANCH  21  38
BRANCH   1  64
ATOM     64  C   UNL     1      -4.454   3.770 129.256  0.00  0.00    +0.000 C 
ATOM     65  C   UNL     1      -4.238   2.507 127.057  0.00  0.00    +0.000 C 
BRANCH  64  67
ATOM     66  C   UNL     1      -4.174   3.714 125.814  0.00  0.00    +0.000 C 
ATOM     67  C   UNL     1      -3.618   3.042 127.231  0.00  0.00    +0.000 C 
ENDBRANCH  64  67
ENDBRANCH   1  64
BRANCH  25  68
ATOM     68  C   UNL     1      -5.146   3.097 131.518  0.00  0.00    +0.000 C 
BRANCH  68  69
ATOM     69  C   UNL     1      -6.842   3.121 131.816  0.00  0.00    +0.000 C 
ATOM     70  N   UNL     1      -7.660   3.854 131.206  0.00  0.00    +0.000 N 
ATOM     71  O   UNL     1      -7.720   2.468 132.539  0.00  0.00    +0.000 OA
ATOM     72  H   UNL     1      -7.311   4.617 130.770  0.00  0.00    +0.000 HD
ATOM     73  H   UNL     1      -8.583   3.670 131.096  0.00  0.00    +0.000 HD
ENDBRANCH  68  69
ENDBRANCH  25  68
BRANCH   5  74
ATOM     74  C   UNL     1      -4.836  10.232 137.867  0.00  0.00    +0.000 C 
BRANCH  74  75
ATOM     75  C   UNL     1      -6.029   9.438 138.227  0.00  0.00    +0.000 A 
ATOM     76  C   UNL     1      -6.301   8.537 139.321  0.00  0.00    +0.000 A 
ATOM     77  C   UNL     1      -7.345   7.653 139.256  0.00  0.00    +0.000 A 
ATOM     78  C   UNL     1      -8.282   7.800 138.287  0.00  0.00    +0.000 A 
ATOM     79  C   UNL     1      -8.114   8.833 137.373  0.00  0.00    +0.000 A 
ATOM     80  C   UNL     1      -6.940   9.533 137.246  0.00  0.00    +0.000 A 
BRANCH  78  81
ATOM     81  O   UNL     1      -9.347   6.950 138.197  0.00  0.00    +0.000 OA
ATOM     82  H   UNL     1     -10.201   7.241 138.577  0.00  0.00    +0.000 HD
ENDBRANCH  78  81
ENDBRANCH  74  75
ENDBRANCH   5  74
BRANCH  29  83
ATOM     83  C   UNL     1      -6.670   2.076 127.583  0.00  0.00    +0.000 C 
BRANCH  83  84
ATOM     84  C   UNL     1      -8.126   2.635 126.948  0.00  0.00    +0.000 C 
BRANCH  84  85
ATOM     85  C   UNL     1      -8.121   3.108 125.628  0.00  0.00    +0.000 C 
ATOM     86  N   UNL     1      -7.399   2.305 124.827  0.00  0.00    +0.000 N 
ATOM     87  O   UNL     1      -8.748   4.109 125.340  0.00  0.00    +0.000 OA
ATOM     88  H   UNL     1      -6.875   1.485 125.114  0.00  0.00    +0.000 HD
ATOM     89  H   UNL     1      -7.415   2.524 123.858  0.00  0.00    +0.000 HD
ENDBRANCH  84  85
ENDBRANCH  83  84
ENDBRANCH  29  83
TORSDOF 18
ENDMDL
MODEL 9
REMARK VINA RESULT:      -9.2      3.210      9.944
REMARK  Name = CHEMBL4128839
REMARK  22 active torsions:
REMARK  status: ('A' for Active; 'I' for Inactive)
REMARK    1  A    between atoms: C_1  and  C_2
REMARK    2  A    between atoms: C_2  and  C_3
REMARK    3  A    between atoms: C_3  and  C_4
REMARK    4  A    between atoms: C_3  and  C_5
REMARK    5  A    between atoms: C_9  and  C_10
REMARK    6  A    between atoms: C_10  and  C_11
REMARK    7  A    between atoms: C_14  and  O_15
REMARK    8  A    between atoms: C_33  and  C_34
REMARK    9  A    between atoms: C_40  and  C_41
REMARK   10  A    between atoms: N_43  and  C_44
REMARK   11  A    between atoms: C_44  and  C_45
REMARK   12  A    between atoms: C_44  and  C_49
REMARK   13  A    between atoms: C_45  and  C_46
REMARK   14  A    between atoms: C_46  and  C_47
REMARK   15  A    between atoms: C_46  and  C_48
REMARK   16  A    between atoms: N_51  and  C_52
REMARK   17  A    between atoms: C_52  and  C_53
REMARK   18  A    between atoms: C_59  and  C_60
REMARK   19  A    between atoms: C_60  and  C_61
REMARK   20  A    between atoms: C_67  and  C_68
REMARK   21  A    between atoms: C_68  and  C_69
REMARK   22  A    between atoms: C_69  and  C_70
REMARK                            x       y       z     vdW  Elec       q    Type
REMARK                         _______ _______ _______ _____ _____    ______ ____
ROOT
ATOM      1  C   UNL     1      -4.777   5.260 129.330  0.00  0.00    +0.000 C 
ATOM      2  N   UNL     1      -3.723   6.673 131.263  0.00  0.00    +0.000 N 
ATOM      3  C   UNL     1      -2.780   8.120 133.093  0.00  0.00    +0.000 C 
ATOM      4  O   UNL     1      -1.909   8.135 134.632  0.00  0.00    +0.000 OA
ATOM      5  C   UNL     1      -1.988   9.891 134.769  0.00  0.00    +0.000 C 
ATOM      6  N   UNL     1      -0.268  11.251 135.202  0.00  0.00    +0.000 N 
ATOM      7  C   UNL     1       1.041  11.014 134.410  0.00  0.00    +0.000 C 
ATOM      8  O   UNL     1       2.118  11.558 134.145  0.00  0.00    +0.000 OA
ATOM      9  C   UNL     1       0.784   9.724 133.753  0.00  0.00    +0.000 C 
ATOM     10  C   UNL     1      -0.359   9.104 134.053  0.00  0.00    +0.000 C 
ATOM     11  S   UNL     1      -0.673   7.181 133.502  0.00  0.00    +0.000 S 
ATOM     12  C   UNL     1      -2.584   6.558 134.942  0.00  0.00    +0.000 C 
ATOM     13  C   UNL     1      -3.154   5.710 133.806  0.00  0.00    +0.000 A 
ATOM     14  C   UNL     1      -2.355   5.134 132.788  0.00  0.00    +0.000 A 
ATOM     15  C   UNL     1      -2.819   4.136 131.991  0.00  0.00    +0.000 A 
ATOM     16  C   UNL     1      -3.968   3.571 132.407  0.00  0.00    +0.000 A 
ATOM     17  C   UNL     1      -4.723   4.076 133.395  0.00  0.00    +0.000 A 
ATOM     18  C   UNL     1      -4.416   5.265 133.961  0.00  0.00    +0.000 A 
ATOM     19  S   UNL     1      -4.380   2.084 131.880  0.00  0.00    +0.000 S 
ATOM     20  C   UNL     1      -5.198   0.875 132.709  0.00  0.00    +0.000 C 
ATOM     21  C   UNL     1      -5.699  -0.331 131.961  0.00  0.00    +0.000 C 
ATOM     22  N   UNL     1      -6.809   0.061 131.066  0.00  0.00    +0.000 N 
ATOM     23  C   UNL     1      -6.696   0.979 130.063  0.00  0.00    +0.000 C 
ATOM     24  O   UNL     1      -7.679   1.262 129.404  0.00  0.00    +0.000 OA
ATOM     25  C   UNL     1      -5.364   1.620 129.778  0.00  0.00    +0.000 C 
ATOM     26  N   UNL     1      -4.643   1.350 128.712  0.00  0.00    +0.000 N 
ATOM     27  C   UNL     1      -5.159   1.860 127.742  0.00  0.00    +0.000 C 
ATOM     28  O   UNL     1      -4.523   2.350 126.190  0.00  0.00    +0.000 OA
ATOM     29  C   UNL     1      -7.192   2.545 127.725  0.00  0.00    +0.000 C 
ATOM     30  N   UNL     1      -7.147   4.025 126.920  0.00  0.00    +0.000 N 
ATOM     31  C   UNL     1      -5.686   4.959 127.225  0.00  0.00    +0.000 C 
ATOM     32  O   UNL     1      -6.111   5.052 125.697  0.00  0.00    +0.000 OA
ATOM     33  H   UNL     1      -3.182   7.133 132.700  0.00  0.00    +0.000 HD
ATOM     34  H   UNL     1       0.304  12.476 135.712  0.00  0.00    +0.000 HD
ATOM     35  H   UNL     1      -7.727  -0.365 131.246  0.00  0.00    +0.000 HD
ATOM     36  H   UNL     1      -3.932   0.735 128.345  0.00  0.00    +0.000 HD
ATOM     37  H   UNL     1      -7.077   4.770 127.479  0.00  0.00    +0.000 HD
ENDROOT
BRANCH  21  38
ATOM     38  C   UNL     1      -6.147  -1.383 133.006  0.00  0.00    +0.000 C 
ATOM     39  O   UNL     1      -7.060  -1.018 133.747  0.00  0.00    +0.000 OA
ATOM     40  N   UNL     1      -5.534  -2.672 133.001  0.00  0.00    +0.000 N 
ATOM     41  C   UNL     1      -4.113  -2.988 132.919  0.00  0.00    +0.000 C 
ATOM     42  C   UNL     1      -4.094  -4.238 132.084  0.00  0.00    +0.000 C 
ATOM     43  C   UNL     1      -5.240  -5.049 132.656  0.00  0.00    +0.000 C 
ATOM     44  C   UNL     1      -6.241  -4.003 133.089  0.00  0.00    +0.000 C 
BRANCH  44  45
ATOM     45  C   UNL     1      -6.345  -4.522 134.536  0.00  0.00    +0.000 C 
ATOM     46  O   UNL     1      -5.544  -5.562 134.818  0.00  0.00    +0.000 OA
ATOM     47  N   UNL     1      -6.695  -3.565 135.595  0.00  0.00    +0.000 N 
ATOM     48  H   UNL     1      -7.309  -2.797 135.386  0.00  0.00    +0.000 HD
BRANCH  47  49
ATOM     49  C   UNL     1      -6.380  -3.802 137.046  0.00  0.00    +0.000 C 
BRANCH  49  50
ATOM     50  C   UNL     1      -7.695  -3.859 137.873  0.00  0.00    +0.000 C 
ATOM     51  O   UNL     1      -7.625  -4.089 139.083  0.00  0.00    +0.000 OA
ATOM     52  N   UNL     1      -8.920  -3.643 137.223  0.00  0.00    +0.000 N 
ATOM     53  H   UNL     1      -8.976  -3.453 136.234  0.00  0.00    +0.000 HD
BRANCH  52  54
ATOM     54  C   UNL     1     -10.191  -3.686 137.955  0.00  0.00    +0.000 C 
BRANCH  54  55
ATOM     55  C   UNL     1     -10.875  -2.305 138.051  0.00  0.00    +0.000 C 
ATOM     56  N   UNL     1     -12.204  -2.205 137.623  0.00  0.00    +0.000 N 
ATOM     57  O   UNL     1     -10.257  -1.336 138.493  0.00  0.00    +0.000 OA
ATOM     58  H   UNL     1     -12.749  -2.968 137.254  0.00  0.00    +0.000 HD
ATOM     59  H   UNL     1     -12.698  -1.314 137.667  0.00  0.00    +0.000 HD
ENDBRANCH  54  55
ENDBRANCH  52  54
ENDBRANCH  49  50
BRANCH  49  60
ATOM     60  C   UNL     1      -5.474  -2.718 137.606  0.00  0.00    +0.000 C 
BRANCH  60  61
ATOM     61  C   UNL     1      -6.105  -1.347 137.526  0.00  0.00    +0.000 C 
ATOM     62  C   UNL     1      -6.043  -0.633 138.801  0.00  0.00    +0.000 C 
ATOM     63  C   UNL     1      -5.300  -0.393 136.745  0.00  0.00    +0.000 C 
ENDBRANCH  60  61
ENDBRANCH  49  60
ENDBRANCH  47  49
ENDBRANCH  44  45
ENDBRANCH  21  38
BRANCH   1  64
ATOM     64  C   UNL     1      -5.487   3.371 127.435  0.00  0.00    +0.000 C 
ATOM     65  C   UNL     1      -6.165   1.766 125.579  0.00  0.00    +0.000 C 
BRANCH  64  67
ATOM     66  C   UNL     1      -6.479   2.661 124.204  0.00  0.00    +0.000 C 
ATOM     67  C   UNL     1      -5.466   2.206 125.443  0.00  0.00    +0.000 C 
ENDBRANCH  64  67
ENDBRANCH   1  64
BRANCH  25  68
ATOM     68  C   UNL     1      -5.374   3.161 129.883  0.00  0.00    +0.000 C 
BRANCH  68  69
ATOM     69  C   UNL     1      -6.840   3.471 130.733  0.00  0.00    +0.000 C 
ATOM     70  N   UNL     1      -7.763   4.211 130.312  0.00  0.00    +0.000 N 
ATOM     71  O   UNL     1      -7.444   3.068 131.825  0.00  0.00    +0.000 OA
ATOM     72  H   UNL     1      -7.537   4.842 129.644  0.00  0.00    +0.000 HD
ATOM     73  H   UNL     1      -8.674   4.147 130.563  0.00  0.00    +0.000 HD
ENDBRANCH  68  69
ENDBRANCH  25  68
BRANCH   5  74
ATOM     74  C   UNL     1      -2.249  11.071 134.239  0.00  0.00    +0.000 C 
BRANCH  74  75
ATOM     75  C   UNL     1      -2.885  10.799 135.545  0.00  0.00    +0.000 A 
ATOM     76  C   UNL     1      -3.802   9.774 135.983  0.00  0.00    +0.000 A 
ATOM     77  C   UNL     1      -4.522   9.928 137.138  0.00  0.00    +0.000 A 
ATOM     78  C   UNL     1      -4.185  10.912 138.007  0.00  0.00    +0.000 A 
ATOM     79  C   UNL     1      -3.133  11.752 137.660  0.00  0.00    +0.000 A 
ATOM     80  C   UNL     1      -2.602  11.799 136.395  0.00  0.00    +0.000 A 
BRANCH  78  81
ATOM     81  O   UNL     1      -4.867  11.089 139.177  0.00  0.00    +0.000 OA
ATOM     82  H   UNL     1      -4.605  10.545 139.948  0.00  0.00    +0.000 HD
ENDBRANCH  78  81
ENDBRANCH  74  75
ENDBRANCH   5  74
BRANCH  29  83
ATOM     83  C   UNL     1      -8.281   1.773 126.971  0.00  0.00    +0.000 C 
BRANCH  83  84
ATOM     84  C   UNL     1      -8.226   0.095 126.855  0.00  0.00    +0.000 C 
BRANCH  84  85
ATOM     85  C   UNL     1      -9.100  -0.524 125.949  0.00  0.00    +0.000 C 
ATOM     86  N   UNL     1      -8.796  -1.823 125.790  0.00  0.00    +0.000 N 
ATOM     87  O   UNL     1     -10.007   0.115 125.450  0.00  0.00    +0.000 OA
ATOM     88  H   UNL     1      -8.016  -2.313 126.215  0.00  0.00    +0.000 HD
ATOM     89  H   UNL     1      -9.420  -2.354 125.228  0.00  0.00    +0.000 HD
ENDBRANCH  84  85
ENDBRANCH  83  84
ENDBRANCH  29  83
TORSDOF 18
ENDMDL
