MODEL 1
REMARK VINA RESULT:      -8.5      0.000      0.000
REMARK  Name = CHEMBL467153
REMARK  6 active torsions:
REMARK  status: ('A' for Active; 'I' for Inactive)
REMARK    1  A    between atoms: C_1  and  O_2
REMARK    2  A    between atoms: O_2  and  N_3
REMARK    3  A    between atoms: C_6  and  C_7
REMARK    4  A    between atoms: C_13  and  C_15
REMARK    5  A    between atoms: C_18  and  C_19
REMARK    6  A    between atoms: C_24  and  C_25
REMARK                            x       y       z     vdW  Elec       q    Type
REMARK                         _______ _______ _______ _____ _____    ______ ____
ROOT
ATOM      1  N   UNL     1      -9.002   2.565 128.524  0.00  0.00    +0.000 NA
ATOM      2  C   UNL     1      -9.119   3.211 129.649  0.00  0.00    +0.000 C 
ATOM      3  C   UNL     1     -10.395   3.195 130.452  0.00  0.00    +0.000 C 
ATOM      4  C   UNL     1     -10.348   4.618 131.017  0.00  0.00    +0.000 C 
ATOM      5  N   UNL     1      -8.910   4.875 131.226  0.00  0.00    +0.000 N 
ATOM      6  C   UNL     1      -8.469   5.799 132.162  0.00  0.00    +0.000 C 
ATOM      7  O   UNL     1      -9.245   6.418 132.898  0.00  0.00    +0.000 OA
ATOM      8  C   UNL     1      -8.069   4.057 130.341  0.00  0.00    +0.000 C 
ENDROOT
BRANCH   6   9
ATOM      9  C   UNL     1      -7.012   6.067 132.308  0.00  0.00    +0.000 A 
ATOM     10  C   UNL     1      -6.335   5.743 133.492  0.00  0.00    +0.000 A 
ATOM     11  C   UNL     1      -4.981   6.086 133.648  0.00  0.00    +0.000 A 
ATOM     12  C   UNL     1      -4.258   6.689 132.603  0.00  0.00    +0.000 A 
ATOM     13  C   UNL     1      -4.963   7.019 131.435  0.00  0.00    +0.000 A 
ATOM     14  C   UNL     1      -6.330   6.753 131.305  0.00  0.00    +0.000 A 
BRANCH  12  15
ATOM     15  C   UNL     1      -2.814   6.970 132.747  0.00  0.00    +0.000 A 
ATOM     16  C   UNL     1      -2.397   8.255 133.152  0.00  0.00    +0.000 A 
ATOM     17  C   UNL     1      -1.045   8.605 133.196  0.00  0.00    +0.000 A 
ATOM     18  C   UNL     1      -0.074   7.654 132.905  0.00  0.00    +0.000 A 
ATOM     19  C   UNL     1      -0.457   6.363 132.544  0.00  0.00    +0.000 A 
ATOM     20  C   UNL     1      -1.816   6.010 132.459  0.00  0.00    +0.000 A 
ATOM     21  C   UNL     1      -2.172   4.603 132.060  0.00  0.00    +0.000 C 
ENDBRANCH  12  15
ENDBRANCH   6   9
BRANCH   4  22
ATOM     22  C   UNL     1     -10.886   5.580 129.998  0.00  0.00    +0.000 A 
ATOM     23  N   UNL     1     -10.285   6.629 129.474  0.00  0.00    +0.000 NA
ATOM     24  C   UNL     1     -11.209   7.069 128.578  0.00  0.00    +0.000 A 
ATOM     25  N   UNL     1     -12.332   6.349 128.508  0.00  0.00    +0.000 NA
ATOM     26  O   UNL     1     -12.120   5.341 129.462  0.00  0.00    +0.000 OA
ENDBRANCH   4  22
BRANCH   1  28
ATOM     27  C   UNL     1      -7.655   2.109 126.678  0.00  0.00    +0.000 C 
ATOM     28  O   UNL     1      -7.735   2.779 127.941  0.00  0.00    +0.000 OA
ENDBRANCH   1  28
TORSDOF 4
ENDMDL
MODEL 2
REMARK VINA RESULT:      -8.0      8.560     10.078
REMARK  Name = CHEMBL467153
REMARK  6 active torsions:
REMARK  status: ('A' for Active; 'I' for Inactive)
REMARK    1  A    between atoms: C_1  and  O_2
REMARK    2  A    between atoms: O_2  and  N_3
REMARK    3  A    between atoms: C_6  and  C_7
REMARK    4  A    between atoms: C_13  and  C_15
REMARK    5  A    between atoms: C_18  and  C_19
REMARK    6  A    between atoms: C_24  and  C_25
REMARK                            x       y       z     vdW  Elec       q    Type
REMARK                         _______ _______ _______ _____ _____    ______ ____
ROOT
ATOM      1  N   UNL     1      -5.569  -2.635 122.547  0.00  0.00    +0.000 NA
ATOM      2  C   UNL     1      -6.672  -2.450 123.214  0.00  0.00    +0.000 C 
ATOM      3  C   UNL     1      -7.983  -2.162 122.528  0.00  0.00    +0.000 C 
ATOM      4  C   UNL     1      -8.603  -1.221 123.566  0.00  0.00    +0.000 C 
ATOM      5  N   UNL     1      -8.120  -1.745 124.859  0.00  0.00    +0.000 N 
ATOM      6  C   UNL     1      -8.820  -1.523 126.036  0.00  0.00    +0.000 C 
ATOM      7  O   UNL     1      -9.900  -0.921 126.061  0.00  0.00    +0.000 OA
ATOM      8  C   UNL     1      -6.859  -2.486 124.718  0.00  0.00    +0.000 C 
ENDROOT
BRANCH   6   9
ATOM      9  C   UNL     1      -8.275  -2.024 127.328  0.00  0.00    +0.000 A 
ATOM     10  C   UNL     1      -7.306  -1.296 128.031  0.00  0.00    +0.000 A 
ATOM     11  C   UNL     1      -6.735  -1.826 129.201  0.00  0.00    +0.000 A 
ATOM     12  C   UNL     1      -7.172  -3.053 129.731  0.00  0.00    +0.000 A 
ATOM     13  C   UNL     1      -8.130  -3.771 128.999  0.00  0.00    +0.000 A 
ATOM     14  C   UNL     1      -8.643  -3.286 127.792  0.00  0.00    +0.000 A 
BRANCH  12  15
ATOM     15  C   UNL     1      -6.624  -3.562 131.007  0.00  0.00    +0.000 A 
ATOM     16  C   UNL     1      -5.708  -4.634 130.987  0.00  0.00    +0.000 A 
ATOM     17  C   UNL     1      -5.247  -5.224 132.167  0.00  0.00    +0.000 A 
ATOM     18  C   UNL     1      -5.637  -4.708 133.397  0.00  0.00    +0.000 A 
ATOM     19  C   UNL     1      -6.508  -3.621 133.446  0.00  0.00    +0.000 A 
ATOM     20  C   UNL     1      -7.008  -3.042 132.265  0.00  0.00    +0.000 A 
ATOM     21  C   UNL     1      -7.948  -1.873 132.378  0.00  0.00    +0.000 C 
ENDBRANCH  12  15
ENDBRANCH   6   9
BRANCH   4  22
ATOM     22  C   UNL     1      -8.076   0.169 123.362  0.00  0.00    +0.000 A 
ATOM     23  N   UNL     1      -6.820   0.561 123.290  0.00  0.00    +0.000 NA
ATOM     24  C   UNL     1      -6.950   1.890 123.033  0.00  0.00    +0.000 A 
ATOM     25  N   UNL     1      -8.204   2.337 122.928  0.00  0.00    +0.000 NA
ATOM     26  O   UNL     1      -8.970   1.180 123.146  0.00  0.00    +0.000 OA
ENDBRANCH   4  22
BRANCH   1  28
ATOM     27  C   UNL     1      -4.142  -4.227 123.473  0.00  0.00    +0.000 C 
ATOM     28  O   UNL     1      -4.475  -2.836 123.415  0.00  0.00    +0.000 OA
ENDBRANCH   1  28
TORSDOF 4
ENDMDL
MODEL 3
REMARK VINA RESULT:      -8.0      6.341     11.129
REMARK  Name = CHEMBL467153
REMARK  6 active torsions:
REMARK  status: ('A' for Active; 'I' for Inactive)
REMARK    1  A    between atoms: C_1  and  O_2
REMARK    2  A    between atoms: O_2  and  N_3
REMARK    3  A    between atoms: C_6  and  C_7
REMARK    4  A    between atoms: C_13  and  C_15
REMARK    5  A    between atoms: C_18  and  C_19
REMARK    6  A    between atoms: C_24  and  C_25
REMARK                            x       y       z     vdW  Elec       q    Type
REMARK                         _______ _______ _______ _____ _____    ______ ____
ROOT
ATOM      1  N   UNL     1      -7.111   0.278 133.636  0.00  0.00    +0.000 NA
ATOM      2  C   UNL     1      -7.040  -0.930 133.155  0.00  0.00    +0.000 C 
ATOM      3  C   UNL     1      -6.815  -2.131 134.038  0.00  0.00    +0.000 C 
ATOM      4  C   UNL     1      -5.974  -2.984 133.083  0.00  0.00    +0.000 C 
ATOM      5  N   UNL     1      -6.525  -2.677 131.748  0.00  0.00    +0.000 N 
ATOM      6  C   UNL     1      -6.412  -3.575 130.696  0.00  0.00    +0.000 C 
ATOM      7  O   UNL     1      -5.893  -4.689 130.828  0.00  0.00    +0.000 OA
ATOM      8  C   UNL     1      -7.163  -1.355 131.705  0.00  0.00    +0.000 C 
ENDROOT
BRANCH   6   9
ATOM      9  C   UNL     1      -6.935  -3.208 129.351  0.00  0.00    +0.000 A 
ATOM     10  C   UNL     1      -8.227  -3.579 128.954  0.00  0.00    +0.000 A 
ATOM     11  C   UNL     1      -8.671  -3.305 127.649  0.00  0.00    +0.000 A 
ATOM     12  C   UNL     1      -7.867  -2.592 126.742  0.00  0.00    +0.000 A 
ATOM     13  C   UNL     1      -6.571  -2.247 127.157  0.00  0.00    +0.000 A 
ATOM     14  C   UNL     1      -6.095  -2.588 128.427  0.00  0.00    +0.000 A 
BRANCH  12  15
ATOM     15  C   UNL     1      -8.376  -2.237 125.400  0.00  0.00    +0.000 A 
ATOM     16  C   UNL     1      -8.470  -3.236 124.409  0.00  0.00    +0.000 A 
ATOM     17  C   UNL     1      -8.837  -2.932 123.097  0.00  0.00    +0.000 A 
ATOM     18  C   UNL     1      -9.189  -1.630 122.760  0.00  0.00    +0.000 A 
ATOM     19  C   UNL     1      -9.147  -0.630 123.730  0.00  0.00    +0.000 A 
ATOM     20  C   UNL     1      -8.742  -0.917 125.047  0.00  0.00    +0.000 A 
ATOM     21  C   UNL     1      -8.711   0.202 126.051  0.00  0.00    +0.000 C 
ENDBRANCH  12  15
ENDBRANCH   6   9
BRANCH   4  22
ATOM     22  C   UNL     1      -4.541  -2.545 133.147  0.00  0.00    +0.000 A 
ATOM     23  N   UNL     1      -3.760  -2.469 134.205  0.00  0.00    +0.000 NA
ATOM     24  C   UNL     1      -2.576  -2.083 133.658  0.00  0.00    +0.000 A 
ATOM     25  N   UNL     1      -2.576  -1.930 132.332  0.00  0.00    +0.000 NA
ATOM     26  O   UNL     1      -3.899  -2.242 131.979  0.00  0.00    +0.000 OA
ENDBRANCH   4  22
BRANCH   1  28
ATOM     27  C   UNL     1      -8.254   2.202 132.985  0.00  0.00    +0.000 C 
ATOM     28  O   UNL     1      -7.273   1.229 132.607  0.00  0.00    +0.000 OA
ENDBRANCH   1  28
TORSDOF 4
ENDMDL
MODEL 4
REMARK VINA RESULT:      -7.9      4.482      9.232
REMARK  Name = CHEMBL467153
REMARK  6 active torsions:
REMARK  status: ('A' for Active; 'I' for Inactive)
REMARK    1  A    between atoms: C_1  and  O_2
REMARK    2  A    between atoms: O_2  and  N_3
REMARK    3  A    between atoms: C_6  and  C_7
REMARK    4  A    between atoms: C_13  and  C_15
REMARK    5  A    between atoms: C_18  and  C_19
REMARK    6  A    between atoms: C_24  and  C_25
REMARK                            x       y       z     vdW  Elec       q    Type
REMARK                         _______ _______ _______ _____ _____    ______ ____
ROOT
ATOM      1  N   UNL     1      -9.120   4.221 129.444  0.00  0.00    +0.000 NA
ATOM      2  C   UNL     1      -8.427   3.275 128.878  0.00  0.00    +0.000 C 
ATOM      3  C   UNL     1      -8.117   1.979 129.582  0.00  0.00    +0.000 C 
ATOM      4  C   UNL     1      -6.726   1.708 129.000  0.00  0.00    +0.000 C 
ATOM      5  N   UNL     1      -6.807   2.229 127.620  0.00  0.00    +0.000 N 
ATOM      6  C   UNL     1      -5.981   1.746 126.616  0.00  0.00    +0.000 C 
ATOM      7  O   UNL     1      -5.172   0.830 126.806  0.00  0.00    +0.000 OA
ATOM      8  C   UNL     1      -7.828   3.276 127.485  0.00  0.00    +0.000 C 
ENDROOT
BRANCH   6   9
ATOM      9  C   UNL     1      -6.057   2.331 125.249  0.00  0.00    +0.000 A 
ATOM     10  C   UNL     1      -5.505   3.590 124.974  0.00  0.00    +0.000 A 
ATOM     11  C   UNL     1      -5.666   4.168 123.703  0.00  0.00    +0.000 A 
ATOM     12  C   UNL     1      -6.311   3.474 122.664  0.00  0.00    +0.000 A 
ATOM     13  C   UNL     1      -6.869   2.223 122.970  0.00  0.00    +0.000 A 
ATOM     14  C   UNL     1      -6.783   1.678 124.255  0.00  0.00    +0.000 A 
BRANCH  12  15
ATOM     15  C   UNL     1      -6.401   4.057 121.308  0.00  0.00    +0.000 A 
ATOM     16  C   UNL     1      -7.576   3.867 120.551  0.00  0.00    +0.000 A 
ATOM     17  C   UNL     1      -7.669   4.300 119.226  0.00  0.00    +0.000 A 
ATOM     18  C   UNL     1      -6.615   4.998 118.650  0.00  0.00    +0.000 A 
ATOM     19  C   UNL     1      -5.458   5.237 119.390  0.00  0.00    +0.000 A 
ATOM     20  C   UNL     1      -5.337   4.773 120.712  0.00  0.00    +0.000 A 
ATOM     21  C   UNL     1      -4.064   5.057 121.462  0.00  0.00    +0.000 C 
ENDBRANCH  12  15
ENDBRANCH   6   9
BRANCH   4  22
ATOM     22  C   UNL     1      -5.700   2.487 129.769  0.00  0.00    +0.000 A 
ATOM     23  N   UNL     1      -4.727   3.239 129.296  0.00  0.00    +0.000 NA
ATOM     24  C   UNL     1      -4.173   3.738 130.434  0.00  0.00    +0.000 A 
ATOM     25  N   UNL     1      -4.752   3.352 131.574  0.00  0.00    +0.000 NA
ATOM     26  O   UNL     1      -5.785   2.510 131.133  0.00  0.00    +0.000 OA
ENDBRANCH   4  22
BRANCH   1  28
ATOM     27  C   UNL     1      -9.810   6.444 129.319  0.00  0.00    +0.000 C 
ATOM     28  O   UNL     1      -9.228   5.349 128.603  0.00  0.00    +0.000 OA
ENDBRANCH   1  28
TORSDOF 4
ENDMDL
MODEL 5
REMARK VINA RESULT:      -7.9      5.731      9.471
REMARK  Name = CHEMBL467153
REMARK  6 active torsions:
REMARK  status: ('A' for Active; 'I' for Inactive)
REMARK    1  A    between atoms: C_1  and  O_2
REMARK    2  A    between atoms: O_2  and  N_3
REMARK    3  A    between atoms: C_6  and  C_7
REMARK    4  A    between atoms: C_13  and  C_15
REMARK    5  A    between atoms: C_18  and  C_19
REMARK    6  A    between atoms: C_24  and  C_25
REMARK                            x       y       z     vdW  Elec       q    Type
REMARK                         _______ _______ _______ _____ _____    ______ ____
ROOT
ATOM      1  N   UNL     1      -8.060   3.466 126.049  0.00  0.00    +0.000 NA
ATOM      2  C   UNL     1      -7.443   2.407 125.607  0.00  0.00    +0.000 C 
ATOM      3  C   UNL     1      -6.870   2.338 124.214  0.00  0.00    +0.000 C 
ATOM      4  C   UNL     1      -7.114   0.854 123.921  0.00  0.00    +0.000 C 
ATOM      5  N   UNL     1      -6.931   0.194 125.229  0.00  0.00    +0.000 N 
ATOM      6  C   UNL     1      -6.565  -1.141 125.321  0.00  0.00    +0.000 C 
ATOM      7  O   UNL     1      -6.329  -1.833 124.324  0.00  0.00    +0.000 OA
ATOM      8  C   UNL     1      -7.187   1.110 126.349  0.00  0.00    +0.000 C 
ENDROOT
BRANCH   6   9
ATOM      9  C   UNL     1      -6.440  -1.784 126.658  0.00  0.00    +0.000 A 
ATOM     10  C   UNL     1      -7.529  -2.441 127.246  0.00  0.00    +0.000 A 
ATOM     11  C   UNL     1      -7.421  -2.962 128.546  0.00  0.00    +0.000 A 
ATOM     12  C   UNL     1      -6.207  -2.907 129.253  0.00  0.00    +0.000 A 
ATOM     13  C   UNL     1      -5.137  -2.229 128.650  0.00  0.00    +0.000 A 
ATOM     14  C   UNL     1      -5.263  -1.638 127.389  0.00  0.00    +0.000 A 
BRANCH  12  15
ATOM     15  C   UNL     1      -6.081  -3.533 130.588  0.00  0.00    +0.000 A 
ATOM     16  C   UNL     1      -5.346  -4.728 130.723  0.00  0.00    +0.000 A 
ATOM     17  C   UNL     1      -5.290  -5.418 131.937  0.00  0.00    +0.000 A 
ATOM     18  C   UNL     1      -5.908  -4.888 133.063  0.00  0.00    +0.000 A 
ATOM     19  C   UNL     1      -6.606  -3.685 132.967  0.00  0.00    +0.000 A 
ATOM     20  C   UNL     1      -6.702  -3.001 131.742  0.00  0.00    +0.000 A 
ATOM     21  C   UNL     1      -7.471  -1.709 131.696  0.00  0.00    +0.000 C 
ENDBRANCH  12  15
ENDBRANCH   6   9
BRANCH   4  22
ATOM     22  C   UNL     1      -8.528   0.660 123.457  0.00  0.00    +0.000 A 
ATOM     23  N   UNL     1      -9.496   1.552 123.405  0.00  0.00    +0.000 NA
ATOM     24  C   UNL     1     -10.512   0.838 122.847  0.00  0.00    +0.000 A 
ATOM     25  N   UNL     1     -10.224  -0.430 122.542  0.00  0.00    +0.000 NA
ATOM     26  O   UNL     1      -8.887  -0.557 122.948  0.00  0.00    +0.000 OA
ENDBRANCH   4  22
BRANCH   1  28
ATOM     27  C   UNL     1      -7.890   4.152 128.270  0.00  0.00    +0.000 C 
ATOM     28  O   UNL     1      -8.546   3.264 127.358  0.00  0.00    +0.000 OA
ENDBRANCH   1  28
TORSDOF 4
ENDMDL
MODEL 6
REMARK VINA RESULT:      -7.7      3.548      5.563
REMARK  Name = CHEMBL467153
REMARK  6 active torsions:
REMARK  status: ('A' for Active; 'I' for Inactive)
REMARK    1  A    between atoms: C_1  and  O_2
REMARK    2  A    between atoms: O_2  and  N_3
REMARK    3  A    between atoms: C_6  and  C_7
REMARK    4  A    between atoms: C_13  and  C_15
REMARK    5  A    between atoms: C_18  and  C_19
REMARK    6  A    between atoms: C_24  and  C_25
REMARK                            x       y       z     vdW  Elec       q    Type
REMARK                         _______ _______ _______ _____ _____    ______ ____
ROOT
ATOM      1  N   UNL     1      -8.642   4.812 125.686  0.00  0.00    +0.000 NA
ATOM      2  C   UNL     1      -7.421   4.370 125.589  0.00  0.00    +0.000 C 
ATOM      3  C   UNL     1      -6.948   3.583 124.393  0.00  0.00    +0.000 C 
ATOM      4  C   UNL     1      -5.965   2.638 125.092  0.00  0.00    +0.000 C 
ATOM      5  N   UNL     1      -5.391   3.457 126.178  0.00  0.00    +0.000 N 
ATOM      6  C   UNL     1      -4.140   3.179 126.710  0.00  0.00    +0.000 C 
ATOM      7  O   UNL     1      -3.425   2.267 126.278  0.00  0.00    +0.000 OA
ATOM      8  C   UNL     1      -6.294   4.541 126.587  0.00  0.00    +0.000 C 
ENDROOT
BRANCH   6   9
ATOM      9  C   UNL     1      -3.617   3.996 127.838  0.00  0.00    +0.000 A 
ATOM     10  C   UNL     1      -3.972   3.706 129.163  0.00  0.00    +0.000 A 
ATOM     11  C   UNL     1      -3.543   4.543 130.208  0.00  0.00    +0.000 A 
ATOM     12  C   UNL     1      -2.693   5.635 129.963  0.00  0.00    +0.000 A 
ATOM     13  C   UNL     1      -2.366   5.915 128.626  0.00  0.00    +0.000 A 
ATOM     14  C   UNL     1      -2.856   5.133 127.575  0.00  0.00    +0.000 A 
BRANCH  12  15
ATOM     15  C   UNL     1      -2.181   6.459 131.079  0.00  0.00    +0.000 A 
ATOM     16  C   UNL     1      -1.074   6.002 131.824  0.00  0.00    +0.000 A 
ATOM     17  C   UNL     1      -0.622   6.686 132.955  0.00  0.00    +0.000 A 
ATOM     18  C   UNL     1      -1.222   7.884 133.326  0.00  0.00    +0.000 A 
ATOM     19  C   UNL     1      -2.290   8.381 132.581  0.00  0.00    +0.000 A 
ATOM     20  C   UNL     1      -2.779   7.682 131.462  0.00  0.00    +0.000 A 
ATOM     21  C   UNL     1      -3.937   8.264 130.699  0.00  0.00    +0.000 C 
ENDBRANCH  12  15
ENDBRANCH   6   9
BRANCH   4  22
ATOM     22  C   UNL     1      -6.716   1.480 125.683  0.00  0.00    +0.000 A 
ATOM     23  N   UNL     1      -6.898   1.194 126.955  0.00  0.00    +0.000 NA
ATOM     24  C   UNL     1      -7.696   0.093 126.888  0.00  0.00    +0.000 A 
ATOM     25  N   UNL     1      -8.026  -0.305 125.657  0.00  0.00    +0.000 NA
ATOM     26  O   UNL     1      -7.370   0.628 124.838  0.00  0.00    +0.000 OA
ENDBRANCH   4  22
BRANCH   1  28
ATOM     27  C   UNL     1      -9.867   6.469 126.775  0.00  0.00    +0.000 C 
ATOM     28  O   UNL     1      -8.849   5.471 126.917  0.00  0.00    +0.000 OA
ENDBRANCH   1  28
TORSDOF 4
ENDMDL
MODEL 7
REMARK VINA RESULT:      -7.5      7.061     11.067
REMARK  Name = CHEMBL467153
REMARK  6 active torsions:
REMARK  status: ('A' for Active; 'I' for Inactive)
REMARK    1  A    between atoms: C_1  and  O_2
REMARK    2  A    between atoms: O_2  and  N_3
REMARK    3  A    between atoms: C_6  and  C_7
REMARK    4  A    between atoms: C_13  and  C_15
REMARK    5  A    between atoms: C_18  and  C_19
REMARK    6  A    between atoms: C_24  and  C_25
REMARK                            x       y       z     vdW  Elec       q    Type
REMARK                         _______ _______ _______ _____ _____    ______ ____
ROOT
ATOM      1  N   UNL     1      -6.930  -1.027 134.365  0.00  0.00    +0.000 NA
ATOM      2  C   UNL     1      -6.894  -2.091 133.615  0.00  0.00    +0.000 C 
ATOM      3  C   UNL     1      -7.028  -3.479 134.188  0.00  0.00    +0.000 C 
ATOM      4  C   UNL     1      -6.095  -4.231 133.233  0.00  0.00    +0.000 C 
ATOM      5  N   UNL     1      -6.275  -3.544 131.939  0.00  0.00    +0.000 N 
ATOM      6  C   UNL     1      -6.028  -4.189 130.736  0.00  0.00    +0.000 C 
ATOM      7  O   UNL     1      -5.691  -5.378 130.680  0.00  0.00    +0.000 OA
ATOM      8  C   UNL     1      -6.723  -2.155 132.110  0.00  0.00    +0.000 C 
ENDROOT
BRANCH   6   9
ATOM      9  C   UNL     1      -6.172  -3.448 129.454  0.00  0.00    +0.000 A 
ATOM     10  C   UNL     1      -5.103  -2.715 128.922  0.00  0.00    +0.000 A 
ATOM     11  C   UNL     1      -5.283  -1.946 127.759  0.00  0.00    +0.000 A 
ATOM     12  C   UNL     1      -6.506  -1.952 127.065  0.00  0.00    +0.000 A 
ATOM     13  C   UNL     1      -7.566  -2.680 127.628  0.00  0.00    +0.000 A 
ATOM     14  C   UNL     1      -7.415  -3.382 128.828  0.00  0.00    +0.000 A 
BRANCH  12  15
ATOM     15  C   UNL     1      -6.659  -1.206 125.797  0.00  0.00    +0.000 A 
ATOM     16  C   UNL     1      -7.154   0.114 125.828  0.00  0.00    +0.000 A 
ATOM     17  C   UNL     1      -7.422   0.821 124.654  0.00  0.00    +0.000 A 
ATOM     18  C   UNL     1      -7.134   0.250 123.420  0.00  0.00    +0.000 A 
ATOM     19  C   UNL     1      -6.603  -1.037 123.362  0.00  0.00    +0.000 A 
ATOM     20  C   UNL     1      -6.364  -1.774 124.536  0.00  0.00    +0.000 A 
ATOM     21  C   UNL     1      -5.795  -3.161 124.413  0.00  0.00    +0.000 C 
ENDBRANCH  12  15
ENDBRANCH   6   9
BRANCH   4  22
ATOM     22  C   UNL     1      -4.674  -4.071 133.690  0.00  0.00    +0.000 A 
ATOM     23  N   UNL     1      -4.164  -4.350 134.872  0.00  0.00    +0.000 NA
ATOM     24  C   UNL     1      -2.845  -4.075 134.686  0.00  0.00    +0.000 A 
ATOM     25  N   UNL     1      -2.511  -3.658 133.462  0.00  0.00    +0.000 NA
ATOM     26  O   UNL     1      -3.740  -3.655 132.784  0.00  0.00    +0.000 OA
ENDBRANCH   4  22
BRANCH   1  28
ATOM     27  C   UNL     1      -5.787   1.000 134.252  0.00  0.00    +0.000 C 
ATOM     28  O   UNL     1      -6.732   0.143 133.602  0.00  0.00    +0.000 OA
ENDBRANCH   1  28
TORSDOF 4
ENDMDL
MODEL 8
REMARK VINA RESULT:      -7.3      4.626      7.249
REMARK  Name = CHEMBL467153
REMARK  6 active torsions:
REMARK  status: ('A' for Active; 'I' for Inactive)
REMARK    1  A    between atoms: C_1  and  O_2
REMARK    2  A    between atoms: O_2  and  N_3
REMARK    3  A    between atoms: C_6  and  C_7
REMARK    4  A    between atoms: C_13  and  C_15
REMARK    5  A    between atoms: C_18  and  C_19
REMARK    6  A    between atoms: C_24  and  C_25
REMARK                            x       y       z     vdW  Elec       q    Type
REMARK                         _______ _______ _______ _____ _____    ______ ____
ROOT
ATOM      1  N   UNL     1      -8.646   4.954 127.820  0.00  0.00    +0.000 NA
ATOM      2  C   UNL     1      -8.626   4.680 129.093  0.00  0.00    +0.000 C 
ATOM      3  C   UNL     1      -9.129   5.652 130.129  0.00  0.00    +0.000 C 
ATOM      4  C   UNL     1      -8.149   5.333 131.262  0.00  0.00    +0.000 C 
ATOM      5  N   UNL     1      -7.905   3.883 131.129  0.00  0.00    +0.000 N 
ATOM      6  C   UNL     1      -7.505   3.114 132.212  0.00  0.00    +0.000 C 
ATOM      7  O   UNL     1      -7.378   3.586 133.348  0.00  0.00    +0.000 OA
ATOM      8  C   UNL     1      -8.129   3.411 129.756  0.00  0.00    +0.000 C 
ENDROOT
BRANCH   6   9
ATOM      9  C   UNL     1      -7.220   1.665 132.026  0.00  0.00    +0.000 A 
ATOM     10  C   UNL     1      -8.217   0.703 132.231  0.00  0.00    +0.000 A 
ATOM     11  C   UNL     1      -7.908  -0.665 132.142  0.00  0.00    +0.000 A 
ATOM     12  C   UNL     1      -6.622  -1.097 131.773  0.00  0.00    +0.000 A 
ATOM     13  C   UNL     1      -5.636  -0.115 131.590  0.00  0.00    +0.000 A 
ATOM     14  C   UNL     1      -5.919   1.245 131.757  0.00  0.00    +0.000 A 
BRANCH  12  15
ATOM     15  C   UNL     1      -6.329  -2.537 131.600  0.00  0.00    +0.000 A 
ATOM     16  C   UNL     1      -5.894  -3.291 132.709  0.00  0.00    +0.000 A 
ATOM     17  C   UNL     1      -5.498  -4.624 132.576  0.00  0.00    +0.000 A 
ATOM     18  C   UNL     1      -5.596  -5.256 131.342  0.00  0.00    +0.000 A 
ATOM     19  C   UNL     1      -6.064  -4.545 130.237  0.00  0.00    +0.000 A 
ATOM     20  C   UNL     1      -6.430  -3.192 130.351  0.00  0.00    +0.000 A 
ATOM     21  C   UNL     1      -6.924  -2.474 129.125  0.00  0.00    +0.000 C 
ENDBRANCH  12  15
ENDBRANCH   6   9
BRANCH   4  22
ATOM     22  C   UNL     1      -6.865   6.079 131.040  0.00  0.00    +0.000 A 
ATOM     23  N   UNL     1      -5.633   5.645 131.209  0.00  0.00    +0.000 NA
ATOM     24  C   UNL     1      -4.896   6.712 130.797  0.00  0.00    +0.000 A 
ATOM     25  N   UNL     1      -5.597   7.767 130.374  0.00  0.00    +0.000 NA
ATOM     26  O   UNL     1      -6.927   7.347 130.533  0.00  0.00    +0.000 OA
ENDBRANCH   4  22
BRANCH   1  28
ATOM     27  C   UNL     1      -7.989   4.290 125.685  0.00  0.00    +0.000 C 
ATOM     28  O   UNL     1      -8.076   3.909 127.063  0.00  0.00    +0.000 OA
ENDBRANCH   1  28
TORSDOF 4
ENDMDL
MODEL 9
REMARK VINA RESULT:      -7.3      4.017      7.284
REMARK  Name = CHEMBL467153
REMARK  6 active torsions:
REMARK  status: ('A' for Active; 'I' for Inactive)
REMARK    1  A    between atoms: C_1  and  O_2
REMARK    2  A    between atoms: O_2  and  N_3
REMARK    3  A    between atoms: C_6  and  C_7
REMARK    4  A    between atoms: C_13  and  C_15
REMARK    5  A    between atoms: C_18  and  C_19
REMARK    6  A    between atoms: C_24  and  C_25
REMARK                            x       y       z     vdW  Elec       q    Type
REMARK                         _______ _______ _______ _____ _____    ______ ____
ROOT
ATOM      1  N   UNL     1      -8.145   6.016 133.626  0.00  0.00    +0.000 NA
ATOM      2  C   UNL     1      -7.953   5.639 132.394  0.00  0.00    +0.000 C 
ATOM      3  C   UNL     1      -7.885   6.626 131.256  0.00  0.00    +0.000 C 
ATOM      4  C   UNL     1      -8.533   5.779 130.156  0.00  0.00    +0.000 C 
ATOM      5  N   UNL     1      -8.092   4.402 130.457  0.00  0.00    +0.000 N 
ATOM      6  C   UNL     1      -8.022   3.433 129.467  0.00  0.00    +0.000 C 
ATOM      7  O   UNL     1      -8.276   3.676 128.282  0.00  0.00    +0.000 OA
ATOM      8  C   UNL     1      -7.767   4.226 131.879  0.00  0.00    +0.000 C 
ENDROOT
BRANCH   6   9
ATOM      9  C   UNL     1      -7.622   2.043 129.819  0.00  0.00    +0.000 A 
ATOM     10  C   UNL     1      -6.330   1.574 129.547  0.00  0.00    +0.000 A 
ATOM     11  C   UNL     1      -5.996   0.233 129.801  0.00  0.00    +0.000 A 
ATOM     12  C   UNL     1      -6.918  -0.644 130.400  0.00  0.00    +0.000 A 
ATOM     13  C   UNL     1      -8.210  -0.156 130.647  0.00  0.00    +0.000 A 
ATOM     14  C   UNL     1      -8.572   1.155 130.322  0.00  0.00    +0.000 A 
BRANCH  12  15
ATOM     15  C   UNL     1      -6.530  -2.031 130.740  0.00  0.00    +0.000 A 
ATOM     16  C   UNL     1      -5.916  -2.292 131.982  0.00  0.00    +0.000 A 
ATOM     17  C   UNL     1      -5.430  -3.561 132.304  0.00  0.00    +0.000 A 
ATOM     18  C   UNL     1      -5.613  -4.618 131.420  0.00  0.00    +0.000 A 
ATOM     19  C   UNL     1      -6.256  -4.397 130.203  0.00  0.00    +0.000 A 
ATOM     20  C   UNL     1      -6.716  -3.115 129.851  0.00  0.00    +0.000 A 
ATOM     21  C   UNL     1      -7.399  -2.934 128.523  0.00  0.00    +0.000 C 
ENDBRANCH  12  15
ENDBRANCH   6   9
BRANCH   4  22
ATOM     22  C   UNL     1     -10.027   5.863 130.272  0.00  0.00    +0.000 A 
ATOM     23  N   UNL     1     -10.740   6.320 131.281  0.00  0.00    +0.000 NA
ATOM     24  C   UNL     1     -12.009   6.215 130.804  0.00  0.00    +0.000 A 
ATOM     25  N   UNL     1     -12.120   5.736 129.562  0.00  0.00    +0.000 NA
ATOM     26  O   UNL     1     -10.786   5.498 129.196  0.00  0.00    +0.000 OA
ENDBRANCH   4  22
BRANCH   1  28
ATOM     27  C   UNL     1      -7.224   5.014 135.518  0.00  0.00    +0.000 C 
ATOM     28  O   UNL     1      -8.220   4.907 134.494  0.00  0.00    +0.000 OA
ENDBRANCH   1  28
TORSDOF 4
ENDMDL
