MODEL 1
REMARK VINA RESULT:      -9.7      0.000      0.000
REMARK  Name = CHEMBL2113189
REMARK  13 active torsions:
REMARK  status: ('A' for Active; 'I' for Inactive)
REMARK    1  A    between atoms: C_1  and  N_2
REMARK    2  A    between atoms: N_2  and  C_3
REMARK    3  A    between atoms: N_2  and  C_4
REMARK    4  A    between atoms: C_4  and  C_5
REMARK    5  A    between atoms: C_5  and  C_6
REMARK    6  A    between atoms: C_6  and  O_7
REMARK    7  A    between atoms: O_7  and  C_8
REMARK    8  A    between atoms: C_11  and  S_12
REMARK    9  A    between atoms: S_12  and  N_15
REMARK   10  A    between atoms: N_15  and  C_16
REMARK   11  A    between atoms: N_15  and  C_33
REMARK   12  A    between atoms: C_16  and  C_17
REMARK   13  A    between atoms: N_19  and  N_20
REMARK                            x       y       z     vdW  Elec       q    Type
REMARK                         _______ _______ _______ _____ _____    ______ ____
ROOT
ATOM      1  N   UNL     1      -8.810   2.454 123.270  0.00  0.00    +0.000 N 
ENDROOT
BRANCH   1   2
ATOM      2  C   UNL     1      -8.147   3.193 122.107  0.00  0.00    +0.000 A 
ATOM      3  C   UNL     1      -8.957   3.655 121.053  0.00  0.00    +0.000 A 
ATOM      4  C   UNL     1      -8.425   4.099 119.821  0.00  0.00    +0.000 A 
ATOM      5  C   UNL     1      -7.051   4.234 119.665  0.00  0.00    +0.000 A 
ATOM      6 CL   UNL     1      -6.414   4.934 118.224  0.00  0.00    +0.000 Cl
ATOM      7  C   UNL     1      -6.207   3.842 120.698  0.00  0.00    +0.000 A 
ATOM      8  C   UNL     1      -6.753   3.321 121.901  0.00  0.00    +0.000 A 
ENDBRANCH   1   2
BRANCH   1   9
ATOM      9  S   UNL     1      -8.337   2.996 124.930  0.00  0.00    +0.000 S 
ATOM     10  O   UNL     1      -8.866   1.986 125.835  0.00  0.00    +0.000 OA
ATOM     11  O   UNL     1      -8.832   4.356 125.110  0.00  0.00    +0.000 OA
BRANCH   9  15
ATOM     12  C   UNL     1      -4.046   3.527 126.641  0.00  0.00    +0.000 A 
ATOM     13  C   UNL     1      -4.551   2.231 126.498  0.00  0.00    +0.000 A 
ATOM     14  C   UNL     1      -5.834   1.997 125.893  0.00  0.00    +0.000 A 
ATOM     15  C   UNL     1      -6.521   3.055 125.304  0.00  0.00    +0.000 A 
ATOM     16  C   UNL     1      -5.747   4.178 125.156  0.00  0.00    +0.000 A 
ATOM     17  C   UNL     1      -4.791   4.521 126.114  0.00  0.00    +0.000 A 
BRANCH  12  18
ATOM     18  O   UNL     1      -2.761   3.797 127.007  0.00  0.00    +0.000 OA
BRANCH  18  19
ATOM     19  C   UNL     1      -2.589   4.888 127.937  0.00  0.00    +0.000 C 
BRANCH  19  20
ATOM     20  C   UNL     1      -3.051   4.386 129.277  0.00  0.00    +0.000 C 
BRANCH  20  21
ATOM     21  C   UNL     1      -3.423   5.539 130.200  0.00  0.00    +0.000 C 
BRANCH  21  23
ATOM     22  C   UNL     1      -5.820   5.532 130.142  0.00  0.00    +0.000 C 
ATOM     23  N   UNL     1      -4.615   6.234 129.701  0.00  0.00    +0.000 NA
ATOM     24  C   UNL     1      -4.654   7.615 130.200  0.00  0.00    +0.000 C 
ENDBRANCH  21  23
ENDBRANCH  20  21
ENDBRANCH  19  20
ENDBRANCH  18  19
ENDBRANCH  12  18
ENDBRANCH   9  15
ENDBRANCH   1   9
BRANCH   1  25
ATOM     25  C   UNL     1      -9.586   1.051 122.862  0.00  0.00    +0.000 C 
BRANCH  25  26
ATOM     26  C   UNL     1      -8.966  -0.386 123.345  0.00  0.00    +0.000 C 
ATOM     27  O   UNL     1      -9.709  -1.268 122.876  0.00  0.00    +0.000 OA
ATOM     28  N   UNL     1      -7.664  -0.529 124.344  0.00  0.00    +0.000 N 
ATOM     29  H   UNL     1      -7.908   0.019 125.168  0.00  0.00    +0.000 HD
BRANCH  28  30
ATOM     30  N   UNL     1      -6.191  -1.489 124.821  0.00  0.00    +0.000 NA
ATOM     31  C   UNL     1      -5.683  -2.070 126.172  0.00  0.00    +0.000 C 
ATOM     32  C   UNL     1      -7.176  -1.875 126.528  0.00  0.00    +0.000 C 
ATOM     33  O   UNL     1      -7.788  -0.842 126.475  0.00  0.00    +0.000 OA
ATOM     34  N   UNL     1      -7.621  -2.995 127.091  0.00  0.00    +0.000 N 
ATOM     35  C   UNL     1      -7.492  -2.394 128.268  0.00  0.00    +0.000 C 
ATOM     36  O   UNL     1      -7.881  -1.345 128.779  0.00  0.00    +0.000 OA
ATOM     37  C   UNL     1      -6.358  -2.848 128.884  0.00  0.00    +0.000 A 
ATOM     38  C   UNL     1      -6.810  -3.266 130.281  0.00  0.00    +0.000 A 
ATOM     39  C   UNL     1      -6.015  -3.710 131.274  0.00  0.00    +0.000 A 
ATOM     40  C   UNL     1      -4.756  -3.820 130.741  0.00  0.00    +0.000 A 
ATOM     41  C   UNL     1      -4.355  -3.347 129.166  0.00  0.00    +0.000 A 
ATOM     42  C   UNL     1      -5.259  -2.706 128.006  0.00  0.00    +0.000 A 
ATOM     43  H   UNL     1      -6.946  -3.752 126.898  0.00  0.00    +0.000 HD
ENDBRANCH  28  30
ENDBRANCH  25  26
ENDBRANCH   1  25
TORSDOF 11
ENDMDL
MODEL 2
REMARK VINA RESULT:      -9.5      4.495      7.904
REMARK  Name = CHEMBL2113189
REMARK  13 active torsions:
REMARK  status: ('A' for Active; 'I' for Inactive)
REMARK    1  A    between atoms: C_1  and  N_2
REMARK    2  A    between atoms: N_2  and  C_3
REMARK    3  A    between atoms: N_2  and  C_4
REMARK    4  A    between atoms: C_4  and  C_5
REMARK    5  A    between atoms: C_5  and  C_6
REMARK    6  A    between atoms: C_6  and  O_7
REMARK    7  A    between atoms: O_7  and  C_8
REMARK    8  A    between atoms: C_11  and  S_12
REMARK    9  A    between atoms: S_12  and  N_15
REMARK   10  A    between atoms: N_15  and  C_16
REMARK   11  A    between atoms: N_15  and  C_33
REMARK   12  A    between atoms: C_16  and  C_17
REMARK   13  A    between atoms: N_19  and  N_20
REMARK                            x       y       z     vdW  Elec       q    Type
REMARK                         _______ _______ _______ _____ _____    ______ ____
ROOT
ATOM      1  N   UNL     1      -9.677   4.770 131.723  0.00  0.00    +0.000 N 
ENDROOT
BRANCH   1   2
ATOM      2  C   UNL     1     -10.378   5.999 131.144  0.00  0.00    +0.000 A 
ATOM      3  C   UNL     1     -11.675   6.310 131.594  0.00  0.00    +0.000 A 
ATOM      4  C   UNL     1     -12.505   7.247 130.937  0.00  0.00    +0.000 A 
ATOM      5  C   UNL     1     -12.001   8.012 129.893  0.00  0.00    +0.000 A 
ATOM      6 CL   UNL     1     -12.960   9.269 129.207  0.00  0.00    +0.000 Cl
ATOM      7  C   UNL     1     -10.706   7.782 129.445  0.00  0.00    +0.000 A 
ATOM      8  C   UNL     1      -9.908   6.780 130.062  0.00  0.00    +0.000 A 
ENDBRANCH   1   2
BRANCH   1   9
ATOM      9  S   UNL     1      -8.220   5.092 132.745  0.00  0.00    +0.000 S 
ATOM     10  O   UNL     1      -8.017   3.882 133.528  0.00  0.00    +0.000 OA
ATOM     11  O   UNL     1      -8.466   6.319 133.493  0.00  0.00    +0.000 OA
BRANCH   9  15
ATOM     12  C   UNL     1      -4.017   6.314 131.173  0.00  0.00    +0.000 A 
ATOM     13  C   UNL     1      -4.199   5.012 131.649  0.00  0.00    +0.000 A 
ATOM     14  C   UNL     1      -5.493   4.547 132.065  0.00  0.00    +0.000 A 
ATOM     15  C   UNL     1      -6.613   5.347 131.852  0.00  0.00    +0.000 A 
ATOM     16  C   UNL     1      -6.360   6.409 131.023  0.00  0.00    +0.000 A 
ATOM     17  C   UNL     1      -5.130   7.068 131.056  0.00  0.00    +0.000 A 
BRANCH  12  18
ATOM     18  O   UNL     1      -2.871   6.742 130.571  0.00  0.00    +0.000 OA
BRANCH  18  19
ATOM     19  C   UNL     1      -2.949   6.939 129.143  0.00  0.00    +0.000 C 
BRANCH  19  20
ATOM     20  C   UNL     1      -2.524   5.644 128.507  0.00  0.00    +0.000 C 
BRANCH  20  21
ATOM     21  C   UNL     1      -3.645   5.050 127.664  0.00  0.00    +0.000 C 
BRANCH  21  23
ATOM     22  C   UNL     1      -2.075   3.352 127.032  0.00  0.00    +0.000 C 
ATOM     23  N   UNL     1      -3.443   3.608 127.480  0.00  0.00    +0.000 NA
ATOM     24  C   UNL     1      -3.678   2.889 128.739  0.00  0.00    +0.000 C 
ENDBRANCH  21  23
ENDBRANCH  20  21
ENDBRANCH  19  20
ENDBRANCH  18  19
ENDBRANCH  12  18
ENDBRANCH   9  15
ENDBRANCH   1   9
BRANCH   1  25
ATOM     25  C   UNL     1     -10.129   3.323 131.059  0.00  0.00    +0.000 C 
BRANCH  25  26
ATOM     26  C   UNL     1      -9.068   2.494 130.129  0.00  0.00    +0.000 C 
ATOM     27  O   UNL     1      -8.209   2.028 130.901  0.00  0.00    +0.000 OA
ATOM     28  N   UNL     1      -9.150   2.432 128.485  0.00  0.00    +0.000 N 
ATOM     29  H   UNL     1      -9.158   3.407 128.189  0.00  0.00    +0.000 HD
BRANCH  28  30
ATOM     30  N   UNL     1      -8.859   1.468 126.967  0.00  0.00    +0.000 NA
ATOM     31  C   UNL     1      -8.188   1.797 125.602  0.00  0.00    +0.000 C 
ATOM     32  C   UNL     1      -7.576   2.928 126.461  0.00  0.00    +0.000 C 
ATOM     33  O   UNL     1      -8.186   3.757 127.081  0.00  0.00    +0.000 OA
ATOM     34  N   UNL     1      -6.264   2.954 126.243  0.00  0.00    +0.000 N 
ATOM     35  C   UNL     1      -6.471   3.986 125.433  0.00  0.00    +0.000 C 
ATOM     36  O   UNL     1      -7.025   5.082 125.511  0.00  0.00    +0.000 OA
ATOM     37  C   UNL     1      -6.411   3.559 124.135  0.00  0.00    +0.000 A 
ATOM     38  C   UNL     1      -5.434   4.513 123.452  0.00  0.00    +0.000 A 
ATOM     39  C   UNL     1      -5.116   4.522 122.142  0.00  0.00    +0.000 A 
ATOM     40  C   UNL     1      -5.749   3.442 121.584  0.00  0.00    +0.000 A 
ATOM     41  C   UNL     1      -6.803   2.424 122.431  0.00  0.00    +0.000 A 
ATOM     42  C   UNL     1      -7.288   2.464 123.960  0.00  0.00    +0.000 A 
ATOM     43  H   UNL     1      -5.988   2.072 125.784  0.00  0.00    +0.000 HD
ENDBRANCH  28  30
ENDBRANCH  25  26
ENDBRANCH   1  25
TORSDOF 11
ENDMDL
MODEL 3
REMARK VINA RESULT:      -9.4      4.578      7.075
REMARK  Name = CHEMBL2113189
REMARK  13 active torsions:
REMARK  status: ('A' for Active; 'I' for Inactive)
REMARK    1  A    between atoms: C_1  and  N_2
REMARK    2  A    between atoms: N_2  and  C_3
REMARK    3  A    between atoms: N_2  and  C_4
REMARK    4  A    between atoms: C_4  and  C_5
REMARK    5  A    between atoms: C_5  and  C_6
REMARK    6  A    between atoms: C_6  and  O_7
REMARK    7  A    between atoms: O_7  and  C_8
REMARK    8  A    between atoms: C_11  and  S_12
REMARK    9  A    between atoms: S_12  and  N_15
REMARK   10  A    between atoms: N_15  and  C_16
REMARK   11  A    between atoms: N_15  and  C_33
REMARK   12  A    between atoms: C_16  and  C_17
REMARK   13  A    between atoms: N_19  and  N_20
REMARK                            x       y       z     vdW  Elec       q    Type
REMARK                         _______ _______ _______ _____ _____    ______ ____
ROOT
ATOM      1  N   UNL     1     -10.139   4.807 131.263  0.00  0.00    +0.000 N 
ENDROOT
BRANCH   1   2
ATOM      2  C   UNL     1     -10.992   5.961 130.737  0.00  0.00    +0.000 A 
ATOM      3  C   UNL     1     -10.511   6.716 129.652  0.00  0.00    +0.000 A 
ATOM      4  C   UNL     1     -11.080   7.952 129.270  0.00  0.00    +0.000 A 
ATOM      5  C   UNL     1     -12.249   8.396 129.875  0.00  0.00    +0.000 A 
ATOM      6 CL   UNL     1     -13.033   9.816 129.294  0.00  0.00    +0.000 Cl
ATOM      7  C   UNL     1     -12.797   7.658 130.918  0.00  0.00    +0.000 A 
ATOM      8  C   UNL     1     -12.169   6.458 131.346  0.00  0.00    +0.000 A 
ENDBRANCH   1   2
BRANCH   1   9
ATOM      9  S   UNL     1      -8.920   5.232 132.531  0.00  0.00    +0.000 S 
ATOM     10  O   UNL     1      -8.802   4.048 133.370  0.00  0.00    +0.000 OA
ATOM     11  O   UNL     1      -9.371   6.453 133.187  0.00  0.00    +0.000 OA
BRANCH   9  15
ATOM     12  C   UNL     1      -4.685   6.858 131.507  0.00  0.00    +0.000 A 
ATOM     13  C   UNL     1      -4.789   5.759 132.366  0.00  0.00    +0.000 A 
ATOM     14  C   UNL     1      -6.061   5.155 132.651  0.00  0.00    +0.000 A 
ATOM     15  C   UNL     1      -7.191   5.568 131.948  0.00  0.00    +0.000 A 
ATOM     16  C   UNL     1      -6.889   6.354 130.866  0.00  0.00    +0.000 A 
ATOM     17  C   UNL     1      -5.827   7.259 130.910  0.00  0.00    +0.000 A 
BRANCH  12  18
ATOM     18  O   UNL     1      -3.499   7.335 131.036  0.00  0.00    +0.000 OA
BRANCH  18  19
ATOM     19  C   UNL     1      -2.495   6.341 130.740  0.00  0.00    +0.000 C 
BRANCH  19  20
ATOM     20  C   UNL     1      -2.412   6.247 129.241  0.00  0.00    +0.000 C 
BRANCH  20  21
ATOM     21  C   UNL     1      -2.865   4.879 128.748  0.00  0.00    +0.000 C 
BRANCH  21  23
ATOM     22  C   UNL     1      -4.507   4.769 127.005  0.00  0.00    +0.000 C 
ATOM     23  N   UNL     1      -4.301   4.890 128.447  0.00  0.00    +0.000 NA
ATOM     24  C   UNL     1      -4.978   3.776 129.124  0.00  0.00    +0.000 C 
ENDBRANCH  21  23
ENDBRANCH  20  21
ENDBRANCH  19  20
ENDBRANCH  18  19
ENDBRANCH  12  18
ENDBRANCH   9  15
ENDBRANCH   1   9
BRANCH   1  25
ATOM     25  C   UNL     1     -10.202   3.418 130.366  0.00  0.00    +0.000 C 
BRANCH  25  26
ATOM     26  C   UNL     1      -8.949   3.031 129.386  0.00  0.00    +0.000 C 
ATOM     27  O   UNL     1      -8.602   4.086 128.822  0.00  0.00    +0.000 OA
ATOM     28  N   UNL     1      -8.393   1.495 129.178  0.00  0.00    +0.000 N 
ATOM     29  H   UNL     1      -9.212   0.960 128.894  0.00  0.00    +0.000 HD
BRANCH  28  30
ATOM     30  N   UNL     1      -6.968   0.406 128.855  0.00  0.00    +0.000 NA
ATOM     31  C   UNL     1      -6.511  -0.422 127.620  0.00  0.00    +0.000 C 
ATOM     32  C   UNL     1      -7.467   0.571 126.917  0.00  0.00    +0.000 C 
ATOM     33  O   UNL     1      -8.630   0.736 127.172  0.00  0.00    +0.000 OA
ATOM     34  N   UNL     1      -6.843   1.070 125.854  0.00  0.00    +0.000 N 
ATOM     35  C   UNL     1      -7.540   0.219 125.109  0.00  0.00    +0.000 C 
ATOM     36  O   UNL     1      -8.728  -0.061 124.953  0.00  0.00    +0.000 OA
ATOM     37  C   UNL     1      -6.738  -0.832 124.757  0.00  0.00    +0.000 A 
ATOM     38  C   UNL     1      -6.890  -0.951 123.243  0.00  0.00    +0.000 A 
ATOM     39  C   UNL     1      -6.337  -1.899 122.460  0.00  0.00    +0.000 A 
ATOM     40  C   UNL     1      -5.529  -2.649 123.276  0.00  0.00    +0.000 A 
ATOM     41  C   UNL     1      -5.411  -2.427 124.949  0.00  0.00    +0.000 A 
ATOM     42  C   UNL     1      -6.149  -1.382 125.918  0.00  0.00    +0.000 A 
ATOM     43  H   UNL     1      -5.834   0.870 125.939  0.00  0.00    +0.000 HD
ENDBRANCH  28  30
ENDBRANCH  25  26
ENDBRANCH   1  25
TORSDOF 11
ENDMDL
MODEL 4
REMARK VINA RESULT:      -9.1      4.938     10.203
REMARK  Name = CHEMBL2113189
REMARK  13 active torsions:
REMARK  status: ('A' for Active; 'I' for Inactive)
REMARK    1  A    between atoms: C_1  and  N_2
REMARK    2  A    between atoms: N_2  and  C_3
REMARK    3  A    between atoms: N_2  and  C_4
REMARK    4  A    between atoms: C_4  and  C_5
REMARK    5  A    between atoms: C_5  and  C_6
REMARK    6  A    between atoms: C_6  and  O_7
REMARK    7  A    between atoms: O_7  and  C_8
REMARK    8  A    between atoms: C_11  and  S_12
REMARK    9  A    between atoms: S_12  and  N_15
REMARK   10  A    between atoms: N_15  and  C_16
REMARK   11  A    between atoms: N_15  and  C_33
REMARK   12  A    between atoms: C_16  and  C_17
REMARK   13  A    between atoms: N_19  and  N_20
REMARK                            x       y       z     vdW  Elec       q    Type
REMARK                         _______ _______ _______ _____ _____    ______ ____
ROOT
ATOM      1  N   UNL     1      -2.766   5.697 130.477  0.00  0.00    +0.000 N 
ENDROOT
BRANCH   1   2
ATOM      2  C   UNL     1      -2.117   6.783 131.336  0.00  0.00    +0.000 A 
ATOM      3  C   UNL     1      -0.798   6.588 131.786  0.00  0.00    +0.000 A 
ATOM      4  C   UNL     1      -0.211   7.386 132.794  0.00  0.00    +0.000 A 
ATOM      5  C   UNL     1      -0.881   8.504 133.275  0.00  0.00    +0.000 A 
ATOM      6 CL   UNL     1      -0.095   9.570 134.378  0.00  0.00    +0.000 Cl
ATOM      7  C   UNL     1      -2.167   8.773 132.821  0.00  0.00    +0.000 A 
ATOM      8  C   UNL     1      -2.778   7.915 131.867  0.00  0.00    +0.000 A 
ENDBRANCH   1   2
BRANCH   1   9
ATOM      9  S   UNL     1      -3.296   6.201 128.823  0.00  0.00    +0.000 S 
ATOM     10  O   UNL     1      -2.136   6.839 128.219  0.00  0.00    +0.000 OA
ATOM     11  O   UNL     1      -4.489   7.027 128.973  0.00  0.00    +0.000 OA
BRANCH   9  15
ATOM     12  C   UNL     1      -4.444   2.281 126.599  0.00  0.00    +0.000 A 
ATOM     13  C   UNL     1      -5.391   3.307 126.676  0.00  0.00    +0.000 A 
ATOM     14  C   UNL     1      -5.068   4.574 127.271  0.00  0.00    +0.000 A 
ATOM     15  C   UNL     1      -3.753   4.845 127.642  0.00  0.00    +0.000 A 
ATOM     16  C   UNL     1      -2.860   3.927 127.151  0.00  0.00    +0.000 A 
ATOM     17  C   UNL     1      -3.205   2.579 127.041  0.00  0.00    +0.000 A 
BRANCH  12  18
ATOM     18  O   UNL     1      -4.622   1.146 125.865  0.00  0.00    +0.000 OA
BRANCH  18  19
ATOM     19  C   UNL     1      -5.737   0.316 126.254  0.00  0.00    +0.000 C 
BRANCH  19  20
ATOM     20  C   UNL     1      -5.747  -0.857 125.312  0.00  0.00    +0.000 C 
BRANCH  20  21
ATOM     21  C   UNL     1      -7.114  -1.526 125.280  0.00  0.00    +0.000 C 
BRANCH  21  23
ATOM     22  C   UNL     1      -7.940  -3.683 124.635  0.00  0.00    +0.000 C 
ATOM     23  N   UNL     1      -7.179  -2.515 124.197  0.00  0.00    +0.000 NA
ATOM     24  C   UNL     1      -7.824  -1.939 123.010  0.00  0.00    +0.000 C 
ENDBRANCH  21  23
ENDBRANCH  20  21
ENDBRANCH  19  20
ENDBRANCH  18  19
ENDBRANCH  12  18
ENDBRANCH   9  15
ENDBRANCH   1   9
BRANCH   1  25
ATOM     25  C   UNL     1      -3.206   4.325 131.290  0.00  0.00    +0.000 C 
BRANCH  25  26
ATOM     26  C   UNL     1      -4.705   3.703 131.074  0.00  0.00    +0.000 C 
ATOM     27  O   UNL     1      -4.565   2.676 130.382  0.00  0.00    +0.000 OA
ATOM     28  N   UNL     1      -6.081   4.425 131.619  0.00  0.00    +0.000 N 
ATOM     29  H   UNL     1      -6.053   5.365 131.226  0.00  0.00    +0.000 HD
BRANCH  28  30
ATOM     30  N   UNL     1      -7.772   4.220 132.264  0.00  0.00    +0.000 NA
ATOM     31  C   UNL     1      -9.096   5.014 132.069  0.00  0.00    +0.000 C 
ATOM     32  C   UNL     1      -8.320   5.510 130.826  0.00  0.00    +0.000 C 
ATOM     33  O   UNL     1      -7.250   6.058 130.830  0.00  0.00    +0.000 OA
ATOM     34  N   UNL     1      -9.119   5.410 129.767  0.00  0.00    +0.000 N 
ATOM     35  C   UNL     1      -9.339   6.715 129.874  0.00  0.00    +0.000 C 
ATOM     36  O   UNL     1      -8.650   7.733 129.932  0.00  0.00    +0.000 OA
ATOM     37  C   UNL     1     -10.564   6.920 130.448  0.00  0.00    +0.000 A 
ATOM     38  C   UNL     1     -11.275   7.899 129.517  0.00  0.00    +0.000 A 
ATOM     39  C   UNL     1     -12.490   8.447 129.718  0.00  0.00    +0.000 A 
ATOM     40  C   UNL     1     -12.995   7.862 130.851  0.00  0.00    +0.000 A 
ATOM     41  C   UNL     1     -12.134   6.766 131.810  0.00  0.00    +0.000 A 
ATOM     42  C   UNL     1     -10.644   6.190 131.656  0.00  0.00    +0.000 A 
ATOM     43  H   UNL     1      -9.915   4.800 130.011  0.00  0.00    +0.000 HD
ENDBRANCH  28  30
ENDBRANCH  25  26
ENDBRANCH   1  25
TORSDOF 11
ENDMDL
MODEL 5
REMARK VINA RESULT:      -9.0      4.593      7.793
REMARK  Name = CHEMBL2113189
REMARK  13 active torsions:
REMARK  status: ('A' for Active; 'I' for Inactive)
REMARK    1  A    between atoms: C_1  and  N_2
REMARK    2  A    between atoms: N_2  and  C_3
REMARK    3  A    between atoms: N_2  and  C_4
REMARK    4  A    between atoms: C_4  and  C_5
REMARK    5  A    between atoms: C_5  and  C_6
REMARK    6  A    between atoms: C_6  and  O_7
REMARK    7  A    between atoms: O_7  and  C_8
REMARK    8  A    between atoms: C_11  and  S_12
REMARK    9  A    between atoms: S_12  and  N_15
REMARK   10  A    between atoms: N_15  and  C_16
REMARK   11  A    between atoms: N_15  and  C_33
REMARK   12  A    between atoms: C_16  and  C_17
REMARK   13  A    between atoms: N_19  and  N_20
REMARK                            x       y       z     vdW  Elec       q    Type
REMARK                         _______ _______ _______ _____ _____    ______ ____
ROOT
ATOM      1  N   UNL     1      -4.934   3.383 130.147  0.00  0.00    +0.000 N 
ENDROOT
BRANCH   1   2
ATOM      2  C   UNL     1      -5.768   2.104 130.214  0.00  0.00    +0.000 A 
ATOM      3  C   UNL     1      -5.105   0.863 130.178  0.00  0.00    +0.000 A 
ATOM      4  C   UNL     1      -5.783  -0.358 129.962  0.00  0.00    +0.000 A 
ATOM      5  C   UNL     1      -7.171  -0.386 129.924  0.00  0.00    +0.000 A 
ATOM      6 CL   UNL     1      -7.999  -1.895 129.829  0.00  0.00    +0.000 Cl
ATOM      7  C   UNL     1      -7.878   0.808 130.010  0.00  0.00    +0.000 A 
ATOM      8  C   UNL     1      -7.180   2.038 130.147  0.00  0.00    +0.000 A 
ENDBRANCH   1   2
BRANCH   1   9
ATOM      9  S   UNL     1      -5.000   4.454 131.603  0.00  0.00    +0.000 S 
ATOM     10  O   UNL     1      -4.100   5.561 131.314  0.00  0.00    +0.000 OA
ATOM     11  O   UNL     1      -4.677   3.638 132.768  0.00  0.00    +0.000 OA
BRANCH   9  15
ATOM     12  C   UNL     1      -9.306   6.209 131.701  0.00  0.00    +0.000 A 
ATOM     13  C   UNL     1      -9.006   5.128 132.537  0.00  0.00    +0.000 A 
ATOM     14  C   UNL     1      -7.673   4.599 132.618  0.00  0.00    +0.000 A 
ATOM     15  C   UNL     1      -6.630   5.260 131.975  0.00  0.00    +0.000 A 
ATOM     16  C   UNL     1      -6.982   6.510 131.533  0.00  0.00    +0.000 A 
ATOM     17  C   UNL     1      -8.265   6.764 131.046  0.00  0.00    +0.000 A 
BRANCH  12  18
ATOM     18  O   UNL     1     -10.489   6.884 131.740  0.00  0.00    +0.000 OA
BRANCH  18  19
ATOM     19  C   UNL     1     -11.615   6.213 131.133  0.00  0.00    +0.000 C 
BRANCH  19  20
ATOM     20  C   UNL     1     -12.698   7.245 130.982  0.00  0.00    +0.000 C 
BRANCH  20  21
ATOM     21  C   UNL     1     -12.367   8.234 129.872  0.00  0.00    +0.000 C 
BRANCH  21  23
ATOM     22  C   UNL     1     -12.777   7.299 127.703  0.00  0.00    +0.000 C 
ATOM     23  N   UNL     1     -11.763   7.541 128.728  0.00  0.00    +0.000 NA
ATOM     24  C   UNL     1     -10.679   8.346 128.150  0.00  0.00    +0.000 C 
ENDBRANCH  21  23
ENDBRANCH  20  21
ENDBRANCH  19  20
ENDBRANCH  18  19
ENDBRANCH  12  18
ENDBRANCH   9  15
ENDBRANCH   1   9
BRANCH   1  25
ATOM     25  C   UNL     1      -4.374   3.780 128.642  0.00  0.00    +0.000 C 
BRANCH  25  26
ATOM     26  C   UNL     1      -5.425   4.298 127.499  0.00  0.00    +0.000 C 
ATOM     27  O   UNL     1      -5.211   5.516 127.347  0.00  0.00    +0.000 OA
ATOM     28  N   UNL     1      -6.576   3.339 126.815  0.00  0.00    +0.000 N 
ATOM     29  H   UNL     1      -7.103   2.965 127.603  0.00  0.00    +0.000 HD
BRANCH  28  30
ATOM     30  N   UNL     1      -7.567   2.941 125.339  0.00  0.00    +0.000 NA
ATOM     31  C   UNL     1      -8.026   1.605 124.686  0.00  0.00    +0.000 C 
ATOM     32  C   UNL     1      -7.702   1.091 126.109  0.00  0.00    +0.000 C 
ATOM     33  O   UNL     1      -6.646   1.187 126.674  0.00  0.00    +0.000 OA
ATOM     34  N   UNL     1      -8.725   0.350 126.528  0.00  0.00    +0.000 N 
ATOM     35  C   UNL     1      -8.007  -0.724 126.218  0.00  0.00    +0.000 C 
ATOM     36  O   UNL     1      -6.886  -1.154 126.488  0.00  0.00    +0.000 OA
ATOM     37  C   UNL     1      -8.459  -1.242 125.035  0.00  0.00    +0.000 A 
ATOM     38  C   UNL     1      -8.693  -2.723 125.320  0.00  0.00    +0.000 A 
ATOM     39  C   UNL     1      -9.073  -3.655 124.423  0.00  0.00    +0.000 A 
ATOM     40  C   UNL     1      -9.318  -2.986 123.252  0.00  0.00    +0.000 A 
ATOM     41  C   UNL     1      -9.046  -1.329 123.038  0.00  0.00    +0.000 A 
ATOM     42  C   UNL     1      -8.482  -0.224 124.055  0.00  0.00    +0.000 A 
ATOM     43  H   UNL     1      -9.538   0.536 125.920  0.00  0.00    +0.000 HD
ENDBRANCH  28  30
ENDBRANCH  25  26
ENDBRANCH   1  25
TORSDOF 11
ENDMDL
MODEL 6
REMARK VINA RESULT:      -9.0      4.724      7.139
REMARK  Name = CHEMBL2113189
REMARK  13 active torsions:
REMARK  status: ('A' for Active; 'I' for Inactive)
REMARK    1  A    between atoms: C_1  and  N_2
REMARK    2  A    between atoms: N_2  and  C_3
REMARK    3  A    between atoms: N_2  and  C_4
REMARK    4  A    between atoms: C_4  and  C_5
REMARK    5  A    between atoms: C_5  and  C_6
REMARK    6  A    between atoms: C_6  and  O_7
REMARK    7  A    between atoms: O_7  and  C_8
REMARK    8  A    between atoms: C_11  and  S_12
REMARK    9  A    between atoms: S_12  and  N_15
REMARK   10  A    between atoms: N_15  and  C_16
REMARK   11  A    between atoms: N_15  and  C_33
REMARK   12  A    between atoms: C_16  and  C_17
REMARK   13  A    between atoms: N_19  and  N_20
REMARK                            x       y       z     vdW  Elec       q    Type
REMARK                         _______ _______ _______ _____ _____    ______ ____
ROOT
ATOM      1  N   UNL     1     -10.238   4.862 131.233  0.00  0.00    +0.000 N 
ENDROOT
BRANCH   1   2
ATOM      2  C   UNL     1     -11.085   6.026 130.717  0.00  0.00    +0.000 A 
ATOM      3  C   UNL     1     -10.601   6.786 129.636  0.00  0.00    +0.000 A 
ATOM      4  C   UNL     1     -11.163   8.028 129.266  0.00  0.00    +0.000 A 
ATOM      5  C   UNL     1     -12.327   8.476 129.877  0.00  0.00    +0.000 A 
ATOM      6 CL   UNL     1     -13.102   9.907 129.309  0.00  0.00    +0.000 Cl
ATOM      7  C   UNL     1     -12.877   7.735 130.916  0.00  0.00    +0.000 A 
ATOM      8  C   UNL     1     -12.256   6.527 131.334  0.00  0.00    +0.000 A 
ENDBRANCH   1   2
BRANCH   1   9
ATOM      9  S   UNL     1      -9.101   5.243 132.587  0.00  0.00    +0.000 S 
ATOM     10  O   UNL     1      -9.049   4.039 133.403  0.00  0.00    +0.000 OA
ATOM     11  O   UNL     1      -9.582   6.454 133.242  0.00  0.00    +0.000 OA
BRANCH   9  15
ATOM     12  C   UNL     1      -4.881   5.634 130.673  0.00  0.00    +0.000 A 
ATOM     13  C   UNL     1      -5.646   6.792 130.844  0.00  0.00    +0.000 A 
ATOM     14  C   UNL     1      -6.919   6.750 131.509  0.00  0.00    +0.000 A 
ATOM     15  C   UNL     1      -7.334   5.573 132.127  0.00  0.00    +0.000 A 
ATOM     16  C   UNL     1      -6.330   4.644 132.235  0.00  0.00    +0.000 A 
ATOM     17  C   UNL     1      -5.369   4.508 131.232  0.00  0.00    +0.000 A 
BRANCH  12  18
ATOM     18  O   UNL     1      -3.586   5.644 130.246  0.00  0.00    +0.000 OA
BRANCH  18  19
ATOM     19  C   UNL     1      -2.686   4.761 130.949  0.00  0.00    +0.000 C 
BRANCH  19  20
ATOM     20  C   UNL     1      -1.860   5.627 131.860  0.00  0.00    +0.000 C 
BRANCH  20  21
ATOM     21  C   UNL     1      -2.258   5.431 133.317  0.00  0.00    +0.000 C 
BRANCH  21  23
ATOM     22  C   UNL     1      -2.568   7.776 132.921  0.00  0.00    +0.000 C 
ATOM     23  N   UNL     1      -2.674   6.707 133.913  0.00  0.00    +0.000 NA
ATOM     24  C   UNL     1      -4.062   6.626 134.386  0.00  0.00    +0.000 C 
ENDBRANCH  21  23
ENDBRANCH  20  21
ENDBRANCH  19  20
ENDBRANCH  18  19
ENDBRANCH  12  18
ENDBRANCH   9  15
ENDBRANCH   1   9
BRANCH   1  25
ATOM     25  C   UNL     1     -10.222   3.520 130.264  0.00  0.00    +0.000 C 
BRANCH  25  26
ATOM     26  C   UNL     1      -8.849   3.114 129.470  0.00  0.00    +0.000 C 
ATOM     27  O   UNL     1      -8.287   4.182 129.164  0.00  0.00    +0.000 OA
ATOM     28  N   UNL     1      -8.432   1.563 129.104  0.00  0.00    +0.000 N 
ATOM     29  H   UNL     1      -9.232   1.193 128.593  0.00  0.00    +0.000 HD
BRANCH  28  30
ATOM     30  N   UNL     1      -7.096   0.348 128.857  0.00  0.00    +0.000 NA
ATOM     31  C   UNL     1      -6.634  -0.502 127.639  0.00  0.00    +0.000 C 
ATOM     32  C   UNL     1      -7.441   0.587 126.893  0.00  0.00    +0.000 C 
ATOM     33  O   UNL     1      -8.598   0.858 127.071  0.00  0.00    +0.000 OA
ATOM     34  N   UNL     1      -6.700   1.039 125.886  0.00  0.00    +0.000 N 
ATOM     35  C   UNL     1      -7.419   0.269 125.077  0.00  0.00    +0.000 C 
ATOM     36  O   UNL     1      -8.615   0.105 124.834  0.00  0.00    +0.000 OA
ATOM     37  C   UNL     1      -6.697  -0.849 124.759  0.00  0.00    +0.000 A 
ATOM     38  C   UNL     1      -6.753  -0.931 123.236  0.00  0.00    +0.000 A 
ATOM     39  C   UNL     1      -6.239  -1.917 122.474  0.00  0.00    +0.000 A 
ATOM     40  C   UNL     1      -5.564  -2.752 123.327  0.00  0.00    +0.000 A 
ATOM     41  C   UNL     1      -5.543  -2.565 125.009  0.00  0.00    +0.000 A 
ATOM     42  C   UNL     1      -6.245  -1.469 125.946  0.00  0.00    +0.000 A 
ATOM     43  H   UNL     1      -5.723   0.743 126.035  0.00  0.00    +0.000 HD
ENDBRANCH  28  30
ENDBRANCH  25  26
ENDBRANCH   1  25
TORSDOF 11
ENDMDL
MODEL 7
REMARK VINA RESULT:      -8.9      2.181      7.104
REMARK  Name = CHEMBL2113189
REMARK  13 active torsions:
REMARK  status: ('A' for Active; 'I' for Inactive)
REMARK    1  A    between atoms: C_1  and  N_2
REMARK    2  A    between atoms: N_2  and  C_3
REMARK    3  A    between atoms: N_2  and  C_4
REMARK    4  A    between atoms: C_4  and  C_5
REMARK    5  A    between atoms: C_5  and  C_6
REMARK    6  A    between atoms: C_6  and  O_7
REMARK    7  A    between atoms: O_7  and  C_8
REMARK    8  A    between atoms: C_11  and  S_12
REMARK    9  A    between atoms: S_12  and  N_15
REMARK   10  A    between atoms: N_15  and  C_16
REMARK   11  A    between atoms: N_15  and  C_33
REMARK   12  A    between atoms: C_16  and  C_17
REMARK   13  A    between atoms: N_19  and  N_20
REMARK                            x       y       z     vdW  Elec       q    Type
REMARK                         _______ _______ _______ _____ _____    ______ ____
ROOT
ATOM      1  N   UNL     1      -8.091   1.494 124.032  0.00  0.00    +0.000 N 
ENDROOT
BRANCH   1   2
ATOM      2  C   UNL     1      -7.723   2.438 122.887  0.00  0.00    +0.000 A 
ATOM      3  C   UNL     1      -8.752   2.932 122.064  0.00  0.00    +0.000 A 
ATOM      4  C   UNL     1      -8.499   3.579 120.833  0.00  0.00    +0.000 A 
ATOM      5  C   UNL     1      -7.195   3.883 120.461  0.00  0.00    +0.000 A 
ATOM      6 CL   UNL     1      -6.900   4.818 119.044  0.00  0.00    +0.000 Cl
ATOM      7  C   UNL     1      -6.143   3.463 121.267  0.00  0.00    +0.000 A 
ATOM      8  C   UNL     1      -6.408   2.743 122.463  0.00  0.00    +0.000 A 
ENDBRANCH   1   2
BRANCH   1   9
ATOM      9  S   UNL     1      -8.313  -0.245 123.592  0.00  0.00    +0.000 S 
ATOM     10  O   UNL     1      -7.232  -0.554 122.667  0.00  0.00    +0.000 OA
ATOM     11  O   UNL     1      -9.671  -0.405 123.083  0.00  0.00    +0.000 OA
BRANCH   9  15
ATOM     12  C   UNL     1      -8.487  -2.867 127.429  0.00  0.00    +0.000 A 
ATOM     13  C   UNL     1      -8.928  -3.420 126.222  0.00  0.00    +0.000 A 
ATOM     14  C   UNL     1      -8.818  -2.693 124.987  0.00  0.00    +0.000 A 
ATOM     15  C   UNL     1      -8.126  -1.485 124.960  0.00  0.00    +0.000 A 
ATOM     16  C   UNL     1      -7.405  -1.256 126.104  0.00  0.00    +0.000 A 
ATOM     17  C   UNL     1      -7.889  -1.661 127.349  0.00  0.00    +0.000 A 
BRANCH  12  18
ATOM     18  O   UNL     1      -8.370  -3.580 128.585  0.00  0.00    +0.000 OA
BRANCH  18  19
ATOM     19  C   UNL     1      -7.902  -2.842 129.733  0.00  0.00    +0.000 C 
BRANCH  19  20
ATOM     20  C   UNL     1      -6.740  -3.615 130.296  0.00  0.00    +0.000 C 
BRANCH  20  21
ATOM     21  C   UNL     1      -5.413  -3.012 129.855  0.00  0.00    +0.000 C 
BRANCH  21  23
ATOM     22  C   UNL     1      -3.215  -3.724 129.214  0.00  0.00    +0.000 C 
ATOM     23  N   UNL     1      -4.305  -3.924 130.167  0.00  0.00    +0.000 NA
ATOM     24  C   UNL     1      -3.806  -3.683 131.526  0.00  0.00    +0.000 C 
ENDBRANCH  21  23
ENDBRANCH  20  21
ENDBRANCH  19  20
ENDBRANCH  18  19
ENDBRANCH  12  18
ENDBRANCH   9  15
ENDBRANCH   1   9
BRANCH   1  25
ATOM     25  C   UNL     1      -8.573   2.239 125.429  0.00  0.00    +0.000 C 
BRANCH  25  26
ATOM     26  C   UNL     1      -7.496   2.456 126.643  0.00  0.00    +0.000 C 
ATOM     27  O   UNL     1      -7.986   1.915 127.652  0.00  0.00    +0.000 OA
ATOM     28  N   UNL     1      -6.106   3.325 126.485  0.00  0.00    +0.000 N 
ATOM     29  H   UNL     1      -6.408   4.237 126.144  0.00  0.00    +0.000 HD
BRANCH  28  30
ATOM     30  N   UNL     1      -4.366   3.546 126.979  0.00  0.00    +0.000 NA
ATOM     31  C   UNL     1      -3.663   4.410 128.066  0.00  0.00    +0.000 C 
ATOM     32  C   UNL     1      -5.100   4.405 128.639  0.00  0.00    +0.000 C 
ATOM     33  O   UNL     1      -6.090   4.785 128.074  0.00  0.00    +0.000 OA
ATOM     34  N   UNL     1      -5.033   4.098 129.931  0.00  0.00    +0.000 N 
ATOM     35  C   UNL     1      -5.172   5.392 130.195  0.00  0.00    +0.000 C 
ATOM     36  O   UNL     1      -5.968   6.281 129.894  0.00  0.00    +0.000 OA
ATOM     37  C   UNL     1      -3.953   5.918 130.527  0.00  0.00    +0.000 A 
ATOM     38  C   UNL     1      -4.190   6.657 131.842  0.00  0.00    +0.000 A 
ATOM     39  C   UNL     1      -3.283   7.394 132.514  0.00  0.00    +0.000 A 
ATOM     40  C   UNL     1      -2.095   7.246 131.846  0.00  0.00    +0.000 A 
ATOM     41  C   UNL     1      -1.926   6.385 130.399  0.00  0.00    +0.000 A 
ATOM     42  C   UNL     1      -3.014   5.600 129.519  0.00  0.00    +0.000 A 
ATOM     43  H   UNL     1      -4.102   3.698 130.128  0.00  0.00    +0.000 HD
ENDBRANCH  28  30
ENDBRANCH  25  26
ENDBRANCH   1  25
TORSDOF 11
ENDMDL
MODEL 8
REMARK VINA RESULT:      -8.9      5.525     11.230
REMARK  Name = CHEMBL2113189
REMARK  13 active torsions:
REMARK  status: ('A' for Active; 'I' for Inactive)
REMARK    1  A    between atoms: C_1  and  N_2
REMARK    2  A    between atoms: N_2  and  C_3
REMARK    3  A    between atoms: N_2  and  C_4
REMARK    4  A    between atoms: C_4  and  C_5
REMARK    5  A    between atoms: C_5  and  C_6
REMARK    6  A    between atoms: C_6  and  O_7
REMARK    7  A    between atoms: O_7  and  C_8
REMARK    8  A    between atoms: C_11  and  S_12
REMARK    9  A    between atoms: S_12  and  N_15
REMARK   10  A    between atoms: N_15  and  C_16
REMARK   11  A    between atoms: N_15  and  C_33
REMARK   12  A    between atoms: C_16  and  C_17
REMARK   13  A    between atoms: N_19  and  N_20
REMARK                            x       y       z     vdW  Elec       q    Type
REMARK                         _______ _______ _______ _____ _____    ______ ____
ROOT
ATOM      1  N   UNL     1      -7.169  -1.323 132.261  0.00  0.00    +0.000 N 
ENDROOT
BRANCH   1   2
ATOM      2  C   UNL     1      -7.141  -2.077 133.591  0.00  0.00    +0.000 A 
ATOM      3  C   UNL     1      -8.067  -3.116 133.796  0.00  0.00    +0.000 A 
ATOM      4  C   UNL     1      -8.305  -3.685 135.068  0.00  0.00    +0.000 A 
ATOM      5  C   UNL     1      -7.509  -3.329 136.150  0.00  0.00    +0.000 A 
ATOM      6 CL   UNL     1      -7.691  -4.145 137.657  0.00  0.00    +0.000 Cl
ATOM      7  C   UNL     1      -6.542  -2.344 135.987  0.00  0.00    +0.000 A 
ATOM      8  C   UNL     1      -6.367  -1.722 134.721  0.00  0.00    +0.000 A 
ENDBRANCH   1   2
BRANCH   1   9
ATOM      9  S   UNL     1      -5.942  -1.830 131.032  0.00  0.00    +0.000 S 
ATOM     10  O   UNL     1      -5.205  -2.925 131.647  0.00  0.00    +0.000 OA
ATOM     11  O   UNL     1      -5.169  -0.649 130.665  0.00  0.00    +0.000 OA
BRANCH   9  15
ATOM     12  C   UNL     1      -8.287  -3.076 127.215  0.00  0.00    +0.000 A 
ATOM     13  C   UNL     1      -7.113  -2.331 127.063  0.00  0.00    +0.000 A 
ATOM     14  C   UNL     1      -6.297  -1.992 128.197  0.00  0.00    +0.000 A 
ATOM     15  C   UNL     1      -6.592  -2.536 129.444  0.00  0.00    +0.000 A 
ATOM     16  C   UNL     1      -7.509  -3.554 129.380  0.00  0.00    +0.000 A 
ATOM     17  C   UNL     1      -8.559  -3.515 128.460  0.00  0.00    +0.000 A 
BRANCH  12  18
ATOM     18  O   UNL     1      -8.982  -3.605 126.168  0.00  0.00    +0.000 OA
BRANCH  18  19
ATOM     19  C   UNL     1      -9.422  -2.662 125.167  0.00  0.00    +0.000 C 
BRANCH  19  20
ATOM     20  C   UNL     1      -9.081  -3.265 123.831  0.00  0.00    +0.000 C 
BRANCH  20  21
ATOM     21  C   UNL     1      -8.409  -2.244 122.922  0.00  0.00    +0.000 C 
BRANCH  21  23
ATOM     22  C   UNL     1      -6.013  -2.238 123.018  0.00  0.00    +0.000 C 
ATOM     23  N   UNL     1      -7.234  -1.662 123.580  0.00  0.00    +0.000 NA
ATOM     24  C   UNL     1      -7.208  -0.206 123.396  0.00  0.00    +0.000 C 
ENDBRANCH  21  23
ENDBRANCH  20  21
ENDBRANCH  19  20
ENDBRANCH  18  19
ENDBRANCH  12  18
ENDBRANCH   9  15
ENDBRANCH   1   9
BRANCH   1  25
ATOM     25  C   UNL     1      -8.069   0.065 132.257  0.00  0.00    +0.000 C 
BRANCH  25  26
ATOM     26  C   UNL     1      -7.338   1.503 132.538  0.00  0.00    +0.000 C 
ATOM     27  O   UNL     1      -6.278   1.249 133.142  0.00  0.00    +0.000 OA
ATOM     28  N   UNL     1      -8.005   2.958 132.149  0.00  0.00    +0.000 N 
ATOM     29  H   UNL     1      -8.915   2.955 132.606  0.00  0.00    +0.000 HD
BRANCH  28  30
ATOM     30  N   UNL     1      -7.736   4.679 131.617  0.00  0.00    +0.000 NA
ATOM     31  C   UNL     1      -8.594   5.698 130.814  0.00  0.00    +0.000 C 
ATOM     32  C   UNL     1      -9.710   4.721 131.253  0.00  0.00    +0.000 C 
ATOM     33  O   UNL     1      -9.751   3.542 131.024  0.00  0.00    +0.000 OA
ATOM     34  N   UNL     1     -10.715   5.434 131.755  0.00  0.00    +0.000 N 
ATOM     35  C   UNL     1     -11.341   5.274 130.595  0.00  0.00    +0.000 C 
ATOM     36  O   UNL     1     -11.660   4.326 129.878  0.00  0.00    +0.000 OA
ATOM     37  C   UNL     1     -11.237   6.426 129.864  0.00  0.00    +0.000 A 
ATOM     38  C   UNL     1     -12.667   6.752 129.440  0.00  0.00    +0.000 A 
ATOM     39  C   UNL     1     -13.046   7.767 128.639  0.00  0.00    +0.000 A 
ATOM     40  C   UNL     1     -11.917   8.503 128.387  0.00  0.00    +0.000 A 
ATOM     41  C   UNL     1     -10.371   8.070 128.921  0.00  0.00    +0.000 A 
ATOM     42  C   UNL     1      -9.878   6.804 129.775  0.00  0.00    +0.000 A 
ATOM     43  H   UNL     1     -10.376   6.388 131.954  0.00  0.00    +0.000 HD
ENDBRANCH  28  30
ENDBRANCH  25  26
ENDBRANCH   1  25
TORSDOF 11
ENDMDL
MODEL 9
REMARK VINA RESULT:      -8.8      5.296     10.871
REMARK  Name = CHEMBL2113189
REMARK  13 active torsions:
REMARK  status: ('A' for Active; 'I' for Inactive)
REMARK    1  A    between atoms: C_1  and  N_2
REMARK    2  A    between atoms: N_2  and  C_3
REMARK    3  A    between atoms: N_2  and  C_4
REMARK    4  A    between atoms: C_4  and  C_5
REMARK    5  A    between atoms: C_5  and  C_6
REMARK    6  A    between atoms: C_6  and  O_7
REMARK    7  A    between atoms: O_7  and  C_8
REMARK    8  A    between atoms: C_11  and  S_12
REMARK    9  A    between atoms: S_12  and  N_15
REMARK   10  A    between atoms: N_15  and  C_16
REMARK   11  A    between atoms: N_15  and  C_33
REMARK   12  A    between atoms: C_16  and  C_17
REMARK   13  A    between atoms: N_19  and  N_20
REMARK                            x       y       z     vdW  Elec       q    Type
REMARK                         _______ _______ _______ _____ _____    ______ ____
ROOT
ATOM      1  N   UNL     1      -6.628  -1.151 131.960  0.00  0.00    +0.000 N 
ENDROOT
BRANCH   1   2
ATOM      2  C   UNL     1      -5.615  -1.165 133.106  0.00  0.00    +0.000 A 
ATOM      3  C   UNL     1      -4.391  -0.493 132.932  0.00  0.00    +0.000 A 
ATOM      4  C   UNL     1      -3.294  -0.671 133.806  0.00  0.00    +0.000 A 
ATOM      5  C   UNL     1      -3.443  -1.416 134.968  0.00  0.00    +0.000 A 
ATOM      6 CL   UNL     1      -2.157  -1.492 136.113  0.00  0.00    +0.000 Cl
ATOM      7  C   UNL     1      -4.652  -2.057 135.214  0.00  0.00    +0.000 A 
ATOM      8  C   UNL     1      -5.722  -1.936 134.287  0.00  0.00    +0.000 A 
ENDBRANCH   1   2
BRANCH   1   9
ATOM      9  S   UNL     1      -6.068  -1.862 130.394  0.00  0.00    +0.000 S 
ATOM     10  O   UNL     1      -5.530  -3.172 130.730  0.00  0.00    +0.000 OA
ATOM     11  O   UNL     1      -5.142  -0.914 129.783  0.00  0.00    +0.000 OA
BRANCH   9  15
ATOM     12  C   UNL     1      -8.655  -3.087 126.729  0.00  0.00    +0.000 A 
ATOM     13  C   UNL     1      -8.871  -3.740 127.947  0.00  0.00    +0.000 A 
ATOM     14  C   UNL     1      -8.167  -3.346 129.136  0.00  0.00    +0.000 A 
ATOM     15  C   UNL     1      -7.371  -2.204 129.118  0.00  0.00    +0.000 A 
ATOM     16  C   UNL     1      -7.560  -1.439 127.996  0.00  0.00    +0.000 A 
ATOM     17  C   UNL     1      -7.816  -2.032 126.758  0.00  0.00    +0.000 A 
BRANCH  12  18
ATOM     18  O   UNL     1      -9.437  -3.271 125.628  0.00  0.00    +0.000 OA
BRANCH  18  19
ATOM     19  C   UNL     1      -8.740  -3.624 124.414  0.00  0.00    +0.000 C 
BRANCH  19  20
ATOM     20  C   UNL     1      -9.390  -2.845 123.304  0.00  0.00    +0.000 C 
BRANCH  20  21
ATOM     21  C   UNL     1      -8.801  -1.446 123.194  0.00  0.00    +0.000 C 
BRANCH  21  23
ATOM     22  C   UNL     1      -9.262   0.420 124.628  0.00  0.00    +0.000 C 
ATOM     23  N   UNL     1      -9.797  -0.436 123.570  0.00  0.00    +0.000 NA
ATOM     24  C   UNL     1     -10.153   0.395 122.413  0.00  0.00    +0.000 C 
ENDBRANCH  21  23
ENDBRANCH  20  21
ENDBRANCH  19  20
ENDBRANCH  18  19
ENDBRANCH  12  18
ENDBRANCH   9  15
ENDBRANCH   1   9
BRANCH   1  25
ATOM     25  C   UNL     1      -7.951  -0.187 132.201  0.00  0.00    +0.000 C 
BRANCH  25  26
ATOM     26  C   UNL     1      -7.742   1.381 132.622  0.00  0.00    +0.000 C 
ATOM     27  O   UNL     1      -7.326   1.380 133.796  0.00  0.00    +0.000 OA
ATOM     28  N   UNL     1      -8.133   2.648 131.646  0.00  0.00    +0.000 N 
ATOM     29  H   UNL     1      -9.112   2.499 131.406  0.00  0.00    +0.000 HD
BRANCH  28  30
ATOM     30  N   UNL     1      -7.760   4.351 131.113  0.00  0.00    +0.000 NA
ATOM     31  C   UNL     1      -8.604   5.470 130.437  0.00  0.00    +0.000 C 
ATOM     32  C   UNL     1      -9.750   4.592 130.992  0.00  0.00    +0.000 C 
ATOM     33  O   UNL     1      -9.934   3.429 130.750  0.00  0.00    +0.000 OA
ATOM     34  N   UNL     1     -10.613   5.383 131.623  0.00  0.00    +0.000 N 
ATOM     35  C   UNL     1     -11.385   5.317 130.545  0.00  0.00    +0.000 C 
ATOM     36  O   UNL     1     -11.879   4.424 129.857  0.00  0.00    +0.000 OA
ATOM     37  C   UNL     1     -11.256   6.474 129.826  0.00  0.00    +0.000 A 
ATOM     38  C   UNL     1     -12.687   6.948 129.584  0.00  0.00    +0.000 A 
ATOM     39  C   UNL     1     -13.057   8.017 128.851  0.00  0.00    +0.000 A 
ATOM     40  C   UNL     1     -11.899   8.648 128.476  0.00  0.00    +0.000 A 
ATOM     41  C   UNL     1     -10.350   8.053 128.812  0.00  0.00    +0.000 A 
ATOM     42  C   UNL     1      -9.886   6.723 129.579  0.00  0.00    +0.000 A 
ATOM     43  H   UNL     1     -10.161   6.295 131.795  0.00  0.00    +0.000 HD
ENDBRANCH  28  30
ENDBRANCH  25  26
ENDBRANCH   1  25
TORSDOF 11
ENDMDL
