MODEL 1
REMARK VINA RESULT:      -7.7      0.000      0.000
REMARK  Name = CHEMBL270013
REMARK  11 active torsions:
REMARK  status: ('A' for Active; 'I' for Inactive)
REMARK    1  A    between atoms: CD1_1  and  CG_2
REMARK    2  A    between atoms: CG_2  and  CD2_3
REMARK    3  A    between atoms: CG_2  and  CB_4
REMARK    4  A    between atoms: CB_4  and  CA_5
REMARK    5  A    between atoms: C_9  and  C_10
REMARK    6  A    between atoms: N_21  and  C_22
REMARK    7  A    between atoms: C_22  and  C_23
REMARK    8  A    between atoms: C_22  and  C_29
REMARK    9  A    between atoms: N_25  and  C_26
REMARK   10  A    between atoms: C_26  and  C_27
REMARK   11  A    between atoms: C_26  and  C_28
REMARK                            x       y       z     vdW  Elec       q    Type
REMARK                         _______ _______ _______ _____ _____    ______ ____
ROOT
ATOM      1  CA  LEU A   2      -4.857   2.083 128.590  0.00  0.00    +0.000 C 
ATOM      2  C   LEU A   2      -5.321   0.862 127.773  0.00  0.00    +0.000 C 
ATOM      3  O   LEU A   2      -5.003   0.518 126.664  0.00  0.00    +0.000 OA
ATOM      4  N   UNK A   1      -6.131   0.044 128.457  0.00  0.00    +0.000 N 
ATOM      5  C   UNK A   1      -6.537   0.287 129.806  0.00  0.00    +0.000 C 
ATOM      6  C   UNK A   1      -6.858   1.775 130.003  0.00  0.00    +0.000 C 
ATOM      7  O   UNK A   1      -7.740   2.043 130.809  0.00  0.00    +0.000 OA
ATOM      8  N   LEU A   2      -6.057   2.689 129.292  0.00  0.00    +0.000 N 
ATOM      9  H   UNK A   1      -6.397  -0.760 127.907  0.00  0.00    +0.000 HD
ENDROOT
BRANCH   5  10
ATOM     10  C   UNK A   1      -7.822  -0.504 130.135  0.00  0.00    +0.000 C 
ATOM     11  C   UNK A   1      -7.826  -0.965 131.600  0.00  0.00    +0.000 C 
ATOM     12  C   UNK A   1      -7.182  -2.316 131.487  0.00  0.00    +0.000 A 
ATOM     13  C   UNK A   1      -6.480  -2.997 132.464  0.00  0.00    +0.000 A 
ATOM     14  C   UNK A   1      -5.822  -4.174 132.104  0.00  0.00    +0.000 A 
ATOM     15  C   UNK A   1      -5.860  -4.646 130.781  0.00  0.00    +0.000 A 
ATOM     16  C   UNK A   1      -6.554  -3.944 129.793  0.00  0.00    +0.000 A 
ATOM     17  C   UNK A   1      -7.218  -2.787 130.164  0.00  0.00    +0.000 A 
ATOM     18  C   UNK A   1      -7.913  -1.802 129.274  0.00  0.00    +0.000 C 
ENDBRANCH   5  10
BRANCH   1  19
ATOM     19  CB  LEU A   2      -4.180   2.977 127.587  0.00  0.00    +0.000 C 
BRANCH  19  21
ATOM     20  CD1 LEU A   2      -1.821   3.068 126.645  0.00  0.00    +0.000 C 
ATOM     21  CG  LEU A   2      -2.750   3.464 127.771  0.00  0.00    +0.000 C 
ATOM     22  CD2 LEU A   2      -2.715   4.950 127.904  0.00  0.00    +0.000 C 
ENDBRANCH  19  21
ENDBRANCH   1  19
BRANCH   8  23
ATOM     23  C   UNK A   0      -6.357   4.199 129.263  0.00  0.00    +0.000 C 
BRANCH  23  24
ATOM     24  C   UNK A   0      -5.719   4.958 130.474  0.00  0.00    +0.000 A 
ATOM     25  C   UNK A   0      -5.571   6.336 130.625  0.00  0.00    +0.000 A 
ATOM     26  C   UNK A   0      -4.707   6.703 131.704  0.00  0.00    +0.000 A 
ATOM     27  C   UNK A   0      -4.349   5.620 132.464  0.00  0.00    +0.000 A 
ATOM     28  S   UNK A   0      -4.975   4.179 131.828  0.00  0.00    +0.000 S 
ENDBRANCH  23  24
BRANCH  23  29
ATOM     29  C   UNK A   0      -7.916   4.552 129.118  0.00  0.00    +0.000 C 
ATOM     30  O   UNK A   0      -8.476   4.782 128.046  0.00  0.00    +0.000 OA
ATOM     31  N   UNK A   0      -8.686   4.714 130.266  0.00  0.00    +0.000 N 
ATOM     32  H   UNK A   0      -8.428   4.305 131.152  0.00  0.00    +0.000 HD
BRANCH  31  33
ATOM     33  C   UNK A   0     -10.023   5.293 130.177  0.00  0.00    +0.000 C 
ATOM     34  C   UNK A   0     -10.944   4.156 130.510  0.00  0.00    +0.000 C 
ATOM     35  C   UNK A   0     -10.322   6.420 131.150  0.00  0.00    +0.000 C 
ENDBRANCH  31  33
ENDBRANCH  23  29
ENDBRANCH   8  23
TORSDOF 7
ENDMDL
MODEL 2
REMARK VINA RESULT:      -7.7      3.035      4.181
REMARK  Name = CHEMBL270013
REMARK  11 active torsions:
REMARK  status: ('A' for Active; 'I' for Inactive)
REMARK    1  A    between atoms: CD1_1  and  CG_2
REMARK    2  A    between atoms: CG_2  and  CD2_3
REMARK    3  A    between atoms: CG_2  and  CB_4
REMARK    4  A    between atoms: CB_4  and  CA_5
REMARK    5  A    between atoms: C_9  and  C_10
REMARK    6  A    between atoms: N_21  and  C_22
REMARK    7  A    between atoms: C_22  and  C_23
REMARK    8  A    between atoms: C_22  and  C_29
REMARK    9  A    between atoms: N_25  and  C_26
REMARK   10  A    between atoms: C_26  and  C_27
REMARK   11  A    between atoms: C_26  and  C_28
REMARK                            x       y       z     vdW  Elec       q    Type
REMARK                         _______ _______ _______ _____ _____    ______ ____
ROOT
ATOM      1  CA  LEU A   2      -5.152   3.058 126.983  0.00  0.00    +0.000 C 
ATOM      2  C   LEU A   2      -5.790   2.690 125.630  0.00  0.00    +0.000 C 
ATOM      3  O   LEU A   2      -5.845   3.330 124.610  0.00  0.00    +0.000 OA
ATOM      4  N   UNK A   1      -6.272   1.442 125.594  0.00  0.00    +0.000 N 
ATOM      5  C   UNK A   1      -6.213   0.543 126.705  0.00  0.00    +0.000 C 
ATOM      6  C   UNK A   1      -6.536   1.289 128.006  0.00  0.00    +0.000 C 
ATOM      7  O   UNK A   1      -7.109   0.647 128.877  0.00  0.00    +0.000 OA
ATOM      8  N   LEU A   2      -6.079   2.617 128.099  0.00  0.00    +0.000 N 
ATOM      9  H   UNK A   1      -6.660   1.219 124.688  0.00  0.00    +0.000 HD
ENDROOT
BRANCH   5  10
ATOM     10  C   UNK A   1      -7.262  -0.579 126.548  0.00  0.00    +0.000 C 
ATOM     11  C   UNK A   1      -6.603  -1.964 126.625  0.00  0.00    +0.000 C 
ATOM     12  C   UNK A   1      -6.300  -2.228 125.178  0.00  0.00    +0.000 A 
ATOM     13  C   UNK A   1      -5.311  -3.042 124.661  0.00  0.00    +0.000 A 
ATOM     14  C   UNK A   1      -5.095  -3.024 123.282  0.00  0.00    +0.000 A 
ATOM     15  C   UNK A   1      -5.852  -2.189 122.444  0.00  0.00    +0.000 A 
ATOM     16  C   UNK A   1      -6.837  -1.352 122.973  0.00  0.00    +0.000 A 
ATOM     17  C   UNK A   1      -7.056  -1.390 124.340  0.00  0.00    +0.000 A 
ATOM     18  C   UNK A   1      -7.954  -0.506 125.152  0.00  0.00    +0.000 C 
ENDBRANCH   5  10
BRANCH   1  19
ATOM     19  CB  LEU A   2      -4.908   4.540 126.898  0.00  0.00    +0.000 C 
BRANCH  19  21
ATOM     20  CD1 LEU A   2      -3.698   6.202 128.394  0.00  0.00    +0.000 C 
ATOM     21  CG  LEU A   2      -3.579   5.167 127.297  0.00  0.00    +0.000 C 
ATOM     22  CD2 LEU A   2      -2.619   4.118 127.749  0.00  0.00    +0.000 C 
ENDBRANCH  19  21
ENDBRANCH   1  19
BRANCH   8  23
ATOM     23  C   UNK A   0      -6.460   3.541 129.271  0.00  0.00    +0.000 C 
BRANCH  23  24
ATOM     24  C   UNK A   0      -5.372   3.558 130.396  0.00  0.00    +0.000 A 
ATOM     25  C   UNK A   0      -4.404   2.588 130.650  0.00  0.00    +0.000 A 
ATOM     26  C   UNK A   0      -3.742   2.757 131.907  0.00  0.00    +0.000 A 
ATOM     27  C   UNK A   0      -4.085   3.938 132.512  0.00  0.00    +0.000 A 
ATOM     28  S   UNK A   0      -5.253   4.780 131.616  0.00  0.00    +0.000 S 
ENDBRANCH  23  24
BRANCH  23  29
ATOM     29  C   UNK A   0      -7.916   3.253 129.881  0.00  0.00    +0.000 C 
ATOM     30  O   UNK A   0      -8.966   3.671 129.393  0.00  0.00    +0.000 OA
ATOM     31  N   UNK A   0      -8.023   2.575 131.092  0.00  0.00    +0.000 N 
ATOM     32  H   UNK A   0      -7.295   1.969 131.439  0.00  0.00    +0.000 HD
BRANCH  31  33
ATOM     33  C   UNK A   0      -9.300   2.535 131.799  0.00  0.00    +0.000 C 
ATOM     34  C   UNK A   0      -9.652   1.077 131.850  0.00  0.00    +0.000 C 
ATOM     35  C   UNK A   0      -9.280   3.047 133.229  0.00  0.00    +0.000 C 
ENDBRANCH  31  33
ENDBRANCH  23  29
ENDBRANCH   8  23
TORSDOF 7
ENDMDL
MODEL 3
REMARK VINA RESULT:      -7.7      3.225      4.213
REMARK  Name = CHEMBL270013
REMARK  11 active torsions:
REMARK  status: ('A' for Active; 'I' for Inactive)
REMARK    1  A    between atoms: CD1_1  and  CG_2
REMARK    2  A    between atoms: CG_2  and  CD2_3
REMARK    3  A    between atoms: CG_2  and  CB_4
REMARK    4  A    between atoms: CB_4  and  CA_5
REMARK    5  A    between atoms: C_9  and  C_10
REMARK    6  A    between atoms: N_21  and  C_22
REMARK    7  A    between atoms: C_22  and  C_23
REMARK    8  A    between atoms: C_22  and  C_29
REMARK    9  A    between atoms: N_25  and  C_26
REMARK   10  A    between atoms: C_26  and  C_27
REMARK   11  A    between atoms: C_26  and  C_28
REMARK                            x       y       z     vdW  Elec       q    Type
REMARK                         _______ _______ _______ _____ _____    ______ ____
ROOT
ATOM      1  CA  LEU A   2      -5.418   3.032 126.440  0.00  0.00    +0.000 C 
ATOM      2  C   LEU A   2      -5.845   3.130 124.963  0.00  0.00    +0.000 C 
ATOM      3  O   LEU A   2      -5.317   3.712 124.050  0.00  0.00    +0.000 OA
ATOM      4  N   UNK A   1      -6.916   2.382 124.672  0.00  0.00    +0.000 N 
ATOM      5  C   UNK A   1      -7.604   1.582 125.637  0.00  0.00    +0.000 C 
ATOM      6  C   UNK A   1      -7.731   2.345 126.962  0.00  0.00    +0.000 C 
ATOM      7  O   UNK A   1      -8.733   2.123 127.629  0.00  0.00    +0.000 OA
ATOM      8  N   LEU A   2      -6.647   3.171 127.317  0.00  0.00    +0.000 N 
ATOM      9  H   UNK A   1      -7.158   2.443 123.693  0.00  0.00    +0.000 HD
ENDROOT
BRANCH   5  10
ATOM     10  C   UNK A   1      -9.036   1.264 125.154  0.00  0.00    +0.000 C 
ATOM     11  C   UNK A   1      -9.652   0.120 125.972  0.00  0.00    +0.000 C 
ATOM     12  C   UNK A   1      -9.254  -1.075 125.155  0.00  0.00    +0.000 A 
ATOM     13  C   UNK A   1      -9.084  -2.375 125.593  0.00  0.00    +0.000 A 
ATOM     14  C   UNK A   1      -8.554  -3.308 124.701  0.00  0.00    +0.000 A 
ATOM     15  C   UNK A   1      -8.189  -2.933 123.397  0.00  0.00    +0.000 A 
ATOM     16  C   UNK A   1      -8.345  -1.614 122.965  0.00  0.00    +0.000 A 
ATOM     17  C   UNK A   1      -8.887  -0.700 123.851  0.00  0.00    +0.000 A 
ATOM     18  C   UNK A   1      -9.031   0.781 123.671  0.00  0.00    +0.000 C 
ENDBRANCH   5  10
BRANCH   1  19
ATOM     19  CB  LEU A   2      -4.382   4.111 126.609  0.00  0.00    +0.000 C 
BRANCH  19  21
ATOM     20  CD1 LEU A   2      -1.996   3.234 126.585  0.00  0.00    +0.000 C 
ATOM     21  CG  LEU A   2      -3.097   3.885 127.393  0.00  0.00    +0.000 C 
ATOM     22  CD2 LEU A   2      -2.578   5.175 127.933  0.00  0.00    +0.000 C 
ENDBRANCH  19  21
ENDBRANCH   1  19
BRANCH   8  23
ATOM     23  C   UNK A   0      -6.694   4.116 128.532  0.00  0.00    +0.000 C 
BRANCH  23  24
ATOM     24  C   UNK A   0      -5.946   3.529 129.775  0.00  0.00    +0.000 A 
ATOM     25  C   UNK A   0      -5.087   4.204 130.642  0.00  0.00    +0.000 A 
ATOM     26  C   UNK A   0      -4.350   3.336 131.507  0.00  0.00    +0.000 A 
ATOM     27  C   UNK A   0      -4.776   2.037 131.413  0.00  0.00    +0.000 A 
ATOM     28  S   UNK A   0      -5.984   1.861 130.235  0.00  0.00    +0.000 S 
ENDBRANCH  23  24
BRANCH  23  29
ATOM     29  C   UNK A   0      -8.172   4.600 128.924  0.00  0.00    +0.000 C 
ATOM     30  O   UNK A   0      -8.827   5.418 128.277  0.00  0.00    +0.000 OA
ATOM     31  N   UNK A   0      -8.735   4.164 130.120  0.00  0.00    +0.000 N 
ATOM     32  H   UNK A   0      -8.432   3.320 130.585  0.00  0.00    +0.000 HD
BRANCH  31  33
ATOM     33  C   UNK A   0      -9.951   4.791 130.630  0.00  0.00    +0.000 C 
ATOM     34  C   UNK A   0     -10.998   3.722 130.515  0.00  0.00    +0.000 C 
ATOM     35  C   UNK A   0      -9.909   5.230 132.084  0.00  0.00    +0.000 C 
ENDBRANCH  31  33
ENDBRANCH  23  29
ENDBRANCH   8  23
TORSDOF 7
ENDMDL
MODEL 4
REMARK VINA RESULT:      -7.7      3.028      7.907
REMARK  Name = CHEMBL270013
REMARK  11 active torsions:
REMARK  status: ('A' for Active; 'I' for Inactive)
REMARK    1  A    between atoms: CD1_1  and  CG_2
REMARK    2  A    between atoms: CG_2  and  CD2_3
REMARK    3  A    between atoms: CG_2  and  CB_4
REMARK    4  A    between atoms: CB_4  and  CA_5
REMARK    5  A    between atoms: C_9  and  C_10
REMARK    6  A    between atoms: N_21  and  C_22
REMARK    7  A    between atoms: C_22  and  C_23
REMARK    8  A    between atoms: C_22  and  C_29
REMARK    9  A    between atoms: N_25  and  C_26
REMARK   10  A    between atoms: C_26  and  C_27
REMARK   11  A    between atoms: C_26  and  C_28
REMARK                            x       y       z     vdW  Elec       q    Type
REMARK                         _______ _______ _______ _____ _____    ______ ____
ROOT
ATOM      1  CA  LEU A   2      -7.075   4.160 131.030  0.00  0.00    +0.000 C 
ATOM      2  C   LEU A   2      -6.924   5.607 131.536  0.00  0.00    +0.000 C 
ATOM      3  O   LEU A   2      -7.633   6.237 132.278  0.00  0.00    +0.000 OA
ATOM      4  N   UNK A   1      -5.787   6.190 131.137  0.00  0.00    +0.000 N 
ATOM      5  C   UNK A   1      -4.816   5.541 130.313  0.00  0.00    +0.000 C 
ATOM      6  C   UNK A   1      -5.513   4.736 129.208  0.00  0.00    +0.000 C 
ATOM      7  O   UNK A   1      -4.923   4.649 128.139  0.00  0.00    +0.000 OA
ATOM      8  N   LEU A   2      -6.729   4.116 129.555  0.00  0.00    +0.000 N 
ATOM      9  H   UNK A   1      -5.701   7.128 131.505  0.00  0.00    +0.000 HD
ENDROOT
BRANCH   5  10
ATOM     10  C   UNK A   1      -3.912   6.582 129.619  0.00  0.00    +0.000 C 
ATOM     11  C   UNK A   1      -2.443   6.133 129.630  0.00  0.00    +0.000 C 
ATOM     12  C   UNK A   1      -1.954   6.754 130.906  0.00  0.00    +0.000 A 
ATOM     13  C   UNK A   1      -0.903   6.331 131.698  0.00  0.00    +0.000 A 
ATOM     14  C   UNK A   1      -0.713   6.957 132.931  0.00  0.00    +0.000 A 
ATOM     15  C   UNK A   1      -1.574   7.980 133.361  0.00  0.00    +0.000 A 
ATOM     16  C   UNK A   1      -2.646   8.391 132.566  0.00  0.00    +0.000 A 
ATOM     17  C   UNK A   1      -2.816   7.776 131.337  0.00  0.00    +0.000 A 
ATOM     18  C   UNK A   1      -3.951   7.947 130.374  0.00  0.00    +0.000 C 
ENDBRANCH   5  10
BRANCH   1  19
ATOM     19  CB  LEU A   2      -8.493   3.785 131.369  0.00  0.00    +0.000 C 
BRANCH  19  21
ATOM     20  CD1 LEU A   2      -9.296   3.492 133.763  0.00  0.00    +0.000 C 
ATOM     21  CG  LEU A   2      -8.828   2.815 132.494  0.00  0.00    +0.000 C 
ATOM     22  CD2 LEU A   2      -9.884   1.854 132.061  0.00  0.00    +0.000 C 
ENDBRANCH  19  21
ENDBRANCH   1  19
BRANCH   8  23
ATOM     23  C   UNK A   0      -7.619   3.410 128.516  0.00  0.00    +0.000 C 
BRANCH  23  24
ATOM     24  C   UNK A   0      -7.273   1.891 128.365  0.00  0.00    +0.000 A 
ATOM     25  C   UNK A   0      -8.127   0.866 127.961  0.00  0.00    +0.000 A 
ATOM     26  C   UNK A   0      -7.596  -0.443 128.190  0.00  0.00    +0.000 A 
ATOM     27  C   UNK A   0      -6.289  -0.401 128.599  0.00  0.00    +0.000 A 
ATOM     28  S   UNK A   0      -5.747   1.195 128.788  0.00  0.00    +0.000 S 
ENDBRANCH  23  24
BRANCH  23  29
ATOM     29  C   UNK A   0      -7.656   4.138 127.087  0.00  0.00    +0.000 C 
ATOM     30  O   UNK A   0      -8.405   5.073 126.805  0.00  0.00    +0.000 OA
ATOM     31  N   UNK A   0      -6.876   3.636 126.048  0.00  0.00    +0.000 N 
ATOM     32  H   UNK A   0      -6.054   3.073 126.212  0.00  0.00    +0.000 HD
BRANCH  31  33
ATOM     33  C   UNK A   0      -7.088   4.101 124.681  0.00  0.00    +0.000 C 
ATOM     34  C   UNK A   0      -5.704   4.231 124.114  0.00  0.00    +0.000 C 
ATOM     35  C   UNK A   0      -7.864   3.161 123.775  0.00  0.00    +0.000 C 
ENDBRANCH  31  33
ENDBRANCH  23  29
ENDBRANCH   8  23
TORSDOF 7
ENDMDL
MODEL 5
REMARK VINA RESULT:      -7.6      3.586      6.678
REMARK  Name = CHEMBL270013
REMARK  11 active torsions:
REMARK  status: ('A' for Active; 'I' for Inactive)
REMARK    1  A    between atoms: CD1_1  and  CG_2
REMARK    2  A    between atoms: CG_2  and  CD2_3
REMARK    3  A    between atoms: CG_2  and  CB_4
REMARK    4  A    between atoms: CB_4  and  CA_5
REMARK    5  A    between atoms: C_9  and  C_10
REMARK    6  A    between atoms: N_21  and  C_22
REMARK    7  A    between atoms: C_22  and  C_23
REMARK    8  A    between atoms: C_22  and  C_29
REMARK    9  A    between atoms: N_25  and  C_26
REMARK   10  A    between atoms: C_26  and  C_27
REMARK   11  A    between atoms: C_26  and  C_28
REMARK                            x       y       z     vdW  Elec       q    Type
REMARK                         _______ _______ _______ _____ _____    ______ ____
ROOT
ATOM      1  CA  LEU A   2      -5.379   2.673 127.658  0.00  0.00    +0.000 C 
ATOM      2  C   LEU A   2      -5.303   2.208 129.125  0.00  0.00    +0.000 C 
ATOM      3  O   LEU A   2      -4.338   1.934 129.792  0.00  0.00    +0.000 OA
ATOM      4  N   UNK A   1      -6.493   2.196 129.739  0.00  0.00    +0.000 N 
ATOM      5  C   UNK A   1      -7.715   2.564 129.094  0.00  0.00    +0.000 C 
ATOM      6  C   UNK A   1      -7.753   1.996 127.669  0.00  0.00    +0.000 C 
ATOM      7  O   UNK A   1      -8.854   1.684 127.234  0.00  0.00    +0.000 OA
ATOM      8  N   LEU A   2      -6.528   1.957 126.975  0.00  0.00    +0.000 N 
ATOM      9  H   UNK A   1      -6.410   1.913 130.705  0.00  0.00    +0.000 HD
ENDROOT
BRANCH   5  10
ATOM     10  C   UNK A   1      -8.924   1.977 129.852  0.00  0.00    +0.000 C 
ATOM     11  C   UNK A   1      -9.880   3.089 130.310  0.00  0.00    +0.000 C 
ATOM     12  C   UNK A   1      -9.342   3.397 131.678  0.00  0.00    +0.000 A 
ATOM     13  C   UNK A   1      -9.447   4.586 132.374  0.00  0.00    +0.000 A 
ATOM     14  C   UNK A   1      -8.735   4.717 133.568  0.00  0.00    +0.000 A 
ATOM     15  C   UNK A   1      -7.923   3.673 134.041  0.00  0.00    +0.000 A 
ATOM     16  C   UNK A   1      -7.804   2.481 133.324  0.00  0.00    +0.000 A 
ATOM     17  C   UNK A   1      -8.527   2.354 132.150  0.00  0.00    +0.000 A 
ATOM     18  C   UNK A   1      -8.466   1.240 131.149  0.00  0.00    +0.000 C 
ENDBRANCH   5  10
BRANCH   1  19
ATOM     19  CB  LEU A   2      -4.015   2.380 127.095  0.00  0.00    +0.000 C 
BRANCH  19  21
ATOM     20  CD1 LEU A   2      -3.084   4.692 127.599  0.00  0.00    +0.000 C 
ATOM     21  CG  LEU A   2      -3.054   3.487 126.684  0.00  0.00    +0.000 C 
ATOM     22  CD2 LEU A   2      -1.654   2.975 126.634  0.00  0.00    +0.000 C 
ENDBRANCH  19  21
ENDBRANCH   1  19
BRANCH   8  23
ATOM     23  C   UNK A   0      -6.379   1.273 125.604  0.00  0.00    +0.000 C 
BRANCH  23  24
ATOM     24  C   UNK A   0      -7.334   1.883 124.525  0.00  0.00    +0.000 A 
ATOM     25  C   UNK A   0      -8.535   1.348 124.059  0.00  0.00    +0.000 A 
ATOM     26  C   UNK A   0      -9.030   1.995 122.883  0.00  0.00    +0.000 A 
ATOM     27  C   UNK A   0      -8.304   3.114 122.569  0.00  0.00    +0.000 A 
ATOM     28  S   UNK A   0      -6.995   3.323 123.627  0.00  0.00    +0.000 S 
ENDBRANCH  23  24
BRANCH  23  29
ATOM     29  C   UNK A   0      -6.513  -0.325 125.655  0.00  0.00    +0.000 C 
ATOM     30  O   UNK A   0      -6.749  -0.968 126.678  0.00  0.00    +0.000 OA
ATOM     31  N   UNK A   0      -6.250  -1.066 124.506  0.00  0.00    +0.000 N 
ATOM     32  H   UNK A   0      -6.311  -0.668 123.580  0.00  0.00    +0.000 HD
BRANCH  31  33
ATOM     33  C   UNK A   0      -6.100  -2.515 124.586  0.00  0.00    +0.000 C 
ATOM     34  C   UNK A   0      -7.390  -3.054 124.041  0.00  0.00    +0.000 C 
ATOM     35  C   UNK A   0      -4.974  -3.111 123.759  0.00  0.00    +0.000 C 
ENDBRANCH  31  33
ENDBRANCH  23  29
ENDBRANCH   8  23
TORSDOF 7
ENDMDL
MODEL 6
REMARK VINA RESULT:      -7.6      3.698      7.571
REMARK  Name = CHEMBL270013
REMARK  11 active torsions:
REMARK  status: ('A' for Active; 'I' for Inactive)
REMARK    1  A    between atoms: CD1_1  and  CG_2
REMARK    2  A    between atoms: CG_2  and  CD2_3
REMARK    3  A    between atoms: CG_2  and  CB_4
REMARK    4  A    between atoms: CB_4  and  CA_5
REMARK    5  A    between atoms: C_9  and  C_10
REMARK    6  A    between atoms: N_21  and  C_22
REMARK    7  A    between atoms: C_22  and  C_23
REMARK    8  A    between atoms: C_22  and  C_29
REMARK    9  A    between atoms: N_25  and  C_26
REMARK   10  A    between atoms: C_26  and  C_27
REMARK   11  A    between atoms: C_26  and  C_28
REMARK                            x       y       z     vdW  Elec       q    Type
REMARK                         _______ _______ _______ _____ _____    ______ ____
ROOT
ATOM      1  CA  LEU A   2      -6.812   3.303 125.668  0.00  0.00    +0.000 C 
ATOM      2  C   LEU A   2      -5.997   4.029 126.756  0.00  0.00    +0.000 C 
ATOM      3  O   LEU A   2      -4.963   4.640 126.658  0.00  0.00    +0.000 OA
ATOM      4  N   UNK A   1      -6.595   4.028 127.953  0.00  0.00    +0.000 N 
ATOM      5  C   UNK A   1      -7.857   3.404 128.203  0.00  0.00    +0.000 C 
ATOM      6  C   UNK A   1      -7.931   2.053 127.478  0.00  0.00    +0.000 C 
ATOM      7  O   UNK A   1      -8.586   1.175 128.025  0.00  0.00    +0.000 OA
ATOM      8  N   LEU A   2      -7.300   1.979 126.222  0.00  0.00    +0.000 N 
ATOM      9  H   UNK A   1      -6.052   4.533 128.640  0.00  0.00    +0.000 HD
ENDROOT
BRANCH   5  10
ATOM     10  C   UNK A   1      -8.033   3.124 129.711  0.00  0.00    +0.000 C 
ATOM     11  C   UNK A   1      -9.514   2.920 130.064  0.00  0.00    +0.000 C 
ATOM     12  C   UNK A   1      -9.930   4.320 130.411  0.00  0.00    +0.000 A 
ATOM     13  C   UNK A   1     -11.199   4.862 130.335  0.00  0.00    +0.000 A 
ATOM     14  C   UNK A   1     -11.344   6.234 130.552  0.00  0.00    +0.000 A 
ATOM     15  C   UNK A   1     -10.229   7.043 130.824  0.00  0.00    +0.000 A 
ATOM     16  C   UNK A   1      -8.946   6.494 130.880  0.00  0.00    +0.000 A 
ATOM     17  C   UNK A   1      -8.814   5.130 130.682  0.00  0.00    +0.000 A 
ATOM     18  C   UNK A   1      -7.548   4.337 130.564  0.00  0.00    +0.000 C 
ENDBRANCH   5  10
BRANCH   1  19
ATOM     19  CB  LEU A   2      -5.875   3.202 124.495  0.00  0.00    +0.000 C 
BRANCH  19  21
ATOM     20  CD1 LEU A   2      -5.004   4.495 122.486  0.00  0.00    +0.000 C 
ATOM     21  CG  LEU A   2      -6.194   3.834 123.147  0.00  0.00    +0.000 C 
ATOM     22  CD2 LEU A   2      -6.743   2.814 122.206  0.00  0.00    +0.000 C 
ENDBRANCH  19  21
ENDBRANCH   1  19
BRANCH   8  23
ATOM     23  C   UNK A   0      -7.154   0.654 125.450  0.00  0.00    +0.000 C 
BRANCH  23  24
ATOM     24  C   UNK A   0      -8.344   0.403 124.465  0.00  0.00    +0.000 A 
ATOM     25  C   UNK A   0      -8.470  -0.633 123.539  0.00  0.00    +0.000 A 
ATOM     26  C   UNK A   0      -9.531  -0.434 122.600  0.00  0.00    +0.000 A 
ATOM     27  C   UNK A   0     -10.303   0.652 122.923  0.00  0.00    +0.000 A 
ATOM     28  S   UNK A   0      -9.699   1.463 124.284  0.00  0.00    +0.000 S 
ENDBRANCH  23  24
BRANCH  23  29
ATOM     29  C   UNK A   0      -6.903  -0.623 126.388  0.00  0.00    +0.000 C 
ATOM     30  O   UNK A   0      -5.792  -1.095 126.631  0.00  0.00    +0.000 OA
ATOM     31  N   UNK A   0      -7.996  -1.323 126.890  0.00  0.00    +0.000 N 
ATOM     32  H   UNK A   0      -8.909  -0.903 126.988  0.00  0.00    +0.000 HD
BRANCH  31  33
ATOM     33  C   UNK A   0      -7.807  -2.629 127.514  0.00  0.00    +0.000 C 
ATOM     34  C   UNK A   0      -7.889  -2.353 128.988  0.00  0.00    +0.000 C 
ATOM     35  C   UNK A   0      -8.858  -3.676 127.190  0.00  0.00    +0.000 C 
ENDBRANCH  31  33
ENDBRANCH  23  29
ENDBRANCH   8  23
TORSDOF 7
ENDMDL
MODEL 7
REMARK VINA RESULT:      -7.5      2.720      7.526
REMARK  Name = CHEMBL270013
REMARK  11 active torsions:
REMARK  status: ('A' for Active; 'I' for Inactive)
REMARK    1  A    between atoms: CD1_1  and  CG_2
REMARK    2  A    between atoms: CG_2  and  CD2_3
REMARK    3  A    between atoms: CG_2  and  CB_4
REMARK    4  A    between atoms: CB_4  and  CA_5
REMARK    5  A    between atoms: C_9  and  C_10
REMARK    6  A    between atoms: N_21  and  C_22
REMARK    7  A    between atoms: C_22  and  C_23
REMARK    8  A    between atoms: C_22  and  C_29
REMARK    9  A    between atoms: N_25  and  C_26
REMARK   10  A    between atoms: C_26  and  C_27
REMARK   11  A    between atoms: C_26  and  C_28
REMARK                            x       y       z     vdW  Elec       q    Type
REMARK                         _______ _______ _______ _____ _____    ______ ____
ROOT
ATOM      1  CA  LEU A   2      -8.031   2.790 128.789  0.00  0.00    +0.000 C 
ATOM      2  C   LEU A   2      -8.129   4.195 128.166  0.00  0.00    +0.000 C 
ATOM      3  O   LEU A   2      -7.807   4.570 127.068  0.00  0.00    +0.000 OA
ATOM      4  N   UNK A   1      -8.737   5.085 128.961  0.00  0.00    +0.000 N 
ATOM      5  C   UNK A   1      -9.236   4.766 130.262  0.00  0.00    +0.000 C 
ATOM      6  C   UNK A   1      -8.241   3.862 131.003  0.00  0.00    +0.000 C 
ATOM      7  O   UNK A   1      -8.181   3.994 132.218  0.00  0.00    +0.000 OA
ATOM      8  N   LEU A   2      -7.548   2.918 130.220  0.00  0.00    +0.000 N 
ATOM      9  H   UNK A   1      -8.811   5.990 128.517  0.00  0.00    +0.000 HD
ENDROOT
BRANCH   5  10
ATOM     10  C   UNK A   1      -9.402   6.049 131.106  0.00  0.00    +0.000 C 
ATOM     11  C   UNK A   1     -10.854   6.210 131.582  0.00  0.00    +0.000 C 
ATOM     12  C   UNK A   1     -11.441   7.027 130.467  0.00  0.00    +0.000 A 
ATOM     13  C   UNK A   1     -12.764   7.082 130.072  0.00  0.00    +0.000 A 
ATOM     14  C   UNK A   1     -13.076   7.784 128.906  0.00  0.00    +0.000 A 
ATOM     15  C   UNK A   1     -12.070   8.404 128.147  0.00  0.00    +0.000 A 
ATOM     16  C   UNK A   1     -10.732   8.330 128.540  0.00  0.00    +0.000 A 
ATOM     17  C   UNK A   1     -10.434   7.646 129.706  0.00  0.00    +0.000 A 
ATOM     18  C   UNK A   1      -9.081   7.319 130.260  0.00  0.00    +0.000 C 
ENDBRANCH   5  10
BRANCH   1  19
ATOM     19  CB  LEU A   2      -7.118   2.028 127.868  0.00  0.00    +0.000 C 
BRANCH  19  21
ATOM     20  CD1 LEU A   2      -7.655  -0.457 127.877  0.00  0.00    +0.000 C 
ATOM     21  CG  LEU A   2      -7.593   0.821 127.070  0.00  0.00    +0.000 C 
ATOM     22  CD2 LEU A   2      -8.945   1.074 126.492  0.00  0.00    +0.000 C 
ENDBRANCH  19  21
ENDBRANCH   1  19
BRANCH   8  23
ATOM     23  C   UNK A   0      -6.408   2.053 130.790  0.00  0.00    +0.000 C 
BRANCH  23  24
ATOM     24  C   UNK A   0      -6.908   0.651 131.274  0.00  0.00    +0.000 A 
ATOM     25  C   UNK A   0      -8.170   0.331 131.775  0.00  0.00    +0.000 A 
ATOM     26  C   UNK A   0      -8.230  -0.960 132.388  0.00  0.00    +0.000 A 
ATOM     27  C   UNK A   0      -7.075  -1.673 132.195  0.00  0.00    +0.000 A 
ATOM     28  S   UNK A   0      -5.911  -0.760 131.366  0.00  0.00    +0.000 S 
ENDBRANCH  23  24
BRANCH  23  29
ATOM     29  C   UNK A   0      -5.543   2.781 131.927  0.00  0.00    +0.000 C 
ATOM     30  O   UNK A   0      -5.443   2.378 133.086  0.00  0.00    +0.000 OA
ATOM     31  N   UNK A   0      -4.937   4.002 131.643  0.00  0.00    +0.000 N 
ATOM     32  H   UNK A   0      -4.723   4.294 130.700  0.00  0.00    +0.000 HD
BRANCH  31  33
ATOM     33  C   UNK A   0      -4.377   4.812 132.721  0.00  0.00    +0.000 C 
ATOM     34  C   UNK A   0      -3.087   5.337 132.160  0.00  0.00    +0.000 C 
ATOM     35  C   UNK A   0      -5.207   6.009 133.149  0.00  0.00    +0.000 C 
ENDBRANCH  31  33
ENDBRANCH  23  29
ENDBRANCH   8  23
TORSDOF 7
ENDMDL
MODEL 8
REMARK VINA RESULT:      -7.4      2.900      5.822
REMARK  Name = CHEMBL270013
REMARK  11 active torsions:
REMARK  status: ('A' for Active; 'I' for Inactive)
REMARK    1  A    between atoms: CD1_1  and  CG_2
REMARK    2  A    between atoms: CG_2  and  CD2_3
REMARK    3  A    between atoms: CG_2  and  CB_4
REMARK    4  A    between atoms: CB_4  and  CA_5
REMARK    5  A    between atoms: C_9  and  C_10
REMARK    6  A    between atoms: N_21  and  C_22
REMARK    7  A    between atoms: C_22  and  C_23
REMARK    8  A    between atoms: C_22  and  C_29
REMARK    9  A    between atoms: N_25  and  C_26
REMARK   10  A    between atoms: C_26  and  C_27
REMARK   11  A    between atoms: C_26  and  C_28
REMARK                            x       y       z     vdW  Elec       q    Type
REMARK                         _______ _______ _______ _____ _____    ______ ____
ROOT
ATOM      1  CA  LEU A   2      -7.584   2.158 130.257  0.00  0.00    +0.000 C 
ATOM      2  C   LEU A   2      -6.631   1.048 129.773  0.00  0.00    +0.000 C 
ATOM      3  O   LEU A   2      -6.225   0.078 130.360  0.00  0.00    +0.000 OA
ATOM      4  N   UNK A   1      -6.291   1.168 128.484  0.00  0.00    +0.000 N 
ATOM      5  C   UNK A   1      -6.754   2.228 127.643  0.00  0.00    +0.000 C 
ATOM      6  C   UNK A   1      -6.736   3.558 128.409  0.00  0.00    +0.000 C 
ATOM      7  O   UNK A   1      -6.502   4.565 127.753  0.00  0.00    +0.000 OA
ATOM      8  N   LEU A   2      -7.061   3.498 129.778  0.00  0.00    +0.000 N 
ATOM      9  H   UNK A   1      -5.688   0.414 128.187  0.00  0.00    +0.000 HD
ENDROOT
BRANCH   5  10
ATOM     10  C   UNK A   1      -5.825   2.393 126.421  0.00  0.00    +0.000 C 
ATOM     11  C   UNK A   1      -6.628   2.364 125.111  0.00  0.00    +0.000 C 
ATOM     12  C   UNK A   1      -6.590   0.901 124.775  0.00  0.00    +0.000 A 
ATOM     13  C   UNK A   1      -7.503   0.189 124.020  0.00  0.00    +0.000 A 
ATOM     14  C   UNK A   1      -7.370  -1.199 123.960  0.00  0.00    +0.000 A 
ATOM     15  C   UNK A   1      -6.344  -1.856 124.660  0.00  0.00    +0.000 A 
ATOM     16  C   UNK A   1      -5.436  -1.134 125.437  0.00  0.00    +0.000 A 
ATOM     17  C   UNK A   1      -5.566   0.244 125.477  0.00  0.00    +0.000 A 
ATOM     18  C   UNK A   1      -4.807   1.214 126.330  0.00  0.00    +0.000 C 
ENDBRANCH   5  10
BRANCH   1  19
ATOM     19  CB  LEU A   2      -7.640   1.986 131.751  0.00  0.00    +0.000 C 
BRANCH  19  21
ATOM     20  CD1 LEU A   2      -8.970   3.122 133.595  0.00  0.00    +0.000 C 
ATOM     21  CG  LEU A   2      -8.949   2.052 132.526  0.00  0.00    +0.000 C 
ATOM     22  CD2 LEU A   2     -10.094   2.294 131.601  0.00  0.00    +0.000 C 
ENDBRANCH  19  21
ENDBRANCH   1  19
BRANCH   8  23
ATOM     23  C   UNK A   0      -6.933   4.717 130.710  0.00  0.00    +0.000 C 
BRANCH  23  24
ATOM     24  C   UNK A   0      -8.273   5.517 130.834  0.00  0.00    +0.000 A 
ATOM     25  C   UNK A   0      -8.776   6.151 131.969  0.00  0.00    +0.000 A 
ATOM     26  C   UNK A   0     -10.142   6.556 131.840  0.00  0.00    +0.000 A 
ATOM     27  C   UNK A   0     -10.607   6.384 130.562  0.00  0.00    +0.000 A 
ATOM     28  S   UNK A   0      -9.439   5.666 129.565  0.00  0.00    +0.000 S 
ENDBRANCH  23  24
BRANCH  23  29
ATOM     29  C   UNK A   0      -5.712   5.691 130.345  0.00  0.00    +0.000 C 
ATOM     30  O   UNK A   0      -5.826   6.901 130.146  0.00  0.00    +0.000 OA
ATOM     31  N   UNK A   0      -4.448   5.146 130.133  0.00  0.00    +0.000 N 
ATOM     32  H   UNK A   0      -4.174   4.252 130.513  0.00  0.00    +0.000 HD
BRANCH  31  33
ATOM     33  C   UNK A   0      -3.389   5.959 129.543  0.00  0.00    +0.000 C 
ATOM     34  C   UNK A   0      -2.348   6.054 130.620  0.00  0.00    +0.000 C 
ATOM     35  C   UNK A   0      -2.716   5.376 128.312  0.00  0.00    +0.000 C 
ENDBRANCH  31  33
ENDBRANCH  23  29
ENDBRANCH   8  23
TORSDOF 7
ENDMDL
MODEL 9
REMARK VINA RESULT:      -7.3      2.781      7.642
REMARK  Name = CHEMBL270013
REMARK  11 active torsions:
REMARK  status: ('A' for Active; 'I' for Inactive)
REMARK    1  A    between atoms: CD1_1  and  CG_2
REMARK    2  A    between atoms: CG_2  and  CD2_3
REMARK    3  A    between atoms: CG_2  and  CB_4
REMARK    4  A    between atoms: CB_4  and  CA_5
REMARK    5  A    between atoms: C_9  and  C_10
REMARK    6  A    between atoms: N_21  and  C_22
REMARK    7  A    between atoms: C_22  and  C_23
REMARK    8  A    between atoms: C_22  and  C_29
REMARK    9  A    between atoms: N_25  and  C_26
REMARK   10  A    between atoms: C_26  and  C_27
REMARK   11  A    between atoms: C_26  and  C_28
REMARK                            x       y       z     vdW  Elec       q    Type
REMARK                         _______ _______ _______ _____ _____    ______ ____
ROOT
ATOM      1  CA  LEU A   2      -8.544   2.446 129.813  0.00  0.00    +0.000 C 
ATOM      2  C   LEU A   2      -8.206   3.759 129.081  0.00  0.00    +0.000 C 
ATOM      3  O   LEU A   2      -7.528   3.936 128.101  0.00  0.00    +0.000 OA
ATOM      4  N   UNK A   1      -8.838   4.825 129.586  0.00  0.00    +0.000 N 
ATOM      5  C   UNK A   1      -9.729   4.756 130.703  0.00  0.00    +0.000 C 
ATOM      6  C   UNK A   1      -9.162   3.813 131.773  0.00  0.00    +0.000 C 
ATOM      7  O   UNK A   1      -9.420   4.090 132.938  0.00  0.00    +0.000 OA
ATOM      8  N   LEU A   2      -8.462   2.683 131.309  0.00  0.00    +0.000 N 
ATOM      9  H   UNK A   1      -8.619   5.666 129.071  0.00  0.00    +0.000 HD
ENDROOT
BRANCH   5  10
ATOM     10  C   UNK A   1      -9.887   6.146 131.356  0.00  0.00    +0.000 C 
ATOM     11  C   UNK A   1     -11.369   6.498 131.549  0.00  0.00    +0.000 C 
ATOM     12  C   UNK A   1     -11.672   7.214 130.265  0.00  0.00    +0.000 A 
ATOM     13  C   UNK A   1     -12.899   7.337 129.641  0.00  0.00    +0.000 A 
ATOM     14  C   UNK A   1     -12.937   7.908 128.367  0.00  0.00    +0.000 A 
ATOM     15  C   UNK A   1     -11.759   8.332 127.731  0.00  0.00    +0.000 A 
ATOM     16  C   UNK A   1     -10.519   8.187 128.357  0.00  0.00    +0.000 A 
ATOM     17  C   UNK A   1     -10.493   7.636 129.628  0.00  0.00    +0.000 A 
ATOM     18  C   UNK A   1      -9.293   7.262 130.442  0.00  0.00    +0.000 C 
ENDBRANCH   5  10
BRANCH   1  19
ATOM     19  CB  LEU A   2      -7.565   1.443 129.267  0.00  0.00    +0.000 C 
BRANCH  19  21
ATOM     20  CD1 LEU A   2      -7.519   0.564 126.882  0.00  0.00    +0.000 C 
ATOM     21  CG  LEU A   2      -7.986   0.342 128.303  0.00  0.00    +0.000 C 
ATOM     22  CD2 LEU A   2      -7.471  -0.981 128.762  0.00  0.00    +0.000 C 
ENDBRANCH  19  21
ENDBRANCH   1  19
BRANCH   8  23
ATOM     23  C   UNK A   0      -7.704   1.735 132.256  0.00  0.00    +0.000 C 
BRANCH  23  24
ATOM     24  C   UNK A   0      -6.153   1.816 132.067  0.00  0.00    +0.000 A 
ATOM     25  C   UNK A   0      -5.236   0.769 132.146  0.00  0.00    +0.000 A 
ATOM     26  C   UNK A   0      -3.875   1.204 132.202  0.00  0.00    +0.000 A 
ATOM     27  C   UNK A   0      -3.760   2.554 131.993  0.00  0.00    +0.000 A 
ATOM     28  S   UNK A   0      -5.278   3.288 131.821  0.00  0.00    +0.000 S 
ENDBRANCH  23  24
BRANCH  23  29
ATOM     29  C   UNK A   0      -8.213   0.215 132.201  0.00  0.00    +0.000 C 
ATOM     30  O   UNK A   0      -9.350  -0.124 131.869  0.00  0.00    +0.000 OA
ATOM     31  N   UNK A   0      -7.372  -0.800 132.648  0.00  0.00    +0.000 N 
ATOM     32  H   UNK A   0      -6.368  -0.694 132.686  0.00  0.00    +0.000 HD
BRANCH  31  33
ATOM     33  C   UNK A   0      -7.895  -2.146 132.863  0.00  0.00    +0.000 C 
ATOM     34  C   UNK A   0      -7.154  -2.996 131.872  0.00  0.00    +0.000 C 
ATOM     35  C   UNK A   0      -7.653  -2.739 134.240  0.00  0.00    +0.000 C 
ENDBRANCH  31  33
ENDBRANCH  23  29
ENDBRANCH   8  23
TORSDOF 7
ENDMDL
