MODEL 1
REMARK VINA RESULT:      -8.0      0.000      0.000
REMARK  Name = CHEMBL1094050
REMARK  8 active torsions:
REMARK  status: ('A' for Active; 'I' for Inactive)
REMARK    1  A    between atoms: C_1  and  C_2
REMARK    2  A    between atoms: C_2  and  N_3
REMARK    3  A    between atoms: N_3  and  C_19
REMARK    4  A    between atoms: C_8  and  O_9
REMARK    5  A    between atoms: O_9  and  C_10
REMARK    6  A    between atoms: C_16  and  C_17
REMARK    7  A    between atoms: C_22  and  O_23
REMARK    8  A    between atoms: O_23  and  C_24
REMARK                            x       y       z     vdW  Elec       q    Type
REMARK                         _______ _______ _______ _____ _____    ______ ____
ROOT
ATOM      1  N   UNL     1      -6.270   3.664 126.081  0.00  0.00    +0.000 N 
ATOM      2  C   UNL     1      -7.466   4.145 126.736  0.00  0.00    +0.000 C 
ATOM      3  O   UNL     1      -8.436   4.558 126.077  0.00  0.00    +0.000 OA
ATOM      4  N   UNL     1      -7.594   3.971 128.128  0.00  0.00    +0.000 N 
ATOM      5  C   UNL     1      -8.773   3.972 129.012  0.00  0.00    +0.000 C 
ATOM      6  C   UNL     1      -8.063   5.012 129.941  0.00  0.00    +0.000 C 
ATOM      7  C   UNL     1      -6.824   4.574 129.212  0.00  0.00    +0.000 C 
ENDROOT
BRANCH   1   8
ATOM      8  C   UNL     1      -6.199   3.627 124.608  0.00  0.00    +0.000 A 
ATOM      9  C   UNL     1      -6.812   2.596 123.873  0.00  0.00    +0.000 A 
ATOM     10  C   UNL     1      -6.736   2.531 122.474  0.00  0.00    +0.000 A 
ATOM     11  C   UNL     1      -6.011   3.490 121.799  0.00  0.00    +0.000 A 
ATOM     12  N   UNL     1      -5.362   4.474 122.464  0.00  0.00    +0.000 NA
ATOM     13  C   UNL     1      -5.483   4.533 123.833  0.00  0.00    +0.000 A 
BRANCH  11  14
ATOM     14  O   UNL     1      -5.882   3.548 120.435  0.00  0.00    +0.000 OA
ATOM     15  C   UNL     1      -5.642   4.829 119.858  0.00  0.00    +0.000 C 
ENDBRANCH  11  14
ENDBRANCH   1   8
BRANCH   1  17
ATOM     16  C   UNL     1      -3.958   3.895 127.108  0.00  0.00    +0.000 C 
ATOM     17  C   UNL     1      -5.065   3.007 126.676  0.00  0.00    +0.000 C 
ENDBRANCH   1  17
BRANCH   6  18
ATOM     18  O   UNL     1      -8.393   6.425 129.876  0.00  0.00    +0.000 OA
BRANCH  18  19
ATOM     19  C   UNL     1      -9.638   6.853 130.330  0.00  0.00    +0.000 A 
ATOM     20  C   UNL     1     -10.041   6.316 131.564  0.00  0.00    +0.000 A 
ATOM     21  C   UNL     1     -11.361   6.472 132.016  0.00  0.00    +0.000 A 
ATOM     22  C   UNL     1     -12.285   7.139 131.231  0.00  0.00    +0.000 A 
ATOM     23  F   UNL     1     -13.563   7.241 131.616  0.00  0.00    +0.000 F 
ATOM     24  C   UNL     1     -11.904   7.705 130.035  0.00  0.00    +0.000 A 
ATOM     25  C   UNL     1     -10.581   7.592 129.580  0.00  0.00    +0.000 A 
ATOM     26  C   UNL     1     -10.340   8.302 128.295  0.00  0.00    +0.000 C 
ENDBRANCH  18  19
ENDBRANCH   6  18
TORSDOF 5
ENDMDL
MODEL 2
REMARK VINA RESULT:      -7.5      5.807      8.929
REMARK  Name = CHEMBL1094050
REMARK  8 active torsions:
REMARK  status: ('A' for Active; 'I' for Inactive)
REMARK    1  A    between atoms: C_1  and  C_2
REMARK    2  A    between atoms: C_2  and  N_3
REMARK    3  A    between atoms: N_3  and  C_19
REMARK    4  A    between atoms: C_8  and  O_9
REMARK    5  A    between atoms: O_9  and  C_10
REMARK    6  A    between atoms: C_16  and  C_17
REMARK    7  A    between atoms: C_22  and  O_23
REMARK    8  A    between atoms: O_23  and  C_24
REMARK                            x       y       z     vdW  Elec       q    Type
REMARK                         _______ _______ _______ _____ _____    ______ ____
ROOT
ATOM      1  N   UNL     1      -9.600   4.757 130.955  0.00  0.00    +0.000 N 
ATOM      2  C   UNL     1      -8.919   3.726 130.205  0.00  0.00    +0.000 C 
ATOM      3  O   UNL     1      -8.993   3.678 128.966  0.00  0.00    +0.000 OA
ATOM      4  N   UNL     1      -8.018   2.878 130.881  0.00  0.00    +0.000 N 
ATOM      5  C   UNL     1      -6.914   2.034 130.395  0.00  0.00    +0.000 C 
ATOM      6  C   UNL     1      -7.510   0.819 131.179  0.00  0.00    +0.000 C 
ATOM      7  C   UNL     1      -8.282   1.879 131.912  0.00  0.00    +0.000 C 
ENDROOT
BRANCH   1   8
ATOM      8  C   UNL     1     -10.373   5.795 130.246  0.00  0.00    +0.000 A 
ATOM      9  C   UNL     1      -9.767   6.991 129.816  0.00  0.00    +0.000 A 
ATOM     10  C   UNL     1     -10.489   7.998 129.161  0.00  0.00    +0.000 A 
ATOM     11  C   UNL     1     -11.843   7.829 128.962  0.00  0.00    +0.000 A 
ATOM     12  N   UNL     1     -12.481   6.719 129.401  0.00  0.00    +0.000 NA
ATOM     13  C   UNL     1     -11.741   5.732 130.009  0.00  0.00    +0.000 A 
BRANCH  11  14
ATOM     14  O   UNL     1     -12.651   8.729 128.316  0.00  0.00    +0.000 OA
ATOM     15  C   UNL     1     -13.173   9.806 129.091  0.00  0.00    +0.000 C 
ENDBRANCH  11  14
ENDBRANCH   1   8
BRANCH   1  17
ATOM     16  C   UNL     1      -8.371   5.872 132.878  0.00  0.00    +0.000 C 
ATOM     17  C   UNL     1      -9.529   5.069 132.416  0.00  0.00    +0.000 C 
ENDBRANCH   1  17
BRANCH   6  18
ATOM     18  O   UNL     1      -8.289  -0.203 130.502  0.00  0.00    +0.000 OA
BRANCH  18  19
ATOM     19  C   UNL     1      -7.832  -1.518 130.507  0.00  0.00    +0.000 A 
ATOM     20  C   UNL     1      -7.455  -2.016 131.765  0.00  0.00    +0.000 A 
ATOM     21  C   UNL     1      -6.759  -3.229 131.877  0.00  0.00    +0.000 A 
ATOM     22  C   UNL     1      -6.414  -3.935 130.736  0.00  0.00    +0.000 A 
ATOM     23  F   UNL     1      -5.695  -5.060 130.819  0.00  0.00    +0.000 F 
ATOM     24  C   UNL     1      -6.805  -3.486 129.495  0.00  0.00    +0.000 A 
ATOM     25  C   UNL     1      -7.533  -2.294 129.362  0.00  0.00    +0.000 A 
ATOM     26  C   UNL     1      -7.909  -1.989 127.955  0.00  0.00    +0.000 C 
ENDBRANCH  18  19
ENDBRANCH   6  18
TORSDOF 5
ENDMDL
MODEL 3
REMARK VINA RESULT:      -7.2      6.202      8.517
REMARK  Name = CHEMBL1094050
REMARK  8 active torsions:
REMARK  status: ('A' for Active; 'I' for Inactive)
REMARK    1  A    between atoms: C_1  and  C_2
REMARK    2  A    between atoms: C_2  and  N_3
REMARK    3  A    between atoms: N_3  and  C_19
REMARK    4  A    between atoms: C_8  and  O_9
REMARK    5  A    between atoms: O_9  and  C_10
REMARK    6  A    between atoms: C_16  and  C_17
REMARK    7  A    between atoms: C_22  and  O_23
REMARK    8  A    between atoms: O_23  and  C_24
REMARK                            x       y       z     vdW  Elec       q    Type
REMARK                         _______ _______ _______ _____ _____    ______ ____
ROOT
ATOM      1  N   UNL     1      -9.510   5.515 130.987  0.00  0.00    +0.000 N 
ATOM      2  C   UNL     1      -8.215   6.080 131.293  0.00  0.00    +0.000 C 
ATOM      3  O   UNL     1      -7.942   7.256 130.997  0.00  0.00    +0.000 OA
ATOM      4  N   UNL     1      -7.323   5.339 132.094  0.00  0.00    +0.000 N 
ATOM      5  C   UNL     1      -6.153   5.746 132.892  0.00  0.00    +0.000 C 
ATOM      6  C   UNL     1      -5.303   4.633 132.193  0.00  0.00    +0.000 C 
ATOM      7  C   UNL     1      -6.645   4.079 131.805  0.00  0.00    +0.000 C 
ENDROOT
BRANCH   1   8
ATOM      8  C   UNL     1     -10.545   6.347 130.344  0.00  0.00    +0.000 A 
ATOM      9  C   UNL     1     -11.667   6.802 131.061  0.00  0.00    +0.000 A 
ATOM     10  C   UNL     1     -12.672   7.574 130.462  0.00  0.00    +0.000 A 
ATOM     11  C   UNL     1     -12.575   7.871 129.119  0.00  0.00    +0.000 A 
ATOM     12  N   UNL     1     -11.541   7.416 128.374  0.00  0.00    +0.000 NA
ATOM     13  C   UNL     1     -10.552   6.690 128.996  0.00  0.00    +0.000 A 
BRANCH  11  14
ATOM     14  O   UNL     1     -13.479   8.635 128.426  0.00  0.00    +0.000 OA
ATOM     15  C   UNL     1     -13.578  10.011 128.784  0.00  0.00    +0.000 C 
ENDBRANCH  11  14
ENDBRANCH   1   8
BRANCH   1  17
ATOM     16  C   UNL     1     -10.037   3.113 130.352  0.00  0.00    +0.000 C 
ATOM     17  C   UNL     1     -10.078   4.187 131.374  0.00  0.00    +0.000 C 
ENDBRANCH   1  17
BRANCH   6  18
ATOM     18  O   UNL     1      -4.391   4.954 131.110  0.00  0.00    +0.000 OA
BRANCH  18  19
ATOM     19  C   UNL     1      -3.168   5.548 131.406  0.00  0.00    +0.000 A 
ATOM     20  C   UNL     1      -2.212   4.695 131.982  0.00  0.00    +0.000 A 
ATOM     21  C   UNL     1      -1.035   5.213 132.545  0.00  0.00    +0.000 A 
ATOM     22  C   UNL     1      -0.821   6.580 132.560  0.00  0.00    +0.000 A 
ATOM     23  F   UNL     1       0.264   7.097 133.150  0.00  0.00    +0.000 F 
ATOM     24  C   UNL     1      -1.726   7.434 131.969  0.00  0.00    +0.000 A 
ATOM     25  C   UNL     1      -2.892   6.935 131.368  0.00  0.00    +0.000 A 
ATOM     26  C   UNL     1      -3.729   7.994 130.741  0.00  0.00    +0.000 C 
ENDBRANCH  18  19
ENDBRANCH   6  18
TORSDOF 5
ENDMDL
MODEL 4
REMARK VINA RESULT:      -7.1      5.549      6.840
REMARK  Name = CHEMBL1094050
REMARK  8 active torsions:
REMARK  status: ('A' for Active; 'I' for Inactive)
REMARK    1  A    between atoms: C_1  and  C_2
REMARK    2  A    between atoms: C_2  and  N_3
REMARK    3  A    between atoms: N_3  and  C_19
REMARK    4  A    between atoms: C_8  and  O_9
REMARK    5  A    between atoms: O_9  and  C_10
REMARK    6  A    between atoms: C_16  and  C_17
REMARK    7  A    between atoms: C_22  and  O_23
REMARK    8  A    between atoms: O_23  and  C_24
REMARK                            x       y       z     vdW  Elec       q    Type
REMARK                         _______ _______ _______ _____ _____    ______ ____
ROOT
ATOM      1  N   UNL     1      -6.471   2.345 125.004  0.00  0.00    +0.000 N 
ATOM      2  C   UNL     1      -5.416   2.119 125.966  0.00  0.00    +0.000 C 
ATOM      3  O   UNL     1      -5.227   0.993 126.457  0.00  0.00    +0.000 OA
ATOM      4  N   UNL     1      -4.486   3.149 126.208  0.00  0.00    +0.000 N 
ATOM      5  C   UNL     1      -3.130   3.129 126.783  0.00  0.00    +0.000 C 
ATOM      6  C   UNL     1      -3.546   4.265 127.776  0.00  0.00    +0.000 C 
ATOM      7  C   UNL     1      -4.690   4.457 126.821  0.00  0.00    +0.000 C 
ENDROOT
BRANCH   1   8
ATOM      8  C   UNL     1      -7.323   1.224 124.564  0.00  0.00    +0.000 A 
ATOM      9  C   UNL     1      -6.858   0.275 123.635  0.00  0.00    +0.000 A 
ATOM     10  C   UNL     1      -7.659  -0.785 123.188  0.00  0.00    +0.000 A 
ATOM     11  C   UNL     1      -8.956  -0.883 123.648  0.00  0.00    +0.000 A 
ATOM     12  N   UNL     1      -9.465   0.032 124.504  0.00  0.00    +0.000 NA
ATOM     13  C   UNL     1      -8.645   1.041 124.953  0.00  0.00    +0.000 A 
BRANCH  11  14
ATOM     14  O   UNL     1      -9.828  -1.884 123.303  0.00  0.00    +0.000 OA
ATOM     15  C   UNL     1      -9.416  -3.223 123.563  0.00  0.00    +0.000 C 
ENDBRANCH  11  14
ENDBRANCH   1   8
BRANCH   1  17
ATOM     16  C   UNL     1      -5.965   3.798 122.982  0.00  0.00    +0.000 C 
ATOM     17  C   UNL     1      -6.775   3.572 124.204  0.00  0.00    +0.000 C 
ENDBRANCH   1  17
BRANCH   6  18
ATOM     18  O   UNL     1      -3.889   3.968 129.155  0.00  0.00    +0.000 OA
BRANCH  18  19
ATOM     19  C   UNL     1      -3.212   4.622 130.180  0.00  0.00    +0.000 A 
ATOM     20  C   UNL     1      -2.532   5.790 129.797  0.00  0.00    +0.000 A 
ATOM     21  C   UNL     1      -1.621   6.408 130.668  0.00  0.00    +0.000 A 
ATOM     22  C   UNL     1      -1.366   5.850 131.909  0.00  0.00    +0.000 A 
ATOM     23  F   UNL     1      -0.454   6.389 132.727  0.00  0.00    +0.000 F 
ATOM     24  C   UNL     1      -2.047   4.727 132.321  0.00  0.00    +0.000 A 
ATOM     25  C   UNL     1      -2.989   4.113 131.480  0.00  0.00    +0.000 A 
ATOM     26  C   UNL     1      -3.658   2.941 132.107  0.00  0.00    +0.000 C 
ENDBRANCH  18  19
ENDBRANCH   6  18
TORSDOF 5
ENDMDL
MODEL 5
REMARK VINA RESULT:      -7.0      2.804      3.752
REMARK  Name = CHEMBL1094050
REMARK  8 active torsions:
REMARK  status: ('A' for Active; 'I' for Inactive)
REMARK    1  A    between atoms: C_1  and  C_2
REMARK    2  A    between atoms: C_2  and  N_3
REMARK    3  A    between atoms: N_3  and  C_19
REMARK    4  A    between atoms: C_8  and  O_9
REMARK    5  A    between atoms: O_9  and  C_10
REMARK    6  A    between atoms: C_16  and  C_17
REMARK    7  A    between atoms: C_22  and  O_23
REMARK    8  A    between atoms: O_23  and  C_24
REMARK                            x       y       z     vdW  Elec       q    Type
REMARK                         _______ _______ _______ _____ _____    ______ ____
ROOT
ATOM      1  N   UNL     1      -7.217   2.898 126.933  0.00  0.00    +0.000 N 
ATOM      2  C   UNL     1      -8.225   2.877 127.969  0.00  0.00    +0.000 C 
ATOM      3  O   UNL     1      -8.899   1.855 128.186  0.00  0.00    +0.000 OA
ATOM      4  N   UNL     1      -8.313   3.970 128.854  0.00  0.00    +0.000 N 
ATOM      5  C   UNL     1      -8.912   4.100 130.193  0.00  0.00    +0.000 C 
ATOM      6  C   UNL     1      -9.695   5.366 129.709  0.00  0.00    +0.000 C 
ATOM      7  C   UNL     1      -8.697   5.352 128.585  0.00  0.00    +0.000 C 
ENDROOT
BRANCH   1   8
ATOM      8  C   UNL     1      -6.951   1.686 126.136  0.00  0.00    +0.000 A 
ATOM      9  C   UNL     1      -5.887   0.822 126.454  0.00  0.00    +0.000 A 
ATOM     10  C   UNL     1      -5.604  -0.323 125.696  0.00  0.00    +0.000 A 
ATOM     11  C   UNL     1      -6.372  -0.594 124.583  0.00  0.00    +0.000 A 
ATOM     12  N   UNL     1      -7.376   0.233 124.207  0.00  0.00    +0.000 NA
ATOM     13  C   UNL     1      -7.653   1.329 124.990  0.00  0.00    +0.000 A 
BRANCH  11  14
ATOM     14  O   UNL     1      -6.210  -1.691 123.776  0.00  0.00    +0.000 OA
ATOM     15  C   UNL     1      -6.318  -2.972 124.391  0.00  0.00    +0.000 C 
ENDBRANCH  11  14
ENDBRANCH   1   8
BRANCH   1  17
ATOM     16  C   UNL     1      -6.540   4.863 125.472  0.00  0.00    +0.000 C 
ATOM     17  C   UNL     1      -6.219   3.964 126.607  0.00  0.00    +0.000 C 
ENDBRANCH   1  17
BRANCH   6  18
ATOM     18  O   UNL     1     -11.097   5.285 129.338  0.00  0.00    +0.000 OA
BRANCH  18  19
ATOM     19  C   UNL     1     -11.865   6.446 129.335  0.00  0.00    +0.000 A 
ATOM     20  C   UNL     1     -12.138   6.979 128.065  0.00  0.00    +0.000 A 
ATOM     21  C   UNL     1     -12.691   8.262 127.930  0.00  0.00    +0.000 A 
ATOM     22  C   UNL     1     -12.947   9.025 129.056  0.00  0.00    +0.000 A 
ATOM     23  F   UNL     1     -13.413  10.275 128.944  0.00  0.00    +0.000 F 
ATOM     24  C   UNL     1     -12.722   8.510 130.313  0.00  0.00    +0.000 A 
ATOM     25  C   UNL     1     -12.204   7.215 130.472  0.00  0.00    +0.000 A 
ATOM     26  C   UNL     1     -12.069   6.809 131.897  0.00  0.00    +0.000 C 
ENDBRANCH  18  19
ENDBRANCH   6  18
TORSDOF 5
ENDMDL
MODEL 6
REMARK VINA RESULT:      -7.0      4.635      5.855
REMARK  Name = CHEMBL1094050
REMARK  8 active torsions:
REMARK  status: ('A' for Active; 'I' for Inactive)
REMARK    1  A    between atoms: C_1  and  C_2
REMARK    2  A    between atoms: C_2  and  N_3
REMARK    3  A    between atoms: N_3  and  C_19
REMARK    4  A    between atoms: C_8  and  O_9
REMARK    5  A    between atoms: O_9  and  C_10
REMARK    6  A    between atoms: C_16  and  C_17
REMARK    7  A    between atoms: C_22  and  O_23
REMARK    8  A    between atoms: O_23  and  C_24
REMARK                            x       y       z     vdW  Elec       q    Type
REMARK                         _______ _______ _______ _____ _____    ______ ____
ROOT
ATOM      1  N   UNL     1      -7.300   2.277 123.884  0.00  0.00    +0.000 N 
ATOM      2  C   UNL     1      -6.595   2.910 124.976  0.00  0.00    +0.000 C 
ATOM      3  O   UNL     1      -5.910   3.931 124.791  0.00  0.00    +0.000 OA
ATOM      4  N   UNL     1      -6.837   2.462 126.290  0.00  0.00    +0.000 N 
ATOM      5  C   UNL     1      -6.617   3.102 127.599  0.00  0.00    +0.000 C 
ATOM      6  C   UNL     1      -5.853   1.825 128.083  0.00  0.00    +0.000 C 
ATOM      7  C   UNL     1      -6.522   1.176 126.904  0.00  0.00    +0.000 C 
ENDROOT
BRANCH   1   8
ATOM      8  C   UNL     1      -7.242   2.861 122.530  0.00  0.00    +0.000 A 
ATOM      9  C   UNL     1      -6.011   3.150 121.912  0.00  0.00    +0.000 A 
ATOM     10  C   UNL     1      -5.934   3.726 120.637  0.00  0.00    +0.000 A 
ATOM     11  C   UNL     1      -7.102   4.050 119.979  0.00  0.00    +0.000 A 
ATOM     12  N   UNL     1      -8.310   3.838 120.551  0.00  0.00    +0.000 NA
ATOM     13  C   UNL     1      -8.356   3.239 121.789  0.00  0.00    +0.000 A 
BRANCH  11  14
ATOM     14  O   UNL     1      -7.159   4.595 118.721  0.00  0.00    +0.000 OA
ATOM     15  C   UNL     1      -6.120   5.501 118.358  0.00  0.00    +0.000 C 
ENDBRANCH  11  14
ENDBRANCH   1   8
BRANCH   1  17
ATOM     16  C   UNL     1      -7.757  -0.199 123.542  0.00  0.00    +0.000 C 
ATOM     17  C   UNL     1      -8.272   1.140 123.918  0.00  0.00    +0.000 C 
ENDBRANCH   1  17
BRANCH   6  18
ATOM     18  O   UNL     1      -4.402   1.784 128.114  0.00  0.00    +0.000 OA
BRANCH  18  19
ATOM     19  C   UNL     1      -3.699   2.922 128.501  0.00  0.00    +0.000 A 
ATOM     20  C   UNL     1      -3.930   3.346 129.820  0.00  0.00    +0.000 A 
ATOM     21  C   UNL     1      -3.478   4.601 130.259  0.00  0.00    +0.000 A 
ATOM     22  C   UNL     1      -2.821   5.444 129.379  0.00  0.00    +0.000 A 
ATOM     23  F   UNL     1      -2.441   6.669 129.760  0.00  0.00    +0.000 F 
ATOM     24  C   UNL     1      -2.552   5.035 128.092  0.00  0.00    +0.000 A 
ATOM     25  C   UNL     1      -2.962   3.770 127.643  0.00  0.00    +0.000 A 
ATOM     26  C   UNL     1      -2.546   3.481 126.244  0.00  0.00    +0.000 C 
ENDBRANCH  18  19
ENDBRANCH   6  18
TORSDOF 5
ENDMDL
MODEL 7
REMARK VINA RESULT:      -7.0      5.508      8.700
REMARK  Name = CHEMBL1094050
REMARK  8 active torsions:
REMARK  status: ('A' for Active; 'I' for Inactive)
REMARK    1  A    between atoms: C_1  and  C_2
REMARK    2  A    between atoms: C_2  and  N_3
REMARK    3  A    between atoms: N_3  and  C_19
REMARK    4  A    between atoms: C_8  and  O_9
REMARK    5  A    between atoms: O_9  and  C_10
REMARK    6  A    between atoms: C_16  and  C_17
REMARK    7  A    between atoms: C_22  and  O_23
REMARK    8  A    between atoms: O_23  and  C_24
REMARK                            x       y       z     vdW  Elec       q    Type
REMARK                         _______ _______ _______ _____ _____    ______ ____
ROOT
ATOM      1  N   UNL     1      -4.358   3.874 127.535  0.00  0.00    +0.000 N 
ATOM      2  C   UNL     1      -5.710   3.380 127.405  0.00  0.00    +0.000 C 
ATOM      3  O   UNL     1      -6.525   3.487 128.337  0.00  0.00    +0.000 OA
ATOM      4  N   UNL     1      -6.152   2.936 126.142  0.00  0.00    +0.000 N 
ATOM      5  C   UNL     1      -7.503   2.758 125.584  0.00  0.00    +0.000 C 
ATOM      6  C   UNL     1      -7.122   1.303 125.152  0.00  0.00    +0.000 C 
ATOM      7  C   UNL     1      -5.714   1.785 125.359  0.00  0.00    +0.000 C 
ENDROOT
BRANCH   1   8
ATOM      8  C   UNL     1      -3.935   4.548 128.777  0.00  0.00    +0.000 A 
ATOM      9  C   UNL     1      -3.580   3.812 129.923  0.00  0.00    +0.000 A 
ATOM     10  C   UNL     1      -3.197   4.434 131.119  0.00  0.00    +0.000 A 
ATOM     11  C   UNL     1      -3.200   5.812 131.187  0.00  0.00    +0.000 A 
ATOM     12  N   UNL     1      -3.581   6.564 130.128  0.00  0.00    +0.000 NA
ATOM     13  C   UNL     1      -3.917   5.927 128.956  0.00  0.00    +0.000 A 
BRANCH  11  14
ATOM     14  O   UNL     1      -2.825   6.536 132.290  0.00  0.00    +0.000 OA
ATOM     15  C   UNL     1      -2.919   7.955 132.199  0.00  0.00    +0.000 C 
ENDBRANCH  11  14
ENDBRANCH   1   8
BRANCH   1  17
ATOM     16  C   UNL     1      -2.100   3.084 126.679  0.00  0.00    +0.000 C 
ATOM     17  C   UNL     1      -3.280   3.965 126.502  0.00  0.00    +0.000 C 
ENDBRANCH   1  17
BRANCH   6  18
ATOM     18  O   UNL     1      -7.540   0.153 125.934  0.00  0.00    +0.000 OA
BRANCH  18  19
ATOM     19  C   UNL     1      -8.008  -0.981 125.277  0.00  0.00    +0.000 A 
ATOM     20  C   UNL     1      -8.223  -0.827 123.898  0.00  0.00    +0.000 A 
ATOM     21  C   UNL     1      -8.913  -1.806 123.166  0.00  0.00    +0.000 A 
ATOM     22  C   UNL     1      -9.413  -2.925 123.811  0.00  0.00    +0.000 A 
ATOM     23  F   UNL     1     -10.129  -3.837 123.142  0.00  0.00    +0.000 F 
ATOM     24  C   UNL     1      -9.183  -3.115 125.155  0.00  0.00    +0.000 A 
ATOM     25  C   UNL     1      -8.464  -2.167 125.899  0.00  0.00    +0.000 A 
ATOM     26  C   UNL     1      -8.274  -2.559 127.321  0.00  0.00    +0.000 C 
ENDBRANCH  18  19
ENDBRANCH   6  18
TORSDOF 5
ENDMDL
MODEL 8
REMARK VINA RESULT:      -6.9      5.243      8.580
REMARK  Name = CHEMBL1094050
REMARK  8 active torsions:
REMARK  status: ('A' for Active; 'I' for Inactive)
REMARK    1  A    between atoms: C_1  and  C_2
REMARK    2  A    between atoms: C_2  and  N_3
REMARK    3  A    between atoms: N_3  and  C_19
REMARK    4  A    between atoms: C_8  and  O_9
REMARK    5  A    between atoms: O_9  and  C_10
REMARK    6  A    between atoms: C_16  and  C_17
REMARK    7  A    between atoms: C_22  and  O_23
REMARK    8  A    between atoms: O_23  and  C_24
REMARK                            x       y       z     vdW  Elec       q    Type
REMARK                         _______ _______ _______ _____ _____    ______ ____
ROOT
ATOM      1  N   UNL     1      -9.619   5.891 130.042  0.00  0.00    +0.000 N 
ATOM      2  C   UNL     1      -8.357   6.205 130.675  0.00  0.00    +0.000 C 
ATOM      3  O   UNL     1      -8.079   7.370 131.006  0.00  0.00    +0.000 OA
ATOM      4  N   UNL     1      -7.519   5.147 131.079  0.00  0.00    +0.000 N 
ATOM      5  C   UNL     1      -6.417   5.088 132.055  0.00  0.00    +0.000 C 
ATOM      6  C   UNL     1      -5.503   4.431 130.968  0.00  0.00    +0.000 C 
ATOM      7  C   UNL     1      -6.805   4.168 130.265  0.00  0.00    +0.000 C 
ENDROOT
BRANCH   1   8
ATOM      8  C   UNL     1     -10.613   6.956 129.810  0.00  0.00    +0.000 A 
ATOM      9  C   UNL     1     -11.717   7.124 130.666  0.00  0.00    +0.000 A 
ATOM     10  C   UNL     1     -12.685   8.115 130.450  0.00  0.00    +0.000 A 
ATOM     11  C   UNL     1     -12.570   8.931 129.344  0.00  0.00    +0.000 A 
ATOM     12  N   UNL     1     -11.554   8.777 128.463  0.00  0.00    +0.000 NA
ATOM     13  C   UNL     1     -10.600   7.819 128.720  0.00  0.00    +0.000 A 
BRANCH  11  14
ATOM     14  O   UNL     1     -13.437   9.948 129.036  0.00  0.00    +0.000 OA
ATOM     15  C   UNL     1     -13.480  11.057 129.930  0.00  0.00    +0.000 C 
ENDBRANCH  11  14
ENDBRANCH   1   8
BRANCH   1  17
ATOM     16  C   UNL     1     -10.596   3.680 130.824  0.00  0.00    +0.000 C 
ATOM     17  C   UNL     1     -10.197   4.556 129.695  0.00  0.00    +0.000 C 
ENDBRANCH   1  17
BRANCH   6  18
ATOM     18  O   UNL     1      -4.517   5.213 130.244  0.00  0.00    +0.000 OA
BRANCH  18  19
ATOM     19  C   UNL     1      -3.890   4.655 129.134  0.00  0.00    +0.000 A 
ATOM     20  C   UNL     1      -3.980   3.257 129.036  0.00  0.00    +0.000 A 
ATOM     21  C   UNL     1      -3.198   2.552 128.107  0.00  0.00    +0.000 A 
ATOM     22  C   UNL     1      -2.308   3.233 127.296  0.00  0.00    +0.000 A 
ATOM     23  F   UNL     1      -1.508   2.572 126.451  0.00  0.00    +0.000 F 
ATOM     24  C   UNL     1      -2.229   4.607 127.348  0.00  0.00    +0.000 A 
ATOM     25  C   UNL     1      -3.027   5.335 128.243  0.00  0.00    +0.000 A 
ATOM     26  C   UNL     1      -2.843   6.808 128.129  0.00  0.00    +0.000 C 
ENDBRANCH  18  19
ENDBRANCH   6  18
TORSDOF 5
ENDMDL
MODEL 9
REMARK VINA RESULT:      -6.8      6.165      8.553
REMARK  Name = CHEMBL1094050
REMARK  8 active torsions:
REMARK  status: ('A' for Active; 'I' for Inactive)
REMARK    1  A    between atoms: C_1  and  C_2
REMARK    2  A    between atoms: C_2  and  N_3
REMARK    3  A    between atoms: N_3  and  C_19
REMARK    4  A    between atoms: C_8  and  O_9
REMARK    5  A    between atoms: O_9  and  C_10
REMARK    6  A    between atoms: C_16  and  C_17
REMARK    7  A    between atoms: C_22  and  O_23
REMARK    8  A    between atoms: O_23  and  C_24
REMARK                            x       y       z     vdW  Elec       q    Type
REMARK                         _______ _______ _______ _____ _____    ______ ____
ROOT
ATOM      1  N   UNL     1      -9.297   5.465 131.008  0.00  0.00    +0.000 N 
ATOM      2  C   UNL     1      -8.698   5.537 132.322  0.00  0.00    +0.000 C 
ATOM      3  O   UNL     1      -9.032   6.419 133.131  0.00  0.00    +0.000 OA
ATOM      4  N   UNL     1      -7.859   4.486 132.745  0.00  0.00    +0.000 N 
ATOM      5  C   UNL     1      -7.429   4.055 134.086  0.00  0.00    +0.000 C 
ATOM      6  C   UNL     1      -5.940   4.076 133.604  0.00  0.00    +0.000 C 
ATOM      7  C   UNL     1      -6.555   4.078 132.232  0.00  0.00    +0.000 C 
ENDROOT
BRANCH   1   8
ATOM      8  C   UNL     1     -10.346   6.427 130.622  0.00  0.00    +0.000 A 
ATOM      9  C   UNL     1     -11.652   6.330 131.139  0.00  0.00    +0.000 A 
ATOM     10  C   UNL     1     -12.668   7.221 130.766  0.00  0.00    +0.000 A 
ATOM     11  C   UNL     1     -12.390   8.203 129.839  0.00  0.00    +0.000 A 
ATOM     12  N   UNL     1     -11.164   8.306 129.275  0.00  0.00    +0.000 NA
ATOM     13  C   UNL     1     -10.176   7.441 129.686  0.00  0.00    +0.000 A 
BRANCH  11  14
ATOM     14  O   UNL     1     -13.291   9.145 129.412  0.00  0.00    +0.000 OA
ATOM     15  C   UNL     1     -13.213  10.437 130.008  0.00  0.00    +0.000 C 
ENDBRANCH  11  14
ENDBRANCH   1   8
BRANCH   1  17
ATOM     16  C   UNL     1      -9.832   3.126 130.173  0.00  0.00    +0.000 C 
ATOM     17  C   UNL     1      -9.137   4.417 129.952  0.00  0.00    +0.000 C 
ENDBRANCH   1  17
BRANCH   6  18
ATOM     18  O   UNL     1      -5.061   5.185 133.927  0.00  0.00    +0.000 OA
BRANCH  18  19
ATOM     19  C   UNL     1      -4.028   5.510 133.052  0.00  0.00    +0.000 A 
ATOM     20  C   UNL     1      -4.145   6.762 132.427  0.00  0.00    +0.000 A 
ATOM     21  C   UNL     1      -3.310   7.108 131.353  0.00  0.00    +0.000 A 
ATOM     22  C   UNL     1      -2.377   6.199 130.884  0.00  0.00    +0.000 A 
ATOM     23  F   UNL     1      -1.617   6.487 129.821  0.00  0.00    +0.000 F 
ATOM     24  C   UNL     1      -2.219   4.980 131.504  0.00  0.00    +0.000 A 
ATOM     25  C   UNL     1      -3.019   4.628 132.602  0.00  0.00    +0.000 A 
ATOM     26  C   UNL     1      -2.678   3.296 133.172  0.00  0.00    +0.000 C 
ENDBRANCH  18  19
ENDBRANCH   6  18
TORSDOF 5
ENDMDL
