MODEL 1
REMARK VINA RESULT:     -11.7      0.000      0.000
REMARK  Name = CHEMBL308460
REMARK  7 active torsions:
REMARK  status: ('A' for Active; 'I' for Inactive)
REMARK    1  A    between atoms: C_1  and  O_2
REMARK    2  A    between atoms: O_2  and  C_3
REMARK    3  A    between atoms: C_5  and  O_6
REMARK    4  A    between atoms: O_6  and  C_7
REMARK    5  A    between atoms: N_10  and  C_11
REMARK    6  A    between atoms: C_25  and  C_26
REMARK    7  A    between atoms: C_31  and  N_32
REMARK                            x       y       z     vdW  Elec       q    Type
REMARK                         _______ _______ _______ _____ _____    ______ ____
ROOT
ATOM      1  C   UNL     1      -5.884  -1.529 128.588  0.00  0.00    +0.000 A 
ATOM      2  C   UNL     1      -6.193  -2.512 127.444  0.00  0.00    +0.000 A 
ATOM      3  C   UNL     1      -7.280  -2.400 126.605  0.00  0.00    +0.000 A 
ATOM      4  C   UNL     1      -8.014  -1.518 127.206  0.00  0.00    +0.000 A 
ATOM      5  F   UNL     1      -8.946  -0.978 126.532  0.00  0.00    +0.000 F 
ATOM      6  C   UNL     1      -7.775  -0.784 128.321  0.00  0.00    +0.000 A 
ATOM      7  C   UNL     1      -6.583  -0.424 128.879  0.00  0.00    +0.000 A 
ENDROOT
BRANCH   7   8
ATOM      8  C   UNL     1      -6.175   1.063 129.840  0.00  0.00    +0.000 C 
ATOM      9  O   UNL     1      -5.249   1.455 130.574  0.00  0.00    +0.000 OA
ATOM     10  N   UNL     1      -7.050   2.042 129.646  0.00  0.00    +0.000 N 
ATOM     11  C   UNL     1      -6.846   3.230 128.852  0.00  0.00    +0.000 C 
ATOM     12  C   UNL     1      -7.154   4.502 129.644  0.00  0.00    +0.000 C 
ATOM     13  C   UNL     1      -8.770   4.470 130.468  0.00  0.00    +0.000 C 
ATOM     14  C   UNL     1      -8.303   3.130 131.436  0.00  0.00    +0.000 C 
ATOM     15  C   UNL     1      -8.072   1.925 130.586  0.00  0.00    +0.000 C 
BRANCH  13  16
ATOM     16  N   UNL     1     -10.417   5.122 129.867  0.00  0.00    +0.000 N 
ATOM     17  C   UNL     1     -10.317   5.667 131.256  0.00  0.00    +0.000 C 
ATOM     18  O   UNL     1     -10.138   5.150 132.272  0.00  0.00    +0.000 OA
ATOM     19  O   UNL     1     -10.344   7.032 131.214  0.00  0.00    +0.000 OA
ATOM     20  C   UNL     1     -11.667   7.175 131.571  0.00  0.00    +0.000 C 
ATOM     21  C   UNL     1     -12.054   7.351 130.189  0.00  0.00    +0.000 A 
ATOM     22  C   UNL     1     -12.458   8.693 129.774  0.00  0.00    +0.000 A 
ATOM     23  C   UNL     1     -13.078   9.026 128.595  0.00  0.00    +0.000 A 
ATOM     24  C   UNL     1     -13.718   7.930 128.106  0.00  0.00    +0.000 A 
ATOM     25  C   UNL     1     -13.131   6.480 128.490  0.00  0.00    +0.000 A 
ATOM     26  C   UNL     1     -11.858   6.209 129.423  0.00  0.00    +0.000 A 
ENDBRANCH  13  16
ENDBRANCH   7   8
BRANCH   1  28
ATOM     27  C   UNL     1      -4.258  -2.859 129.046  0.00  0.00    +0.000 C 
ATOM     28  O   UNL     1      -4.984  -1.783 129.555  0.00  0.00    +0.000 OA
ENDBRANCH   1  28
BRANCH   3  29
ATOM     29  O   UNL     1      -7.765  -2.974 125.474  0.00  0.00    +0.000 OA
BRANCH  29  30
ATOM     30  C   UNL     1      -7.460  -2.494 124.035  0.00  0.00    +0.000 C 
ATOM     31  C   UNL     1      -6.311  -1.457 123.840  0.00  0.00    +0.000 C 
ATOM     32  C   UNL     1      -6.805  -0.007 123.878  0.00  0.00    +0.000 C 
ATOM     33  N   UNL     1      -8.043   0.324 123.015  0.00  0.00    +0.000 NA
ATOM     34  C   UNL     1      -9.160  -0.720 122.979  0.00  0.00    +0.000 C 
ATOM     35  C   UNL     1      -8.624  -2.179 123.020  0.00  0.00    +0.000 C 
BRANCH  33  36
ATOM     36  C   UNL     1      -8.546   1.720 123.263  0.00  0.00    +0.000 C 
ATOM     37  C   UNL     1      -9.144   2.036 124.672  0.00  0.00    +0.000 C 
ATOM     38  C   UNL     1      -8.229   2.839 125.576  0.00  0.00    +0.000 C 
ATOM     39  C   UNL     1      -7.277   3.265 124.574  0.00  0.00    +0.000 A 
ATOM     40  N   UNL     1      -6.319   3.990 125.079  0.00  0.00    +0.000 NA
ATOM     41  C   UNL     1      -5.631   4.349 124.046  0.00  0.00    +0.000 A 
ATOM     42  C   UNL     1      -5.887   3.978 122.457  0.00  0.00    +0.000 A 
ATOM     43  C   UNL     1      -6.880   3.175 122.066  0.00  0.00    +0.000 A 
ATOM     44  C   UNL     1      -7.551   2.810 123.204  0.00  0.00    +0.000 A 
ENDBRANCH  33  36
ENDBRANCH  29  30
ENDBRANCH   3  29
TORSDOF 6
ENDMDL
MODEL 2
REMARK VINA RESULT:     -11.6      1.562      1.795
REMARK  Name = CHEMBL308460
REMARK  7 active torsions:
REMARK  status: ('A' for Active; 'I' for Inactive)
REMARK    1  A    between atoms: C_1  and  O_2
REMARK    2  A    between atoms: O_2  and  C_3
REMARK    3  A    between atoms: C_5  and  O_6
REMARK    4  A    between atoms: O_6  and  C_7
REMARK    5  A    between atoms: N_10  and  C_11
REMARK    6  A    between atoms: C_25  and  C_26
REMARK    7  A    between atoms: C_31  and  N_32
REMARK                            x       y       z     vdW  Elec       q    Type
REMARK                         _______ _______ _______ _____ _____    ______ ____
ROOT
ATOM      1  C   UNL     1      -6.431  -1.799 130.315  0.00  0.00    +0.000 A 
ATOM      2  C   UNL     1      -6.401  -2.675 129.048  0.00  0.00    +0.000 A 
ATOM      3  C   UNL     1      -7.032  -2.344 127.868  0.00  0.00    +0.000 A 
ATOM      4  C   UNL     1      -7.803  -1.366 128.222  0.00  0.00    +0.000 A 
ATOM      5  F   UNL     1      -8.295  -0.648 127.295  0.00  0.00    +0.000 F 
ATOM      6  C   UNL     1      -7.922  -0.721 129.409  0.00  0.00    +0.000 A 
ATOM      7  C   UNL     1      -7.014  -0.596 130.419  0.00  0.00    +0.000 A 
ENDROOT
BRANCH   7   8
ATOM      8  C   UNL     1      -6.805   0.763 131.606  0.00  0.00    +0.000 C 
ATOM      9  O   UNL     1      -6.115   1.003 132.614  0.00  0.00    +0.000 OA
ATOM     10  N   UNL     1      -7.509   1.836 131.269  0.00  0.00    +0.000 N 
ATOM     11  C   UNL     1      -6.993   3.056 130.696  0.00  0.00    +0.000 C 
ATOM     12  C   UNL     1      -7.431   4.287 131.492  0.00  0.00    +0.000 C 
ATOM     13  C   UNL     1      -9.217   4.351 131.803  0.00  0.00    +0.000 C 
ATOM     14  C   UNL     1      -9.159   2.900 132.720  0.00  0.00    +0.000 C 
ATOM     15  C   UNL     1      -8.771   1.748 131.854  0.00  0.00    +0.000 C 
BRANCH  13  16
ATOM     16  N   UNL     1     -10.559   5.208 130.820  0.00  0.00    +0.000 N 
ATOM     17  C   UNL     1      -9.549   6.290 131.041  0.00  0.00    +0.000 C 
ATOM     18  O   UNL     1      -9.064   6.702 132.003  0.00  0.00    +0.000 OA
ATOM     19  O   UNL     1      -9.092   6.741 129.835  0.00  0.00    +0.000 OA
ATOM     20  C   UNL     1      -9.865   7.881 129.790  0.00  0.00    +0.000 C 
ATOM     21  C   UNL     1     -10.827   7.232 128.926  0.00  0.00    +0.000 A 
ATOM     22  C   UNL     1     -10.865   7.659 127.529  0.00  0.00    +0.000 A 
ATOM     23  C   UNL     1     -11.841   7.352 126.613  0.00  0.00    +0.000 A 
ATOM     24  C   UNL     1     -12.991   7.051 127.274  0.00  0.00    +0.000 A 
ATOM     25  C   UNL     1     -12.869   6.450 128.764  0.00  0.00    +0.000 A 
ATOM     26  C   UNL     1     -11.500   6.190 129.553  0.00  0.00    +0.000 A 
ENDBRANCH  13  16
ENDBRANCH   7   8
BRANCH   1  28
ATOM     27  C   UNL     1      -6.355  -3.598 131.490  0.00  0.00    +0.000 C 
ATOM     28  O   UNL     1      -6.043  -2.239 131.525  0.00  0.00    +0.000 OA
ENDBRANCH   1  28
BRANCH   3  29
ATOM     29  O   UNL     1      -7.104  -2.788 126.587  0.00  0.00    +0.000 OA
BRANCH  29  30
ATOM     30  C   UNL     1      -6.173  -2.333 125.437  0.00  0.00    +0.000 C 
ATOM     31  C   UNL     1      -5.507  -0.927 125.552  0.00  0.00    +0.000 C 
ATOM     32  C   UNL     1      -6.336   0.180 124.891  0.00  0.00    +0.000 C 
ATOM     33  N   UNL     1      -6.858  -0.105 123.466  0.00  0.00    +0.000 NA
ATOM     34  C   UNL     1      -7.363  -1.521 123.184  0.00  0.00    +0.000 C 
ATOM     35  C   UNL     1      -6.546  -2.613 123.932  0.00  0.00    +0.000 C 
BRANCH  33  36
ATOM     36  C   UNL     1      -7.801   0.965 122.986  0.00  0.00    +0.000 C 
ATOM     37  C   UNL     1      -9.307   0.835 123.382  0.00  0.00    +0.000 C 
ATOM     38  C   UNL     1      -9.747   1.771 124.491  0.00  0.00    +0.000 C 
ATOM     39  C   UNL     1      -8.600   2.653 124.479  0.00  0.00    +0.000 A 
ATOM     40  N   UNL     1      -8.688   3.591 125.380  0.00  0.00    +0.000 NA
ATOM     41  C   UNL     1      -7.643   4.320 125.164  0.00  0.00    +0.000 A 
ATOM     42  C   UNL     1      -6.462   4.119 124.027  0.00  0.00    +0.000 A 
ATOM     43  C   UNL     1      -6.454   3.080 123.189  0.00  0.00    +0.000 A 
ATOM     44  C   UNL     1      -7.566   2.335 123.484  0.00  0.00    +0.000 A 
ENDBRANCH  33  36
ENDBRANCH  29  30
ENDBRANCH   3  29
TORSDOF 6
ENDMDL
MODEL 3
REMARK VINA RESULT:     -11.5      3.405      9.080
REMARK  Name = CHEMBL308460
REMARK  7 active torsions:
REMARK  status: ('A' for Active; 'I' for Inactive)
REMARK    1  A    between atoms: C_1  and  O_2
REMARK    2  A    between atoms: O_2  and  C_3
REMARK    3  A    between atoms: C_5  and  O_6
REMARK    4  A    between atoms: O_6  and  C_7
REMARK    5  A    between atoms: N_10  and  C_11
REMARK    6  A    between atoms: C_25  and  C_26
REMARK    7  A    between atoms: C_31  and  N_32
REMARK                            x       y       z     vdW  Elec       q    Type
REMARK                         _______ _______ _______ _____ _____    ______ ____
ROOT
ATOM      1  C   UNL     1      -4.374   4.862 131.207  0.00  0.00    +0.000 A 
ATOM      2  C   UNL     1      -5.200   5.017 132.498  0.00  0.00    +0.000 A 
ATOM      3  C   UNL     1      -6.273   5.873 132.627  0.00  0.00    +0.000 A 
ATOM      4  C   UNL     1      -6.171   6.619 131.573  0.00  0.00    +0.000 A 
ATOM      5  F   UNL     1      -7.185   7.314 131.251  0.00  0.00    +0.000 F 
ATOM      6  C   UNL     1      -5.312   6.553 130.525  0.00  0.00    +0.000 A 
ATOM      7  C   UNL     1      -4.618   5.482 130.045  0.00  0.00    +0.000 A 
ENDROOT
BRANCH   7   8
ATOM      8  C   UNL     1      -4.091   5.134 128.341  0.00  0.00    +0.000 C 
ATOM      9  O   UNL     1      -3.274   5.595 127.521  0.00  0.00    +0.000 OA
ATOM     10  N   UNL     1      -4.658   4.038 127.854  0.00  0.00    +0.000 N 
ATOM     11  C   UNL     1      -4.027   2.753 127.673  0.00  0.00    +0.000 C 
ATOM     12  C   UNL     1      -4.195   2.234 126.244  0.00  0.00    +0.000 C 
ATOM     13  C   UNL     1      -5.911   2.268 125.657  0.00  0.00    +0.000 C 
ATOM     14  C   UNL     1      -5.976   3.979 125.800  0.00  0.00    +0.000 C 
ATOM     15  C   UNL     1      -5.854   4.390 127.229  0.00  0.00    +0.000 C 
BRANCH  13  16
ATOM     16  N   UNL     1      -7.202   0.915 125.698  0.00  0.00    +0.000 N 
ATOM     17  C   UNL     1      -6.859   1.020 124.246  0.00  0.00    +0.000 C 
ATOM     18  O   UNL     1      -6.860   1.917 123.521  0.00  0.00    +0.000 OA
ATOM     19  O   UNL     1      -6.365  -0.175 123.807  0.00  0.00    +0.000 OA
ATOM     20  C   UNL     1      -7.522  -0.610 123.197  0.00  0.00    +0.000 C 
ATOM     21  C   UNL     1      -7.854  -1.428 124.342  0.00  0.00    +0.000 A 
ATOM     22  C   UNL     1      -7.729  -2.876 124.189  0.00  0.00    +0.000 A 
ATOM     23  C   UNL     1      -8.210  -3.829 125.052  0.00  0.00    +0.000 A 
ATOM     24  C   UNL     1      -9.235  -3.297 125.772  0.00  0.00    +0.000 A 
ATOM     25  C   UNL     1      -9.234  -1.707 126.024  0.00  0.00    +0.000 A 
ATOM     26  C   UNL     1      -8.133  -0.679 125.480  0.00  0.00    +0.000 A 
ENDBRANCH  13  16
ENDBRANCH   7   8
BRANCH   1  28
ATOM     27  C   UNL     1      -2.805   4.171 132.504  0.00  0.00    +0.000 C 
ATOM     28  O   UNL     1      -3.187   4.233 131.164  0.00  0.00    +0.000 OA
ENDBRANCH   1  28
BRANCH   3  29
ATOM     29  O   UNL     1      -7.255   6.157 133.520  0.00  0.00    +0.000 OA
BRANCH  29  30
ATOM     30  C   UNL     1      -8.618   5.428 133.601  0.00  0.00    +0.000 C 
ATOM     31  C   UNL     1      -8.633   3.967 134.149  0.00  0.00    +0.000 C 
ATOM     32  C   UNL     1      -8.496   2.915 133.042  0.00  0.00    +0.000 C 
ATOM     33  N   UNL     1      -9.411   3.086 131.809  0.00  0.00    +0.000 NA
ATOM     34  C   UNL     1      -9.624   4.512 131.298  0.00  0.00    +0.000 C 
ATOM     35  C   UNL     1      -9.680   5.561 132.444  0.00  0.00    +0.000 C 
BRANCH  33  36
ATOM     36  C   UNL     1      -9.071   2.110 130.716  0.00  0.00    +0.000 C 
ATOM     37  C   UNL     1      -8.011   2.550 129.655  0.00  0.00    +0.000 C 
ATOM     38  C   UNL     1      -6.644   1.919 129.834  0.00  0.00    +0.000 C 
ATOM     39  C   UNL     1      -7.022   0.878 130.765  0.00  0.00    +0.000 A 
ATOM     40  N   UNL     1      -6.005   0.150 131.132  0.00  0.00    +0.000 NA
ATOM     41  C   UNL     1      -6.537  -0.764 131.875  0.00  0.00    +0.000 A 
ATOM     42  C   UNL     1      -8.125  -0.968 132.281  0.00  0.00    +0.000 A 
ATOM     43  C   UNL     1      -9.075  -0.118 131.883  0.00  0.00    +0.000 A 
ATOM     44  C   UNL     1      -8.446   0.836 131.126  0.00  0.00    +0.000 A 
ENDBRANCH  33  36
ENDBRANCH  29  30
ENDBRANCH   3  29
TORSDOF 6
ENDMDL
MODEL 4
REMARK VINA RESULT:     -11.5      1.471      1.703
REMARK  Name = CHEMBL308460
REMARK  7 active torsions:
REMARK  status: ('A' for Active; 'I' for Inactive)
REMARK    1  A    between atoms: C_1  and  O_2
REMARK    2  A    between atoms: O_2  and  C_3
REMARK    3  A    between atoms: C_5  and  O_6
REMARK    4  A    between atoms: O_6  and  C_7
REMARK    5  A    between atoms: N_10  and  C_11
REMARK    6  A    between atoms: C_25  and  C_26
REMARK    7  A    between atoms: C_31  and  N_32
REMARK                            x       y       z     vdW  Elec       q    Type
REMARK                         _______ _______ _______ _____ _____    ______ ____
ROOT
ATOM      1  C   UNL     1      -5.929  -1.975 128.112  0.00  0.00    +0.000 A 
ATOM      2  C   UNL     1      -6.273  -2.370 126.664  0.00  0.00    +0.000 A 
ATOM      3  C   UNL     1      -7.512  -2.821 126.263  0.00  0.00    +0.000 A 
ATOM      4  C   UNL     1      -8.104  -3.068 127.388  0.00  0.00    +0.000 A 
ATOM      5  F   UNL     1      -9.365  -3.216 127.363  0.00  0.00    +0.000 F 
ATOM      6  C   UNL     1      -7.695  -2.857 128.665  0.00  0.00    +0.000 A 
ATOM      7  C   UNL     1      -6.785  -1.961 129.142  0.00  0.00    +0.000 A 
ENDROOT
BRANCH   7   8
ATOM      8  C   UNL     1      -6.734  -1.138 130.762  0.00  0.00    +0.000 C 
ATOM      9  O   UNL     1      -6.220  -1.341 131.877  0.00  0.00    +0.000 OA
ATOM     10  N   UNL     1      -7.330   0.047 130.742  0.00  0.00    +0.000 N 
ATOM     11  C   UNL     1      -6.678   1.335 130.739  0.00  0.00    +0.000 C 
ATOM     12  C   UNL     1      -7.202   2.239 131.857  0.00  0.00    +0.000 C 
ATOM     13  C   UNL     1      -9.011   2.361 131.903  0.00  0.00    +0.000 C 
ATOM     14  C   UNL     1      -9.165   0.680 132.223  0.00  0.00    +0.000 C 
ATOM     15  C   UNL     1      -8.676  -0.121 131.061  0.00  0.00    +0.000 C 
BRANCH  13  16
ATOM     16  N   UNL     1     -10.131   3.637 131.117  0.00  0.00    +0.000 N 
ATOM     17  C   UNL     1      -9.491   4.386 132.242  0.00  0.00    +0.000 C 
ATOM     18  O   UNL     1      -9.427   4.165 133.373  0.00  0.00    +0.000 OA
ATOM     19  O   UNL     1      -8.789   5.447 131.744  0.00  0.00    +0.000 OA
ATOM     20  C   UNL     1      -9.732   6.410 132.032  0.00  0.00    +0.000 C 
ATOM     21  C   UNL     1     -10.220   6.384 130.671  0.00  0.00    +0.000 A 
ATOM     22  C   UNL     1      -9.912   7.539 129.828  0.00  0.00    +0.000 A 
ATOM     23  C   UNL     1     -10.468   7.823 128.606  0.00  0.00    +0.000 A 
ATOM     24  C   UNL     1     -11.675   7.203 128.513  0.00  0.00    +0.000 A 
ATOM     25  C   UNL     1     -11.897   5.853 129.362  0.00  0.00    +0.000 A 
ATOM     26  C   UNL     1     -10.818   5.176 130.333  0.00  0.00    +0.000 A 
ENDBRANCH  13  16
ENDBRANCH   7   8
BRANCH   1  28
ATOM     27  C   UNL     1      -4.231  -3.082 128.828  0.00  0.00    +0.000 C 
ATOM     28  O   UNL     1      -4.669  -1.789 128.545  0.00  0.00    +0.000 OA
ENDBRANCH   1  28
BRANCH   3  29
ATOM     29  O   UNL     1      -8.171  -3.118 125.114  0.00  0.00    +0.000 OA
BRANCH  29  30
ATOM     30  C   UNL     1      -7.839  -2.526 123.723  0.00  0.00    +0.000 C 
ATOM     31  C   UNL     1      -6.614  -1.566 123.613  0.00  0.00    +0.000 C 
ATOM     32  C   UNL     1      -6.994  -0.093 123.796  0.00  0.00    +0.000 C 
ATOM     33  N   UNL     1      -8.207   0.413 122.985  0.00  0.00    +0.000 NA
ATOM     34  C   UNL     1      -9.402  -0.534 122.864  0.00  0.00    +0.000 C 
ATOM     35  C   UNL     1      -8.980  -2.027 122.758  0.00  0.00    +0.000 C 
BRANCH  33  36
ATOM     36  C   UNL     1      -8.599   1.814 123.371  0.00  0.00    +0.000 C 
ATOM     37  C   UNL     1      -9.044   2.060 124.849  0.00  0.00    +0.000 C 
ATOM     38  C   UNL     1      -8.002   2.746 125.712  0.00  0.00    +0.000 C 
ATOM     39  C   UNL     1      -7.123   3.190 124.652  0.00  0.00    +0.000 A 
ATOM     40  N   UNL     1      -6.079   3.824 125.109  0.00  0.00    +0.000 NA
ATOM     41  C   UNL     1      -5.470   4.218 124.039  0.00  0.00    +0.000 A 
ATOM     42  C   UNL     1      -5.894   3.975 122.462  0.00  0.00    +0.000 A 
ATOM     43  C   UNL     1      -6.966   3.257 122.117  0.00  0.00    +0.000 A 
ATOM     44  C   UNL     1      -7.550   2.849 123.288  0.00  0.00    +0.000 A 
ENDBRANCH  33  36
ENDBRANCH  29  30
ENDBRANCH   3  29
TORSDOF 6
ENDMDL
MODEL 5
REMARK VINA RESULT:     -11.2      4.419      7.470
REMARK  Name = CHEMBL308460
REMARK  7 active torsions:
REMARK  status: ('A' for Active; 'I' for Inactive)
REMARK    1  A    between atoms: C_1  and  O_2
REMARK    2  A    between atoms: O_2  and  C_3
REMARK    3  A    between atoms: C_5  and  O_6
REMARK    4  A    between atoms: O_6  and  C_7
REMARK    5  A    between atoms: N_10  and  C_11
REMARK    6  A    between atoms: C_25  and  C_26
REMARK    7  A    between atoms: C_31  and  N_32
REMARK                            x       y       z     vdW  Elec       q    Type
REMARK                         _______ _______ _______ _____ _____    ______ ____
ROOT
ATOM      1  C   UNL     1      -7.927  -0.032 125.593  0.00  0.00    +0.000 A 
ATOM      2  C   UNL     1      -8.370  -1.308 126.333  0.00  0.00    +0.000 A 
ATOM      3  C   UNL     1      -7.502  -2.168 126.971  0.00  0.00    +0.000 A 
ATOM      4  C   UNL     1      -6.345  -1.781 126.537  0.00  0.00    +0.000 A 
ATOM      5  F   UNL     1      -5.320  -2.184 127.171  0.00  0.00    +0.000 F 
ATOM      6  C   UNL     1      -6.007  -0.736 125.741  0.00  0.00    +0.000 A 
ATOM      7  C   UNL     1      -6.673   0.434 125.522  0.00  0.00    +0.000 A 
ENDROOT
BRANCH   7   8
ATOM      8  C   UNL     1      -5.999   2.073 125.119  0.00  0.00    +0.000 C 
ATOM      9  O   UNL     1      -5.945   2.823 124.127  0.00  0.00    +0.000 OA
ATOM     10  N   UNL     1      -5.506   2.689 126.185  0.00  0.00    +0.000 N 
ATOM     11  C   UNL     1      -6.116   3.781 126.905  0.00  0.00    +0.000 C 
ATOM     12  C   UNL     1      -5.162   4.967 127.054  0.00  0.00    +0.000 C 
ATOM     13  C   UNL     1      -3.534   4.511 127.709  0.00  0.00    +0.000 C 
ATOM     14  C   UNL     1      -3.213   3.512 126.349  0.00  0.00    +0.000 C 
ATOM     15  C   UNL     1      -4.158   2.357 126.313  0.00  0.00    +0.000 C 
BRANCH  13  16
ATOM     16  N   UNL     1      -2.924   4.524 129.478  0.00  0.00    +0.000 N 
ATOM     17  C   UNL     1      -2.781   5.952 129.053  0.00  0.00    +0.000 C 
ATOM     18  O   UNL     1      -2.236   6.435 128.159  0.00  0.00    +0.000 OA
ATOM     19  O   UNL     1      -3.551   6.746 129.855  0.00  0.00    +0.000 OA
ATOM     20  C   UNL     1      -2.528   7.194 130.662  0.00  0.00    +0.000 C 
ATOM     21  C   UNL     1      -2.867   6.226 131.682  0.00  0.00    +0.000 A 
ATOM     22  C   UNL     1      -3.489   6.732 132.904  0.00  0.00    +0.000 A 
ATOM     23  C   UNL     1      -3.669   6.034 134.072  0.00  0.00    +0.000 A 
ATOM     24  C   UNL     1      -2.765   5.019 134.127  0.00  0.00    +0.000 A 
ATOM     25  C   UNL     1      -2.227   4.412 132.735  0.00  0.00    +0.000 A 
ATOM     26  C   UNL     1      -2.653   4.914 131.275  0.00  0.00    +0.000 A 
ENDBRANCH  13  16
ENDBRANCH   7   8
BRANCH   1  28
ATOM     27  C   UNL     1      -8.995  -0.260 123.742  0.00  0.00    +0.000 C 
ATOM     28  O   UNL     1      -8.731   0.654 124.761  0.00  0.00    +0.000 OA
ENDBRANCH   1  28
BRANCH   3  29
ATOM     29  O   UNL     1      -7.551  -3.253 127.787  0.00  0.00    +0.000 OA
BRANCH  29  30
ATOM     30  C   UNL     1      -7.439  -3.208 129.330  0.00  0.00    +0.000 C 
ATOM     31  C   UNL     1      -8.006  -1.954 130.066  0.00  0.00    +0.000 C 
ATOM     32  C   UNL     1      -6.953  -0.860 130.275  0.00  0.00    +0.000 C 
ATOM     33  N   UNL     1      -5.593  -1.312 130.853  0.00  0.00    +0.000 NA
ATOM     34  C   UNL     1      -5.029  -2.637 130.339  0.00  0.00    +0.000 C 
ATOM     35  C   UNL     1      -6.133  -3.697 130.064  0.00  0.00    +0.000 C 
BRANCH  33  36
ATOM     36  C   UNL     1      -4.582  -0.198 130.851  0.00  0.00    +0.000 C 
ATOM     37  C   UNL     1      -4.635   0.828 129.673  0.00  0.00    +0.000 C 
ATOM     38  C   UNL     1      -5.239   2.171 130.037  0.00  0.00    +0.000 C 
ATOM     39  C   UNL     1      -5.205   2.025 131.476  0.00  0.00    +0.000 A 
ATOM     40  N   UNL     1      -5.699   3.063 132.090  0.00  0.00    +0.000 NA
ATOM     41  C   UNL     1      -5.505   2.798 133.340  0.00  0.00    +0.000 A 
ATOM     42  C   UNL     1      -4.807   1.462 134.015  0.00  0.00    +0.000 A 
ATOM     43  C   UNL     1      -4.384   0.432 133.278  0.00  0.00    +0.000 A 
ATOM     44  C   UNL     1      -4.641   0.761 131.972  0.00  0.00    +0.000 A 
ENDBRANCH  33  36
ENDBRANCH  29  30
ENDBRANCH   3  29
TORSDOF 6
ENDMDL
MODEL 6
REMARK VINA RESULT:     -11.1      4.145      8.715
REMARK  Name = CHEMBL308460
REMARK  7 active torsions:
REMARK  status: ('A' for Active; 'I' for Inactive)
REMARK    1  A    between atoms: C_1  and  O_2
REMARK    2  A    between atoms: O_2  and  C_3
REMARK    3  A    between atoms: C_5  and  O_6
REMARK    4  A    between atoms: O_6  and  C_7
REMARK    5  A    between atoms: N_10  and  C_11
REMARK    6  A    between atoms: C_25  and  C_26
REMARK    7  A    between atoms: C_31  and  N_32
REMARK                            x       y       z     vdW  Elec       q    Type
REMARK                         _______ _______ _______ _____ _____    ______ ____
ROOT
ATOM      1  C   UNL     1      -3.087   4.863 130.605  0.00  0.00    +0.000 A 
ATOM      2  C   UNL     1      -2.881   4.242 132.000  0.00  0.00    +0.000 A 
ATOM      3  C   UNL     1      -3.903   3.750 132.782  0.00  0.00    +0.000 A 
ATOM      4  C   UNL     1      -4.961   4.204 132.189  0.00  0.00    +0.000 A 
ATOM      5  F   UNL     1      -6.075   3.677 132.498  0.00  0.00    +0.000 F 
ATOM      6  C   UNL     1      -5.093   4.901 131.032  0.00  0.00    +0.000 A 
ATOM      7  C   UNL     1      -4.256   4.954 129.956  0.00  0.00    +0.000 A 
ENDROOT
BRANCH   7   8
ATOM      8  C   UNL     1      -4.663   5.215 128.205  0.00  0.00    +0.000 C 
ATOM      9  O   UNL     1      -4.498   6.102 127.347  0.00  0.00    +0.000 OA
ATOM     10  N   UNL     1      -5.207   4.140 127.651  0.00  0.00    +0.000 N 
ATOM     11  C   UNL     1      -4.562   3.222 126.742  0.00  0.00    +0.000 C 
ATOM     12  C   UNL     1      -5.372   3.028 125.459  0.00  0.00    +0.000 C 
ATOM     13  C   UNL     1      -7.114   2.622 125.756  0.00  0.00    +0.000 C 
ATOM     14  C   UNL     1      -7.382   4.126 126.540  0.00  0.00    +0.000 C 
ATOM     15  C   UNL     1      -6.591   4.206 127.804  0.00  0.00    +0.000 C 
BRANCH  13  16
ATOM     16  N   UNL     1      -7.937   0.944 125.857  0.00  0.00    +0.000 N 
ATOM     17  C   UNL     1      -8.141   1.342 124.430  0.00  0.00    +0.000 C 
ATOM     18  O   UNL     1      -8.609   2.284 123.955  0.00  0.00    +0.000 OA
ATOM     19  O   UNL     1      -7.542   0.427 123.611  0.00  0.00    +0.000 OA
ATOM     20  C   UNL     1      -8.690  -0.257 123.274  0.00  0.00    +0.000 C 
ATOM     21  C   UNL     1      -8.402  -1.283 124.252  0.00  0.00    +0.000 A 
ATOM     22  C   UNL     1      -7.980  -2.588 123.748  0.00  0.00    +0.000 A 
ATOM     23  C   UNL     1      -7.889  -3.749 124.475  0.00  0.00    +0.000 A 
ATOM     24  C   UNL     1      -8.709  -3.660 125.557  0.00  0.00    +0.000 A 
ATOM     25  C   UNL     1      -9.020  -2.194 126.149  0.00  0.00    +0.000 A 
ATOM     26  C   UNL     1      -8.459  -0.815 125.559  0.00  0.00    +0.000 A 
ENDBRANCH  13  16
ENDBRANCH   7   8
BRANCH   1  28
ATOM     27  C   UNL     1      -1.692   6.465 130.937  0.00  0.00    +0.000 C 
ATOM     28  O   UNL     1      -2.138   5.569 129.966  0.00  0.00    +0.000 OA
ENDBRANCH   1  28
BRANCH   3  29
ATOM     29  O   UNL     1      -4.065   3.055 133.937  0.00  0.00    +0.000 OA
BRANCH  29  30
ATOM     30  C   UNL     1      -4.332   1.533 134.027  0.00  0.00    +0.000 C 
ATOM     31  C   UNL     1      -3.737   0.622 132.909  0.00  0.00    +0.000 C 
ATOM     32  C   UNL     1      -4.706   0.401 131.742  0.00  0.00    +0.000 C 
ATOM     33  N   UNL     1      -6.153   0.004 132.112  0.00  0.00    +0.000 NA
ATOM     34  C   UNL     1      -6.775   0.703 133.322  0.00  0.00    +0.000 C 
ATOM     35  C   UNL     1      -5.744   0.980 134.454  0.00  0.00    +0.000 C 
BRANCH  33  36
ATOM     36  C   UNL     1      -7.057  -0.013 130.909  0.00  0.00    +0.000 C 
ATOM     37  C   UNL     1      -6.772   1.021 129.773  0.00  0.00    +0.000 C 
ATOM     38  C   UNL     1      -6.105   0.435 128.544  0.00  0.00    +0.000 C 
ATOM     39  C   UNL     1      -6.327  -0.963 128.840  0.00  0.00    +0.000 A 
ATOM     40  N   UNL     1      -5.825  -1.748 127.929  0.00  0.00    +0.000 NA
ATOM     41  C   UNL     1      -6.192  -2.928 128.306  0.00  0.00    +0.000 A 
ATOM     42  C   UNL     1      -7.079  -3.357 129.631  0.00  0.00    +0.000 A 
ATOM     43  C   UNL     1      -7.495  -2.460 130.528  0.00  0.00    +0.000 A 
ATOM     44  C   UNL     1      -7.054  -1.240 130.088  0.00  0.00    +0.000 A 
ENDBRANCH  33  36
ENDBRANCH  29  30
ENDBRANCH   3  29
TORSDOF 6
ENDMDL
MODEL 7
REMARK VINA RESULT:     -11.1      3.939      8.116
REMARK  Name = CHEMBL308460
REMARK  7 active torsions:
REMARK  status: ('A' for Active; 'I' for Inactive)
REMARK    1  A    between atoms: C_1  and  O_2
REMARK    2  A    between atoms: O_2  and  C_3
REMARK    3  A    between atoms: C_5  and  O_6
REMARK    4  A    between atoms: O_6  and  C_7
REMARK    5  A    between atoms: N_10  and  C_11
REMARK    6  A    between atoms: C_25  and  C_26
REMARK    7  A    between atoms: C_31  and  N_32
REMARK                            x       y       z     vdW  Elec       q    Type
REMARK                         _______ _______ _______ _____ _____    ______ ____
ROOT
ATOM      1  C   UNL     1      -5.874   0.841 133.209  0.00  0.00    +0.000 A 
ATOM      2  C   UNL     1      -5.753   2.336 133.559  0.00  0.00    +0.000 A 
ATOM      3  C   UNL     1      -4.930   3.218 132.894  0.00  0.00    +0.000 A 
ATOM      4  C   UNL     1      -4.172   2.432 132.197  0.00  0.00    +0.000 A 
ATOM      5  F   UNL     1      -3.505   2.953 131.250  0.00  0.00    +0.000 F 
ATOM      6  C   UNL     1      -4.205   1.084 132.043  0.00  0.00    +0.000 A 
ATOM      7  C   UNL     1      -5.252   0.223 132.196  0.00  0.00    +0.000 A 
ENDROOT
BRANCH   7   8
ATOM      8  C   UNL     1      -5.571  -1.349 131.343  0.00  0.00    +0.000 C 
ATOM      9  O   UNL     1      -5.520  -2.564 131.610  0.00  0.00    +0.000 OA
ATOM     10  N   UNL     1      -6.084  -1.169 130.133  0.00  0.00    +0.000 N 
ATOM     11  C   UNL     1      -7.459  -1.372 129.745  0.00  0.00    +0.000 C 
ATOM     12  C   UNL     1      -7.577  -2.297 128.533  0.00  0.00    +0.000 C 
ATOM     13  C   UNL     1      -6.514  -1.814 127.145  0.00  0.00    +0.000 C 
ATOM     14  C   UNL     1      -5.096  -2.056 128.084  0.00  0.00    +0.000 C 
ATOM     15  C   UNL     1      -5.042  -1.079 129.212  0.00  0.00    +0.000 C 
BRANCH  13  16
ATOM     16  N   UNL     1      -6.918  -0.749 125.661  0.00  0.00    +0.000 N 
ATOM     17  C   UNL     1      -7.075  -2.142 125.138  0.00  0.00    +0.000 C 
ATOM     18  O   UNL     1      -6.356  -3.044 125.133  0.00  0.00    +0.000 OA
ATOM     19  O   UNL     1      -8.358  -2.327 124.709  0.00  0.00    +0.000 OA
ATOM     20  C   UNL     1      -8.098  -2.169 123.364  0.00  0.00    +0.000 C 
ATOM     21  C   UNL     1      -8.551  -0.797 123.406  0.00  0.00    +0.000 A 
ATOM     22  C   UNL     1      -9.830  -0.494 122.764  0.00  0.00    +0.000 A 
ATOM     23  C   UNL     1     -10.322   0.756 122.484  0.00  0.00    +0.000 A 
ATOM     24  C   UNL     1      -9.284   1.633 122.403  0.00  0.00    +0.000 A 
ATOM     25  C   UNL     1      -7.955   1.308 123.252  0.00  0.00    +0.000 A 
ATOM     26  C   UNL     1      -7.733   0.020 124.177  0.00  0.00    +0.000 A 
ENDBRANCH  13  16
ENDBRANCH   7   8
BRANCH   1  28
ATOM     27  C   UNL     1      -5.709  -0.000 135.181  0.00  0.00    +0.000 C 
ATOM     28  O   UNL     1      -6.469  -0.058 134.013  0.00  0.00    +0.000 OA
ENDBRANCH   1  28
BRANCH   3  29
ATOM     29  O   UNL     1      -4.682   4.552 132.849  0.00  0.00    +0.000 OA
BRANCH  29  30
ATOM     30  C   UNL     1      -5.412   5.559 131.927  0.00  0.00    +0.000 C 
ATOM     31  C   UNL     1      -6.324   4.986 130.799  0.00  0.00    +0.000 C 
ATOM     32  C   UNL     1      -5.582   4.796 129.472  0.00  0.00    +0.000 C 
ATOM     33  N   UNL     1      -4.726   5.985 128.983  0.00  0.00    +0.000 NA
ATOM     34  C   UNL     1      -3.931   6.748 130.044  0.00  0.00    +0.000 C 
ATOM     35  C   UNL     1      -4.684   6.854 131.401  0.00  0.00    +0.000 C 
BRANCH  33  36
ATOM     36  C   UNL     1      -3.907   5.630 127.772  0.00  0.00    +0.000 C 
ATOM     37  C   UNL     1      -2.564   4.865 128.004  0.00  0.00    +0.000 C 
ATOM     38  C   UNL     1      -2.617   3.387 127.671  0.00  0.00    +0.000 C 
ATOM     39  C   UNL     1      -3.863   3.390 126.936  0.00  0.00    +0.000 A 
ATOM     40  N   UNL     1      -4.195   2.200 126.520  0.00  0.00    +0.000 NA
ATOM     41  C   UNL     1      -5.262   2.408 125.821  0.00  0.00    +0.000 A 
ATOM     42  C   UNL     1      -6.038   3.835 125.523  0.00  0.00    +0.000 A 
ATOM     43  C   UNL     1      -5.629   4.990 126.054  0.00  0.00    +0.000 A 
ATOM     44  C   UNL     1      -4.517   4.699 126.801  0.00  0.00    +0.000 A 
ENDBRANCH  33  36
ENDBRANCH  29  30
ENDBRANCH   3  29
TORSDOF 6
ENDMDL
MODEL 8
REMARK VINA RESULT:     -11.0      3.583      4.412
REMARK  Name = CHEMBL308460
REMARK  7 active torsions:
REMARK  status: ('A' for Active; 'I' for Inactive)
REMARK    1  A    between atoms: C_1  and  O_2
REMARK    2  A    between atoms: O_2  and  C_3
REMARK    3  A    between atoms: C_5  and  O_6
REMARK    4  A    between atoms: O_6  and  C_7
REMARK    5  A    between atoms: N_10  and  C_11
REMARK    6  A    between atoms: C_25  and  C_26
REMARK    7  A    between atoms: C_31  and  N_32
REMARK                            x       y       z     vdW  Elec       q    Type
REMARK                         _______ _______ _______ _____ _____    ______ ____
ROOT
ATOM      1  C   UNL     1      -6.105  -2.151 128.653  0.00  0.00    +0.000 A 
ATOM      2  C   UNL     1      -6.114  -2.230 127.114  0.00  0.00    +0.000 A 
ATOM      3  C   UNL     1      -7.244  -2.470 126.363  0.00  0.00    +0.000 A 
ATOM      4  C   UNL     1      -8.100  -2.863 127.252  0.00  0.00    +0.000 A 
ATOM      5  F   UNL     1      -9.325  -2.876 126.916  0.00  0.00    +0.000 F 
ATOM      6  C   UNL     1      -7.997  -2.939 128.602  0.00  0.00    +0.000 A 
ATOM      7  C   UNL     1      -7.180  -2.245 129.446  0.00  0.00    +0.000 A 
ENDROOT
BRANCH   7   8
ATOM      8  C   UNL     1      -7.473  -1.752 131.170  0.00  0.00    +0.000 C 
ATOM      9  O   UNL     1      -7.840  -2.294 132.229  0.00  0.00    +0.000 OA
ATOM     10  N   UNL     1      -7.121  -0.493 131.399  0.00  0.00    +0.000 N 
ATOM     11  C   UNL     1      -5.943  -0.046 132.102  0.00  0.00    +0.000 C 
ATOM     12  C   UNL     1      -6.289   0.926 133.231  0.00  0.00    +0.000 C 
ATOM     13  C   UNL     1      -7.362   2.293 132.707  0.00  0.00    +0.000 C 
ATOM     14  C   UNL     1      -8.627   1.206 132.296  0.00  0.00    +0.000 C 
ATOM     15  C   UNL     1      -8.218   0.332 131.157  0.00  0.00    +0.000 C 
BRANCH  13  16
ATOM     16  N   UNL     1      -6.893   4.010 132.132  0.00  0.00    +0.000 N 
ATOM     17  C   UNL     1      -6.761   4.097 133.620  0.00  0.00    +0.000 C 
ATOM     18  O   UNL     1      -7.504   3.860 134.470  0.00  0.00    +0.000 OA
ATOM     19  O   UNL     1      -5.473   4.413 133.946  0.00  0.00    +0.000 OA
ATOM     20  C   UNL     1      -5.695   5.752 134.186  0.00  0.00    +0.000 C 
ATOM     21  C   UNL     1      -5.207   6.100 132.870  0.00  0.00    +0.000 A 
ATOM     22  C   UNL     1      -3.906   6.762 132.793  0.00  0.00    +0.000 A 
ATOM     23  C   UNL     1      -3.373   7.381 131.690  0.00  0.00    +0.000 A 
ATOM     24  C   UNL     1      -4.384   7.747 130.856  0.00  0.00    +0.000 A 
ATOM     25  C   UNL     1      -5.743   6.883 130.893  0.00  0.00    +0.000 A 
ATOM     26  C   UNL     1      -6.022   5.628 131.848  0.00  0.00    +0.000 A 
ENDBRANCH  13  16
ENDBRANCH   7   8
BRANCH   1  28
ATOM     27  C   UNL     1      -4.281  -3.269 128.865  0.00  0.00    +0.000 C 
ATOM     28  O   UNL     1      -4.977  -2.178 129.385  0.00  0.00    +0.000 OA
ENDBRANCH   1  28
BRANCH   3  29
ATOM     29  O   UNL     1      -7.625  -2.476 125.060  0.00  0.00    +0.000 OA
BRANCH  29  30
ATOM     30  C   UNL     1      -8.003  -1.219 124.240  0.00  0.00    +0.000 C 
ATOM     31  C   UNL     1      -6.851  -0.262 123.800  0.00  0.00    +0.000 C 
ATOM     32  C   UNL     1      -6.593   0.863 124.808  0.00  0.00    +0.000 C 
ATOM     33  N   UNL     1      -7.833   1.634 125.313  0.00  0.00    +0.000 NA
ATOM     34  C   UNL     1      -9.092   0.813 125.596  0.00  0.00    +0.000 C 
ATOM     35  C   UNL     1      -9.278  -0.367 124.600  0.00  0.00    +0.000 C 
BRANCH  33  36
ATOM     36  C   UNL     1      -7.488   2.589 126.424  0.00  0.00    +0.000 C 
ATOM     37  C   UNL     1      -7.570   2.056 127.890  0.00  0.00    +0.000 C 
ATOM     38  C   UNL     1      -6.225   1.759 128.526  0.00  0.00    +0.000 C 
ATOM     39  C   UNL     1      -5.390   2.441 127.561  0.00  0.00    +0.000 A 
ATOM     40  N   UNL     1      -4.122   2.339 127.845  0.00  0.00    +0.000 NA
ATOM     41  C   UNL     1      -3.550   3.071 126.947  0.00  0.00    +0.000 A 
ATOM     42  C   UNL     1      -4.244   3.929 125.718  0.00  0.00    +0.000 A 
ATOM     43  C   UNL     1      -5.560   3.911 125.496  0.00  0.00    +0.000 A 
ATOM     44  C   UNL     1      -6.104   3.102 126.459  0.00  0.00    +0.000 A 
ENDBRANCH  33  36
ENDBRANCH  29  30
ENDBRANCH   3  29
TORSDOF 6
ENDMDL
MODEL 9
REMARK VINA RESULT:     -10.7      5.651      7.963
REMARK  Name = CHEMBL308460
REMARK  7 active torsions:
REMARK  status: ('A' for Active; 'I' for Inactive)
REMARK    1  A    between atoms: C_1  and  O_2
REMARK    2  A    between atoms: O_2  and  C_3
REMARK    3  A    between atoms: C_5  and  O_6
REMARK    4  A    between atoms: O_6  and  C_7
REMARK    5  A    between atoms: N_10  and  C_11
REMARK    6  A    between atoms: C_25  and  C_26
REMARK    7  A    between atoms: C_31  and  N_32
REMARK                            x       y       z     vdW  Elec       q    Type
REMARK                         _______ _______ _______ _____ _____    ______ ____
ROOT
ATOM      1  C   UNL     1      -6.598   4.409 128.548  0.00  0.00    +0.000 A 
ATOM      2  C   UNL     1      -7.287   4.205 127.185  0.00  0.00    +0.000 A 
ATOM      3  C   UNL     1      -6.620   3.855 126.031  0.00  0.00    +0.000 A 
ATOM      4  C   UNL     1      -5.379   4.038 126.351  0.00  0.00    +0.000 A 
ATOM      5  F   UNL     1      -4.499   3.518 125.596  0.00  0.00    +0.000 F 
ATOM      6  C   UNL     1      -4.815   4.384 127.536  0.00  0.00    +0.000 A 
ATOM      7  C   UNL     1      -5.296   4.219 128.801  0.00  0.00    +0.000 A 
ENDROOT
BRANCH   7   8
ATOM      8  C   UNL     1      -4.377   3.964 130.348  0.00  0.00    +0.000 C 
ATOM      9  O   UNL     1      -4.107   3.016 131.109  0.00  0.00    +0.000 OA
ATOM     10  N   UNL     1      -3.739   5.059 130.739  0.00  0.00    +0.000 N 
ATOM     11  C   UNL     1      -2.320   5.308 130.640  0.00  0.00    +0.000 C 
ATOM     12  C   UNL     1      -1.721   5.720 131.986  0.00  0.00    +0.000 C 
ATOM     13  C   UNL     1      -2.621   7.069 132.798  0.00  0.00    +0.000 C 
ATOM     14  C   UNL     1      -4.042   6.112 132.921  0.00  0.00    +0.000 C 
ATOM     15  C   UNL     1      -4.583   5.801 131.564  0.00  0.00    +0.000 C 
BRANCH  13  16
ATOM     16  N   UNL     1      -2.303   8.912 132.731  0.00  0.00    +0.000 N 
ATOM     17  C   UNL     1      -1.421   8.450 133.848  0.00  0.00    +0.000 C 
ATOM     18  O   UNL     1      -1.648   7.849 134.806  0.00  0.00    +0.000 OA
ATOM     19  O   UNL     1      -0.119   8.735 133.549  0.00  0.00    +0.000 OA
ATOM     20  C   UNL     1      -0.020   9.863 134.334  0.00  0.00    +0.000 C 
ATOM     21  C   UNL     1      -0.233  10.718 133.187  0.00  0.00    +0.000 A 
ATOM     22  C   UNL     1       0.917  11.473 132.693  0.00  0.00    +0.000 A 
ATOM     23  C   UNL     1       0.884  12.503 131.786  0.00  0.00    +0.000 A 
ATOM     24  C   UNL     1      -0.357  13.061 131.795  0.00  0.00    +0.000 A 
ATOM     25  C   UNL     1      -1.601  12.129 132.214  0.00  0.00    +0.000 A 
ATOM     26  C   UNL     1      -1.506  10.589 132.645  0.00  0.00    +0.000 A 
ENDBRANCH  13  16
ENDBRANCH   7   8
BRANCH   1  28
ATOM     27  C   UNL     1      -8.257   4.135 129.888  0.00  0.00    +0.000 C 
ATOM     28  O   UNL     1      -7.200   4.997 129.597  0.00  0.00    +0.000 OA
ENDBRANCH   1  28
BRANCH   3  29
ATOM     29  O   UNL     1      -6.906   3.484 124.757  0.00  0.00    +0.000 OA
BRANCH  29  30
ATOM     30  C   UNL     1      -7.983   2.449 124.354  0.00  0.00    +0.000 C 
ATOM     31  C   UNL     1      -8.743   1.706 125.497  0.00  0.00    +0.000 C 
ATOM     32  C   UNL     1      -8.076   0.384 125.894  0.00  0.00    +0.000 C 
ATOM     33  N   UNL     1      -7.683  -0.565 124.740  0.00  0.00    +0.000 NA
ATOM     34  C   UNL     1      -7.100   0.080 123.481  0.00  0.00    +0.000 C 
ATOM     35  C   UNL     1      -7.747   1.455 123.154  0.00  0.00    +0.000 C 
BRANCH  33  36
ATOM     36  C   UNL     1      -6.882  -1.742 125.227  0.00  0.00    +0.000 C 
ATOM     37  C   UNL     1      -5.512  -1.450 125.920  0.00  0.00    +0.000 C 
ATOM     38  C   UNL     1      -5.531  -1.590 127.430  0.00  0.00    +0.000 C 
ATOM     39  C   UNL     1      -6.793  -2.286 127.553  0.00  0.00    +0.000 A 
ATOM     40  N   UNL     1      -7.100  -2.538 128.795  0.00  0.00    +0.000 NA
ATOM     41  C   UNL     1      -8.188  -3.229 128.706  0.00  0.00    +0.000 A 
ATOM     42  C   UNL     1      -9.012  -3.685 127.349  0.00  0.00    +0.000 A 
ATOM     43  C   UNL     1      -8.624  -3.317 126.126  0.00  0.00    +0.000 A 
ATOM     44  C   UNL     1      -7.488  -2.570 126.289  0.00  0.00    +0.000 A 
ENDBRANCH  33  36
ENDBRANCH  29  30
ENDBRANCH   3  29
TORSDOF 6
ENDMDL
