MODEL 1
REMARK VINA RESULT:      -8.3      0.000      0.000
REMARK  Name = CHEMBL2035016
REMARK  14 active torsions:
REMARK  status: ('A' for Active; 'I' for Inactive)
REMARK    1  A    between atoms: C_1  and  O_2
REMARK    2  A    between atoms: O_2  and  C_3
REMARK    3  A    between atoms: C_3  and  C_5
REMARK    4  A    between atoms: C_10  and  C_11
REMARK    5  A    between atoms: C_11  and  C_12
REMARK    6  A    between atoms: C_11  and  N_18
REMARK    7  A    between atoms: N_14  and  C_15
REMARK    8  A    between atoms: C_15  and  C_16
REMARK    9  A    between atoms: C_15  and  C_17
REMARK   10  A    between atoms: C_21  and  C_22
REMARK   11  A    between atoms: CA_34  and  CB_35
REMARK   12  A    between atoms: CB_35  and  CG_36
REMARK   13  A    between atoms: CG_36  and  CD1_37
REMARK   14  A    between atoms: CG_36  and  CD2_38
REMARK                            x       y       z     vdW  Elec       q    Type
REMARK                         _______ _______ _______ _____ _____    ______ ____
ROOT
ATOM      1  N   LEU A   1      -6.241   4.779 132.197  0.00  0.00    +0.000 N 
ATOM      2  C   UNK A   2      -7.380   4.957 131.359  0.00  0.00    +0.000 C 
ATOM      3  O   UNK A   2      -7.401   4.539 130.202  0.00  0.00    +0.000 OA
ATOM      4  C   UNK A   2      -8.450   5.946 131.888  0.00  0.00    +0.000 C 
ATOM      5  N   UNK A   2      -8.633   5.726 133.300  0.00  0.00    +0.000 N 
ATOM      6  C   LEU A   1      -7.591   5.568 134.177  0.00  0.00    +0.000 C 
ATOM      7  O   LEU A   1      -7.827   5.659 135.375  0.00  0.00    +0.000 OA
ATOM      8  CA  LEU A   1      -6.199   5.474 133.581  0.00  0.00    +0.000 C 
ATOM      9  H   UNK A   2      -9.486   5.989 133.774  0.00  0.00    +0.000 HD
ENDROOT
BRANCH   4  10
ATOM     10  C   UNK A   2      -9.691   6.152 131.041  0.00  0.00    +0.000 C 
ATOM     11  C   UNK A   2      -9.395   7.383 130.147  0.00  0.00    +0.000 C 
ATOM     12  C   UNK A   2     -10.681   7.580 129.474  0.00  0.00    +0.000 A 
ATOM     13  C   UNK A   2     -10.807   8.338 128.331  0.00  0.00    +0.000 A 
ATOM     14  C   UNK A   2     -12.012   8.298 127.687  0.00  0.00    +0.000 A 
ATOM     15  C   UNK A   2     -12.937   7.333 128.105  0.00  0.00    +0.000 A 
ATOM     16  C   UNK A   2     -12.781   6.607 129.332  0.00  0.00    +0.000 A 
ATOM     17  C   UNK A   2     -11.690   6.884 130.138  0.00  0.00    +0.000 A 
ATOM     18  C   UNK A   2     -11.103   6.558 131.533  0.00  0.00    +0.000 C 
ENDBRANCH   4  10
BRANCH   1  19
ATOM     19  C   UNK A   0      -5.055   4.120 131.502  0.00  0.00    +0.000 C 
BRANCH  19  25
ATOM     20  C   UNK A   0      -3.543   6.241 130.959  0.00  0.00    +0.000 A 
ATOM     21  C   UNK A   0      -2.232   6.754 131.101  0.00  0.00    +0.000 A 
ATOM     22  C   UNK A   0      -1.215   6.104 131.824  0.00  0.00    +0.000 A 
ATOM     23  C   UNK A   0      -1.468   4.911 132.458  0.00  0.00    +0.000 A 
ATOM     24  C   UNK A   0      -2.697   4.325 132.239  0.00  0.00    +0.000 A 
ATOM     25  C   UNK A   0      -3.774   4.965 131.534  0.00  0.00    +0.000 A 
BRANCH  20  26
ATOM     26  C   UNK A   0      -4.401   7.080 129.993  0.00  0.00    +0.000 C 
ATOM     27  O   UNK A   0      -5.386   7.650 130.443  0.00  0.00    +0.000 OA
BRANCH  26  29
ATOM     28  C   UNK A   0      -3.747   6.015 127.677  0.00  0.00    +0.000 C 
ATOM     29  O   UNK A   0      -4.059   7.125 128.673  0.00  0.00    +0.000 OA
ENDBRANCH  26  29
ENDBRANCH  20  26
ENDBRANCH  19  25
BRANCH  19  30
ATOM     30  C   UNK A   0      -4.611   2.650 131.814  0.00  0.00    +0.000 C 
ATOM     31  O   UNK A   0      -4.138   1.922 130.928  0.00  0.00    +0.000 OA
ATOM     32  N   UNK A   0      -4.698   1.864 132.903  0.00  0.00    +0.000 N 
ATOM     33  H   UNK A   0      -4.899   2.216 133.821  0.00  0.00    +0.000 HD
BRANCH  32  34
ATOM     34  C   UNK A   0      -4.139   0.492 132.750  0.00  0.00    +0.000 C 
ATOM     35  C   UNK A   0      -2.870   0.271 133.603  0.00  0.00    +0.000 C 
ATOM     36  C   UNK A   0      -5.148  -0.508 133.196  0.00  0.00    +0.000 C 
ENDBRANCH  32  34
ENDBRANCH  19  30
ENDBRANCH   1  19
BRANCH   8  37
ATOM     37  CB  LEU A   1      -5.172   4.932 134.518  0.00  0.00    +0.000 C 
BRANCH  37  38
ATOM     38  CG  LEU A   1      -4.050   5.325 135.469  0.00  0.00    +0.000 C 
ATOM     39  CD1 LEU A   1      -3.540   6.675 135.073  0.00  0.00    +0.000 C 
ATOM     40  CD2 LEU A   1      -4.586   5.526 136.913  0.00  0.00    +0.000 C 
ENDBRANCH  37  38
ENDBRANCH   8  37
TORSDOF 9
ENDMDL
MODEL 2
REMARK VINA RESULT:      -8.1      4.344      7.847
REMARK  Name = CHEMBL2035016
REMARK  14 active torsions:
REMARK  status: ('A' for Active; 'I' for Inactive)
REMARK    1  A    between atoms: C_1  and  O_2
REMARK    2  A    between atoms: O_2  and  C_3
REMARK    3  A    between atoms: C_3  and  C_5
REMARK    4  A    between atoms: C_10  and  C_11
REMARK    5  A    between atoms: C_11  and  C_12
REMARK    6  A    between atoms: C_11  and  N_18
REMARK    7  A    between atoms: N_14  and  C_15
REMARK    8  A    between atoms: C_15  and  C_16
REMARK    9  A    between atoms: C_15  and  C_17
REMARK   10  A    between atoms: C_21  and  C_22
REMARK   11  A    between atoms: CA_34  and  CB_35
REMARK   12  A    between atoms: CB_35  and  CG_36
REMARK   13  A    between atoms: CG_36  and  CD1_37
REMARK   14  A    between atoms: CG_36  and  CD2_38
REMARK                            x       y       z     vdW  Elec       q    Type
REMARK                         _______ _______ _______ _____ _____    ______ ____
ROOT
ATOM      1  N   LEU A   1      -7.805   3.941 129.300  0.00  0.00    +0.000 N 
ATOM      2  C   UNK A   2      -7.989   2.992 128.252  0.00  0.00    +0.000 C 
ATOM      3  O   UNK A   2      -9.061   2.410 128.089  0.00  0.00    +0.000 OA
ATOM      4  C   UNK A   2      -6.695   2.534 127.532  0.00  0.00    +0.000 C 
ATOM      5  N   UNK A   2      -5.849   3.680 127.315  0.00  0.00    +0.000 N 
ATOM      6  C   LEU A   1      -5.603   4.625 128.277  0.00  0.00    +0.000 C 
ATOM      7  O   LEU A   1      -4.673   5.400 128.097  0.00  0.00    +0.000 OA
ATOM      8  CA  LEU A   1      -6.391   4.512 129.569  0.00  0.00    +0.000 C 
ATOM      9  H   UNK A   2      -5.150   3.694 126.586  0.00  0.00    +0.000 HD
ENDROOT
BRANCH   4  10
ATOM     10  C   UNK A   2      -6.842   1.541 126.395  0.00  0.00    +0.000 C 
ATOM     11  C   UNK A   2      -5.732   0.480 126.611  0.00  0.00    +0.000 C 
ATOM     12  C   UNK A   2      -5.870  -0.344 125.408  0.00  0.00    +0.000 A 
ATOM     13  C   UNK A   2      -5.332  -1.610 125.316  0.00  0.00    +0.000 A 
ATOM     14  C   UNK A   2      -5.681  -2.356 124.226  0.00  0.00    +0.000 A 
ATOM     15  C   UNK A   2      -6.716  -1.874 123.415  0.00  0.00    +0.000 A 
ATOM     16  C   UNK A   2      -7.204  -0.529 123.521  0.00  0.00    +0.000 A 
ATOM     17  C   UNK A   2      -6.619   0.324 124.442  0.00  0.00    +0.000 A 
ATOM     18  C   UNK A   2      -6.617   1.807 124.885  0.00  0.00    +0.000 C 
ENDBRANCH   4  10
BRANCH   1  19
ATOM     19  C   UNK A   0      -9.007   4.084 130.226  0.00  0.00    +0.000 C 
BRANCH  19  25
ATOM     20  C   UNK A   0      -8.060   2.961 132.444  0.00  0.00    +0.000 A 
ATOM     21  C   UNK A   0      -7.899   3.176 133.833  0.00  0.00    +0.000 A 
ATOM     22  C   UNK A   0      -8.220   4.385 134.477  0.00  0.00    +0.000 A 
ATOM     23  C   UNK A   0      -8.702   5.449 133.755  0.00  0.00    +0.000 A 
ATOM     24  C   UNK A   0      -8.986   5.234 132.422  0.00  0.00    +0.000 A 
ATOM     25  C   UNK A   0      -8.648   4.028 131.717  0.00  0.00    +0.000 A 
BRANCH  20  26
ATOM     26  C   UNK A   0      -7.777   1.502 132.037  0.00  0.00    +0.000 C 
ATOM     27  O   UNK A   0      -8.368   0.613 132.632  0.00  0.00    +0.000 OA
BRANCH  26  29
ATOM     28  C   UNK A   0      -6.533  -0.014 130.281  0.00  0.00    +0.000 C 
ATOM     29  O   UNK A   0      -6.854   1.254 131.063  0.00  0.00    +0.000 OA
ENDBRANCH  26  29
ENDBRANCH  20  26
ENDBRANCH  19  25
BRANCH  19  30
ATOM     30  C   UNK A   0     -10.047   5.247 130.076  0.00  0.00    +0.000 C 
ATOM     31  O   UNK A   0      -9.706   6.361 129.649  0.00  0.00    +0.000 OA
ATOM     32  N   UNK A   0     -11.346   5.380 130.404  0.00  0.00    +0.000 N 
ATOM     33  H   UNK A   0     -11.938   4.604 130.631  0.00  0.00    +0.000 HD
BRANCH  32  34
ATOM     34  C   UNK A   0     -11.957   6.699 130.076  0.00  0.00    +0.000 C 
ATOM     35  C   UNK A   0     -13.000   6.602 128.942  0.00  0.00    +0.000 C 
ATOM     36  C   UNK A   0     -12.660   7.232 131.275  0.00  0.00    +0.000 C 
ENDBRANCH  32  34
ENDBRANCH  19  30
ENDBRANCH   1  19
BRANCH   8  37
ATOM     37  CB  LEU A   1      -6.368   5.749 130.403  0.00  0.00    +0.000 C 
BRANCH  37  38
ATOM     38  CG  LEU A   1      -5.670   6.426 131.574  0.00  0.00    +0.000 C 
ATOM     39  CD1 LEU A   1      -5.103   5.368 132.468  0.00  0.00    +0.000 C 
ATOM     40  CD2 LEU A   1      -4.429   7.229 131.096  0.00  0.00    +0.000 C 
ENDBRANCH  37  38
ENDBRANCH   8  37
TORSDOF 9
ENDMDL
MODEL 3
REMARK VINA RESULT:      -7.8      5.887      8.323
REMARK  Name = CHEMBL2035016
REMARK  14 active torsions:
REMARK  status: ('A' for Active; 'I' for Inactive)
REMARK    1  A    between atoms: C_1  and  O_2
REMARK    2  A    between atoms: O_2  and  C_3
REMARK    3  A    between atoms: C_3  and  C_5
REMARK    4  A    between atoms: C_10  and  C_11
REMARK    5  A    between atoms: C_11  and  C_12
REMARK    6  A    between atoms: C_11  and  N_18
REMARK    7  A    between atoms: N_14  and  C_15
REMARK    8  A    between atoms: C_15  and  C_16
REMARK    9  A    between atoms: C_15  and  C_17
REMARK   10  A    between atoms: C_21  and  C_22
REMARK   11  A    between atoms: CA_34  and  CB_35
REMARK   12  A    between atoms: CB_35  and  CG_36
REMARK   13  A    between atoms: CG_36  and  CD1_37
REMARK   14  A    between atoms: CG_36  and  CD2_38
REMARK                            x       y       z     vdW  Elec       q    Type
REMARK                         _______ _______ _______ _____ _____    ______ ____
ROOT
ATOM      1  N   LEU A   1      -6.995   0.218 126.985  0.00  0.00    +0.000 N 
ATOM      2  C   UNK A   2      -7.068   1.094 125.862  0.00  0.00    +0.000 C 
ATOM      3  O   UNK A   2      -6.625   2.241 125.909  0.00  0.00    +0.000 OA
ATOM      4  C   UNK A   2      -7.983   0.620 124.704  0.00  0.00    +0.000 C 
ATOM      5  N   UNK A   2      -7.780  -0.791 124.495  0.00  0.00    +0.000 N 
ATOM      6  C   LEU A   1      -7.721  -1.702 125.518  0.00  0.00    +0.000 C 
ATOM      7  O   LEU A   1      -7.819  -2.889 125.238  0.00  0.00    +0.000 OA
ATOM      8  CA  LEU A   1      -7.721  -1.149 126.931  0.00  0.00    +0.000 C 
ATOM      9  H   UNK A   2      -7.986  -1.233 123.610  0.00  0.00    +0.000 HD
ENDROOT
BRANCH   4  10
ATOM     10  C   UNK A   2      -8.076   1.508 123.478  0.00  0.00    +0.000 C 
ATOM     11  C   UNK A   2      -6.629   1.981 123.185  0.00  0.00    +0.000 C 
ATOM     12  C   UNK A   2      -6.840   2.923 122.084  0.00  0.00    +0.000 A 
ATOM     13  C   UNK A   2      -5.816   3.337 121.260  0.00  0.00    +0.000 A 
ATOM     14  C   UNK A   2      -6.160   4.066 120.157  0.00  0.00    +0.000 A 
ATOM     15  C   UNK A   2      -7.520   4.144 119.832  0.00  0.00    +0.000 A 
ATOM     16  C   UNK A   2      -8.548   3.745 120.749  0.00  0.00    +0.000 A 
ATOM     17  C   UNK A   2      -8.183   3.284 122.003  0.00  0.00    +0.000 A 
ATOM     18  C   UNK A   2      -8.793   2.876 123.365  0.00  0.00    +0.000 C 
ENDBRANCH   4  10
BRANCH   1  19
ATOM     19  C   UNK A   0      -6.415   0.862 128.239  0.00  0.00    +0.000 C 
BRANCH  19  25
ATOM     20  C   UNK A   0      -8.129   2.617 129.269  0.00  0.00    +0.000 A 
ATOM     21  C   UNK A   0      -9.031   2.810 130.342  0.00  0.00    +0.000 A 
ATOM     22  C   UNK A   0      -9.347   1.815 131.284  0.00  0.00    +0.000 A 
ATOM     23  C   UNK A   0      -8.785   0.565 131.187  0.00  0.00    +0.000 A 
ATOM     24  C   UNK A   0      -7.811   0.380 130.229  0.00  0.00    +0.000 A 
ATOM     25  C   UNK A   0      -7.479   1.357 129.228  0.00  0.00    +0.000 A 
BRANCH  20  26
ATOM     26  C   UNK A   0      -7.856   3.916 128.488  0.00  0.00    +0.000 C 
ATOM     27  O   UNK A   0      -8.624   4.218 127.585  0.00  0.00    +0.000 OA
BRANCH  26  29
ATOM     28  C   UNK A   0      -5.267   4.363 128.642  0.00  0.00    +0.000 C 
ATOM     29  O   UNK A   0      -6.754   4.657 128.800  0.00  0.00    +0.000 OA
ENDBRANCH  26  29
ENDBRANCH  20  26
ENDBRANCH  19  25
BRANCH  19  30
ATOM     30  C   UNK A   0      -5.309   0.165 129.104  0.00  0.00    +0.000 C 
ATOM     31  O   UNK A   0      -4.437   0.829 129.684  0.00  0.00    +0.000 OA
ATOM     32  N   UNK A   0      -4.985  -1.120 129.337  0.00  0.00    +0.000 N 
ATOM     33  H   UNK A   0      -5.594  -1.888 129.125  0.00  0.00    +0.000 HD
BRANCH  32  34
ATOM     34  C   UNK A   0      -3.823  -1.333 130.245  0.00  0.00    +0.000 C 
ATOM     35  C   UNK A   0      -4.255  -1.630 131.698  0.00  0.00    +0.000 C 
ATOM     36  C   UNK A   0      -3.033  -2.502 129.773  0.00  0.00    +0.000 C 
ENDBRANCH  32  34
ENDBRANCH  19  30
ENDBRANCH   1  19
BRANCH   8  37
ATOM     37  CB  LEU A   1      -7.280  -2.129 127.966  0.00  0.00    +0.000 C 
BRANCH  37  38
ATOM     38  CG  LEU A   1      -7.653  -3.429 128.663  0.00  0.00    +0.000 C 
ATOM     39  CD1 LEU A   1      -7.791  -3.162 130.130  0.00  0.00    +0.000 C 
ATOM     40  CD2 LEU A   1      -9.064  -3.911 128.228  0.00  0.00    +0.000 C 
ENDBRANCH  37  38
ENDBRANCH   8  37
TORSDOF 9
ENDMDL
MODEL 4
REMARK VINA RESULT:      -7.7      4.288      7.704
REMARK  Name = CHEMBL2035016
REMARK  14 active torsions:
REMARK  status: ('A' for Active; 'I' for Inactive)
REMARK    1  A    between atoms: C_1  and  O_2
REMARK    2  A    between atoms: O_2  and  C_3
REMARK    3  A    between atoms: C_3  and  C_5
REMARK    4  A    between atoms: C_10  and  C_11
REMARK    5  A    between atoms: C_11  and  C_12
REMARK    6  A    between atoms: C_11  and  N_18
REMARK    7  A    between atoms: N_14  and  C_15
REMARK    8  A    between atoms: C_15  and  C_16
REMARK    9  A    between atoms: C_15  and  C_17
REMARK   10  A    between atoms: C_21  and  C_22
REMARK   11  A    between atoms: CA_34  and  CB_35
REMARK   12  A    between atoms: CB_35  and  CG_36
REMARK   13  A    between atoms: CG_36  and  CD1_37
REMARK   14  A    between atoms: CG_36  and  CD2_38
REMARK                            x       y       z     vdW  Elec       q    Type
REMARK                         _______ _______ _______ _____ _____    ______ ____
ROOT
ATOM      1  N   LEU A   1      -7.496   3.384 129.545  0.00  0.00    +0.000 N 
ATOM      2  C   UNK A   2      -7.414   2.250 128.686  0.00  0.00    +0.000 C 
ATOM      3  O   UNK A   2      -8.286   1.381 128.680  0.00  0.00    +0.000 OA
ATOM      4  C   UNK A   2      -6.045   2.036 127.991  0.00  0.00    +0.000 C 
ATOM      5  N   UNK A   2      -5.546   3.309 127.539  0.00  0.00    +0.000 N 
ATOM      6  C   LEU A   1      -5.567   4.442 128.310  0.00  0.00    +0.000 C 
ATOM      7  O   LEU A   1      -4.885   5.394 127.954  0.00  0.00    +0.000 OA
ATOM      8  CA  LEU A   1      -6.292   4.354 129.641  0.00  0.00    +0.000 C 
ATOM      9  H   UNK A   2      -4.879   3.381 126.784  0.00  0.00    +0.000 HD
ENDROOT
BRANCH   4  10
ATOM     10  C   UNK A   2      -5.916   0.854 127.050  0.00  0.00    +0.000 C 
ATOM     11  C   UNK A   2      -6.717   1.233 125.779  0.00  0.00    +0.000 C 
ATOM     12  C   UNK A   2      -6.644  -0.005 125.000  0.00  0.00    +0.000 A 
ATOM     13  C   UNK A   2      -6.914  -0.044 123.649  0.00  0.00    +0.000 A 
ATOM     14  C   UNK A   2      -6.633  -1.209 122.991  0.00  0.00    +0.000 A 
ATOM     15  C   UNK A   2      -5.898  -2.180 123.681  0.00  0.00    +0.000 A 
ATOM     16  C   UNK A   2      -5.690  -2.116 125.099  0.00  0.00    +0.000 A 
ATOM     17  C   UNK A   2      -6.251  -1.069 125.810  0.00  0.00    +0.000 A 
ATOM     18  C   UNK A   2      -6.478  -0.575 127.259  0.00  0.00    +0.000 C 
ENDBRANCH   4  10
BRANCH   1  19
ATOM     19  C   UNK A   0      -8.690   3.362 130.493  0.00  0.00    +0.000 C 
BRANCH  19  25
ATOM     20  C   UNK A   0      -7.501   2.718 132.784  0.00  0.00    +0.000 A 
ATOM     21  C   UNK A   0      -7.375   3.116 134.136  0.00  0.00    +0.000 A 
ATOM     22  C   UNK A   0      -7.940   4.294 134.658  0.00  0.00    +0.000 A 
ATOM     23  C   UNK A   0      -8.647   5.144 133.843  0.00  0.00    +0.000 A 
ATOM     24  C   UNK A   0      -8.892   4.727 132.552  0.00  0.00    +0.000 A 
ATOM     25  C   UNK A   0      -8.311   3.549 131.968  0.00  0.00    +0.000 A 
BRANCH  20  26
ATOM     26  C   UNK A   0      -6.916   1.317 132.525  0.00  0.00    +0.000 C 
ATOM     27  O   UNK A   0      -7.437   0.363 133.086  0.00  0.00    +0.000 OA
BRANCH  26  29
ATOM     28  C   UNK A   0      -4.514   1.976 131.674  0.00  0.00    +0.000 C 
ATOM     29  O   UNK A   0      -5.822   1.195 131.720  0.00  0.00    +0.000 OA
ENDBRANCH  26  29
ENDBRANCH  20  26
ENDBRANCH  19  25
BRANCH  19  30
ATOM     30  C   UNK A   0      -9.963   4.245 130.257  0.00  0.00    +0.000 C 
ATOM     31  O   UNK A   0     -11.087   3.733 130.151  0.00  0.00    +0.000 OA
ATOM     32  N   UNK A   0     -10.154   5.559 130.038  0.00  0.00    +0.000 N 
ATOM     33  H   UNK A   0      -9.453   6.254 130.211  0.00  0.00    +0.000 HD
BRANCH  32  34
ATOM     34  C   UNK A   0     -11.572   5.978 129.854  0.00  0.00    +0.000 C 
ATOM     35  C   UNK A   0     -12.124   6.750 131.073  0.00  0.00    +0.000 C 
ATOM     36  C   UNK A   0     -11.674   6.885 128.678  0.00  0.00    +0.000 C 
ENDBRANCH  32  34
ENDBRANCH  19  30
ENDBRANCH   1  19
BRANCH   8  37
ATOM     37  CB  LEU A   1      -6.608   5.680 130.249  0.00  0.00    +0.000 C 
BRANCH  37  38
ATOM     38  CG  LEU A   1      -6.093   6.743 131.207  0.00  0.00    +0.000 C 
ATOM     39  CD1 LEU A   1      -5.415   6.063 132.356  0.00  0.00    +0.000 C 
ATOM     40  CD2 LEU A   1      -4.971   7.593 130.550  0.00  0.00    +0.000 C 
ENDBRANCH  37  38
ENDBRANCH   8  37
TORSDOF 9
ENDMDL
MODEL 5
REMARK VINA RESULT:      -7.7      5.963      9.307
REMARK  Name = CHEMBL2035016
REMARK  14 active torsions:
REMARK  status: ('A' for Active; 'I' for Inactive)
REMARK    1  A    between atoms: C_1  and  O_2
REMARK    2  A    between atoms: O_2  and  C_3
REMARK    3  A    between atoms: C_3  and  C_5
REMARK    4  A    between atoms: C_10  and  C_11
REMARK    5  A    between atoms: C_11  and  C_12
REMARK    6  A    between atoms: C_11  and  N_18
REMARK    7  A    between atoms: N_14  and  C_15
REMARK    8  A    between atoms: C_15  and  C_16
REMARK    9  A    between atoms: C_15  and  C_17
REMARK   10  A    between atoms: C_21  and  C_22
REMARK   11  A    between atoms: CA_34  and  CB_35
REMARK   12  A    between atoms: CB_35  and  CG_36
REMARK   13  A    between atoms: CG_36  and  CD1_37
REMARK   14  A    between atoms: CG_36  and  CD2_38
REMARK                            x       y       z     vdW  Elec       q    Type
REMARK                         _______ _______ _______ _____ _____    ______ ____
ROOT
ATOM      1  N   LEU A   1      -7.204   1.014 126.942  0.00  0.00    +0.000 N 
ATOM      2  C   UNK A   2      -6.079   1.719 127.460  0.00  0.00    +0.000 C 
ATOM      3  O   UNK A   2      -5.198   1.147 128.101  0.00  0.00    +0.000 OA
ATOM      4  C   UNK A   2      -6.184   3.265 127.418  0.00  0.00    +0.000 C 
ATOM      5  N   UNK A   2      -6.754   3.662 126.156  0.00  0.00    +0.000 N 
ATOM      6  C   LEU A   1      -7.848   3.051 125.600  0.00  0.00    +0.000 C 
ATOM      7  O   LEU A   1      -8.419   3.619 124.679  0.00  0.00    +0.000 OA
ATOM      8  CA  LEU A   1      -8.367   1.807 126.296  0.00  0.00    +0.000 C 
ATOM      9  H   UNK A   2      -6.600   4.582 125.769  0.00  0.00    +0.000 HD
ENDROOT
BRANCH   4  10
ATOM     10  C   UNK A   2      -5.002   4.060 127.939  0.00  0.00    +0.000 C 
ATOM     11  C   UNK A   2      -5.498   4.766 129.226  0.00  0.00    +0.000 C 
ATOM     12  C   UNK A   2      -4.345   5.600 129.573  0.00  0.00    +0.000 A 
ATOM     13  C   UNK A   2      -4.180   6.147 130.827  0.00  0.00    +0.000 A 
ATOM     14  C   UNK A   2      -2.982   6.747 131.092  0.00  0.00    +0.000 A 
ATOM     15  C   UNK A   2      -1.949   6.567 130.163  0.00  0.00    +0.000 A 
ATOM     16  C   UNK A   2      -2.186   6.039 128.851  0.00  0.00    +0.000 A 
ATOM     17  C   UNK A   2      -3.481   5.714 128.485  0.00  0.00    +0.000 A 
ATOM     18  C   UNK A   2      -4.317   5.273 127.260  0.00  0.00    +0.000 C 
ENDBRANCH   4  10
BRANCH   1  19
ATOM     19  C   UNK A   0      -7.249  -0.459 127.333  0.00  0.00    +0.000 C 
BRANCH  19  25
ATOM     20  C   UNK A   0      -7.729  -2.477 125.669  0.00  0.00    +0.000 A 
ATOM     21  C   UNK A   0      -7.151  -3.234 124.622  0.00  0.00    +0.000 A 
ATOM     22  C   UNK A   0      -5.905  -2.936 124.041  0.00  0.00    +0.000 A 
ATOM     23  C   UNK A   0      -5.181  -1.851 124.471  0.00  0.00    +0.000 A 
ATOM     24  C   UNK A   0      -5.656  -1.166 125.570  0.00  0.00    +0.000 A 
ATOM     25  C   UNK A   0      -6.936  -1.416 126.175  0.00  0.00    +0.000 A 
BRANCH  20  26
ATOM     26  C   UNK A   0      -9.021  -3.117 126.212  0.00  0.00    +0.000 C 
ATOM     27  O   UNK A   0     -10.081  -2.814 125.682  0.00  0.00    +0.000 OA
BRANCH  26  29
ATOM     28  C   UNK A   0      -8.666  -3.691 128.756  0.00  0.00    +0.000 C 
ATOM     29  O   UNK A   0      -8.943  -3.960 127.282  0.00  0.00    +0.000 OA
ENDBRANCH  26  29
ENDBRANCH  20  26
ENDBRANCH  19  25
BRANCH  19  30
ATOM     30  C   UNK A   0      -6.477  -1.019 128.577  0.00  0.00    +0.000 C 
ATOM     31  O   UNK A   0      -6.898  -0.834 129.729  0.00  0.00    +0.000 OA
ATOM     32  N   UNK A   0      -5.299  -1.652 128.732  0.00  0.00    +0.000 N 
ATOM     33  H   UNK A   0      -4.797  -2.072 127.973  0.00  0.00    +0.000 HD
BRANCH  32  34
ATOM     34  C   UNK A   0      -4.942  -2.006 130.135  0.00  0.00    +0.000 C 
ATOM     35  C   UNK A   0      -4.934  -3.531 130.376  0.00  0.00    +0.000 C 
ATOM     36  C   UNK A   0      -3.574  -1.505 130.440  0.00  0.00    +0.000 C 
ENDBRANCH  32  34
ENDBRANCH  19  30
ENDBRANCH   1  19
BRANCH   8  37
ATOM     37  CB  LEU A   1      -9.292   0.985 125.461  0.00  0.00    +0.000 C 
BRANCH  37  38
ATOM     38  CG  LEU A   1      -9.456   0.326 124.099  0.00  0.00    +0.000 C 
ATOM     39  CD1 LEU A   1     -10.392   1.157 123.277  0.00  0.00    +0.000 C 
ATOM     40  CD2 LEU A   1      -8.123   0.349 123.302  0.00  0.00    +0.000 C 
ENDBRANCH  37  38
ENDBRANCH   8  37
TORSDOF 9
ENDMDL
MODEL 6
REMARK VINA RESULT:      -7.7      4.604      7.451
REMARK  Name = CHEMBL2035016
REMARK  14 active torsions:
REMARK  status: ('A' for Active; 'I' for Inactive)
REMARK    1  A    between atoms: C_1  and  O_2
REMARK    2  A    between atoms: O_2  and  C_3
REMARK    3  A    between atoms: C_3  and  C_5
REMARK    4  A    between atoms: C_10  and  C_11
REMARK    5  A    between atoms: C_11  and  C_12
REMARK    6  A    between atoms: C_11  and  N_18
REMARK    7  A    between atoms: N_14  and  C_15
REMARK    8  A    between atoms: C_15  and  C_16
REMARK    9  A    between atoms: C_15  and  C_17
REMARK   10  A    between atoms: C_21  and  C_22
REMARK   11  A    between atoms: CA_34  and  CB_35
REMARK   12  A    between atoms: CB_35  and  CG_36
REMARK   13  A    between atoms: CG_36  and  CD1_37
REMARK   14  A    between atoms: CG_36  and  CD2_38
REMARK                            x       y       z     vdW  Elec       q    Type
REMARK                         _______ _______ _______ _____ _____    ______ ____
ROOT
ATOM      1  N   LEU A   1      -6.051   2.345 128.810  0.00  0.00    +0.000 N 
ATOM      2  C   UNK A   2      -6.370   2.263 127.423  0.00  0.00    +0.000 C 
ATOM      3  O   UNK A   2      -7.046   1.341 126.969  0.00  0.00    +0.000 OA
ATOM      4  C   UNK A   2      -5.583   3.228 126.499  0.00  0.00    +0.000 C 
ATOM      5  N   UNK A   2      -5.494   4.517 127.136  0.00  0.00    +0.000 N 
ATOM      6  C   LEU A   1      -5.171   4.683 128.457  0.00  0.00    +0.000 C 
ATOM      7  O   LEU A   1      -4.856   5.802 128.838  0.00  0.00    +0.000 OA
ATOM      8  CA  LEU A   1      -5.055   3.425 129.299  0.00  0.00    +0.000 C 
ATOM      9  H   UNK A   2      -5.347   5.364 126.604  0.00  0.00    +0.000 HD
ENDROOT
BRANCH   4  10
ATOM     10  C   UNK A   2      -5.903   3.194 125.017  0.00  0.00    +0.000 C 
ATOM     11  C   UNK A   2      -4.978   4.249 124.358  0.00  0.00    +0.000 C 
ATOM     12  C   UNK A   2      -5.451   4.235 122.972  0.00  0.00    +0.000 A 
ATOM     13  C   UNK A   2      -4.707   4.754 121.934  0.00  0.00    +0.000 A 
ATOM     14  C   UNK A   2      -5.159   4.519 120.666  0.00  0.00    +0.000 A 
ATOM     15  C   UNK A   2      -6.200   3.596 120.511  0.00  0.00    +0.000 A 
ATOM     16  C   UNK A   2      -6.976   3.127 121.623  0.00  0.00    +0.000 A 
ATOM     17  C   UNK A   2      -6.696   3.617 122.887  0.00  0.00    +0.000 A 
ATOM     18  C   UNK A   2      -7.236   3.598 124.338  0.00  0.00    +0.000 C 
ENDBRANCH   4  10
BRANCH   1  19
ATOM     19  C   UNK A   0      -6.539   1.156 129.631  0.00  0.00    +0.000 C 
BRANCH  19  25
ATOM     20  C   UNK A   0      -8.274   0.807 131.616  0.00  0.00    +0.000 A 
ATOM     21  C   UNK A   0      -9.526   1.248 132.106  0.00  0.00    +0.000 A 
ATOM     22  C   UNK A   0     -10.261   2.301 131.532  0.00  0.00    +0.000 A 
ATOM     23  C   UNK A   0      -9.768   2.978 130.443  0.00  0.00    +0.000 A 
ATOM     24  C   UNK A   0      -8.612   2.495 129.867  0.00  0.00    +0.000 A 
ATOM     25  C   UNK A   0      -7.813   1.444 130.436  0.00  0.00    +0.000 A 
BRANCH  20  26
ATOM     26  C   UNK A   0      -7.771  -0.456 132.341  0.00  0.00    +0.000 C 
ATOM     27  O   UNK A   0      -7.933  -1.538 131.794  0.00  0.00    +0.000 OA
BRANCH  26  29
ATOM     28  C   UNK A   0      -5.743  -0.339 134.015  0.00  0.00    +0.000 C 
ATOM     29  O   UNK A   0      -7.202  -0.328 133.574  0.00  0.00    +0.000 OA
ENDBRANCH  26  29
ENDBRANCH  20  26
ENDBRANCH  19  25
BRANCH  19  30
ATOM     30  C   UNK A   0      -6.732  -0.269 129.008  0.00  0.00    +0.000 C 
ATOM     31  O   UNK A   0      -5.760  -0.998 128.763  0.00  0.00    +0.000 OA
ATOM     32  N   UNK A   0      -7.802  -0.945 128.548  0.00  0.00    +0.000 N 
ATOM     33  H   UNK A   0      -8.748  -0.677 128.745  0.00  0.00    +0.000 HD
BRANCH  32  34
ATOM     34  C   UNK A   0      -7.519  -2.309 128.022  0.00  0.00    +0.000 C 
ATOM     35  C   UNK A   0      -8.258  -3.413 128.810  0.00  0.00    +0.000 C 
ATOM     36  C   UNK A   0      -7.975  -2.400 126.607  0.00  0.00    +0.000 C 
ENDBRANCH  32  34
ENDBRANCH  19  30
ENDBRANCH   1  19
BRANCH   8  37
ATOM     37  CB  LEU A   1      -5.080   3.675 130.770  0.00  0.00    +0.000 C 
BRANCH  37  38
ATOM     38  CG  LEU A   1      -5.921   4.245 131.903  0.00  0.00    +0.000 C 
ATOM     39  CD1 LEU A   1      -5.889   3.284 133.051  0.00  0.00    +0.000 C 
ATOM     40  CD2 LEU A   1      -5.286   5.543 132.472  0.00  0.00    +0.000 C 
ENDBRANCH  37  38
ENDBRANCH   8  37
TORSDOF 9
ENDMDL
MODEL 7
REMARK VINA RESULT:      -7.7      3.654      4.933
REMARK  Name = CHEMBL2035016
REMARK  14 active torsions:
REMARK  status: ('A' for Active; 'I' for Inactive)
REMARK    1  A    between atoms: C_1  and  O_2
REMARK    2  A    between atoms: O_2  and  C_3
REMARK    3  A    between atoms: C_3  and  C_5
REMARK    4  A    between atoms: C_10  and  C_11
REMARK    5  A    between atoms: C_11  and  C_12
REMARK    6  A    between atoms: C_11  and  N_18
REMARK    7  A    between atoms: N_14  and  C_15
REMARK    8  A    between atoms: C_15  and  C_16
REMARK    9  A    between atoms: C_15  and  C_17
REMARK   10  A    between atoms: C_21  and  C_22
REMARK   11  A    between atoms: CA_34  and  CB_35
REMARK   12  A    between atoms: CB_35  and  CG_36
REMARK   13  A    between atoms: CG_36  and  CD1_37
REMARK   14  A    between atoms: CG_36  and  CD2_38
REMARK                            x       y       z     vdW  Elec       q    Type
REMARK                         _______ _______ _______ _____ _____    ______ ____
ROOT
ATOM      1  N   LEU A   1      -7.682   1.892 130.011  0.00  0.00    +0.000 N 
ATOM      2  C   UNK A   2      -8.703   2.866 129.806  0.00  0.00    +0.000 C 
ATOM      3  O   UNK A   2      -9.257   3.000 128.715  0.00  0.00    +0.000 OA
ATOM      4  C   UNK A   2      -8.860   3.917 130.934  0.00  0.00    +0.000 C 
ATOM      5  N   UNK A   2      -8.753   3.254 132.209  0.00  0.00    +0.000 N 
ATOM      6  C   LEU A   1      -7.787   2.324 132.494  0.00  0.00    +0.000 C 
ATOM      7  O   LEU A   1      -7.607   2.022 133.666  0.00  0.00    +0.000 OA
ATOM      8  CA  LEU A   1      -6.898   1.882 131.347  0.00  0.00    +0.000 C 
ATOM      9  H   UNK A   2      -9.156   3.647 133.048  0.00  0.00    +0.000 HD
ENDROOT
BRANCH   4  10
ATOM     10  C   UNK A   2      -9.948   4.961 130.772  0.00  0.00    +0.000 C 
ATOM     11  C   UNK A   2      -9.381   6.015 129.787  0.00  0.00    +0.000 C 
ATOM     12  C   UNK A   2     -10.435   7.032 129.799  0.00  0.00    +0.000 A 
ATOM     13  C   UNK A   2     -10.543   7.994 128.819  0.00  0.00    +0.000 A 
ATOM     14  C   UNK A   2     -11.668   8.770 128.830  0.00  0.00    +0.000 A 
ATOM     15  C   UNK A   2     -12.711   8.386 129.683  0.00  0.00    +0.000 A 
ATOM     16  C   UNK A   2     -12.528   7.413 130.721  0.00  0.00    +0.000 A 
ATOM     17  C   UNK A   2     -11.276   6.849 130.895  0.00  0.00    +0.000 A 
ATOM     18  C   UNK A   2     -10.489   5.926 131.856  0.00  0.00    +0.000 C 
ENDBRANCH   4  10
BRANCH   1  19
ATOM     19  C   UNK A   0      -7.295   1.124 128.753  0.00  0.00    +0.000 C 
BRANCH  19  25
ATOM     20  C   UNK A   0      -5.926   1.975 126.637  0.00  0.00    +0.000 A 
ATOM     21  C   UNK A   0      -4.659   2.465 126.239  0.00  0.00    +0.000 A 
ATOM     22  C   UNK A   0      -3.618   2.753 127.140  0.00  0.00    +0.000 A 
ATOM     23  C   UNK A   0      -3.801   2.582 128.490  0.00  0.00    +0.000 A 
ATOM     24  C   UNK A   0      -4.978   1.992 128.901  0.00  0.00    +0.000 A 
ATOM     25  C   UNK A   0      -6.079   1.709 128.021  0.00  0.00    +0.000 A 
BRANCH  20  26
ATOM     26  C   UNK A   0      -6.817   1.604 125.436  0.00  0.00    +0.000 C 
ATOM     27  O   UNK A   0      -6.835   0.437 125.071  0.00  0.00    +0.000 OA
BRANCH  26  29
ATOM     28  C   UNK A   0      -8.107   3.895 125.319  0.00  0.00    +0.000 C 
ATOM     29  O   UNK A   0      -7.516   2.589 124.802  0.00  0.00    +0.000 OA
ENDBRANCH  26  29
ENDBRANCH  20  26
ENDBRANCH  19  25
BRANCH  19  30
ATOM     30  C   UNK A   0      -7.096  -0.431 128.748  0.00  0.00    +0.000 C 
ATOM     31  O   UNK A   0      -6.216  -0.962 128.054  0.00  0.00    +0.000 OA
ATOM     32  N   UNK A   0      -7.765  -1.455 129.310  0.00  0.00    +0.000 N 
ATOM     33  H   UNK A   0      -8.434  -1.336 130.047  0.00  0.00    +0.000 HD
BRANCH  32  34
ATOM     34  C   UNK A   0      -7.214  -2.811 129.029  0.00  0.00    +0.000 C 
ATOM     35  C   UNK A   0      -6.700  -3.516 130.303  0.00  0.00    +0.000 C 
ATOM     36  C   UNK A   0      -8.284  -3.671 128.452  0.00  0.00    +0.000 C 
ENDBRANCH  32  34
ENDBRANCH  19  30
ENDBRANCH   1  19
BRANCH   8  37
ATOM     37  CB  LEU A   1      -6.141   0.625 131.614  0.00  0.00    +0.000 C 
BRANCH  37  38
ATOM     38  CG  LEU A   1      -4.826   0.074 132.146  0.00  0.00    +0.000 C 
ATOM     39  CD1 LEU A   1      -4.200  -0.776 131.085  0.00  0.00    +0.000 C 
ATOM     40  CD2 LEU A   1      -3.797   1.214 132.381  0.00  0.00    +0.000 C 
ENDBRANCH  37  38
ENDBRANCH   8  37
TORSDOF 9
ENDMDL
MODEL 8
REMARK VINA RESULT:      -7.7      4.677      6.156
REMARK  Name = CHEMBL2035016
REMARK  14 active torsions:
REMARK  status: ('A' for Active; 'I' for Inactive)
REMARK    1  A    between atoms: C_1  and  O_2
REMARK    2  A    between atoms: O_2  and  C_3
REMARK    3  A    between atoms: C_3  and  C_5
REMARK    4  A    between atoms: C_10  and  C_11
REMARK    5  A    between atoms: C_11  and  C_12
REMARK    6  A    between atoms: C_11  and  N_18
REMARK    7  A    between atoms: N_14  and  C_15
REMARK    8  A    between atoms: C_15  and  C_16
REMARK    9  A    between atoms: C_15  and  C_17
REMARK   10  A    between atoms: C_21  and  C_22
REMARK   11  A    between atoms: CA_34  and  CB_35
REMARK   12  A    between atoms: CB_35  and  CG_36
REMARK   13  A    between atoms: CG_36  and  CD1_37
REMARK   14  A    between atoms: CG_36  and  CD2_38
REMARK                            x       y       z     vdW  Elec       q    Type
REMARK                         _______ _______ _______ _____ _____    ______ ____
ROOT
ATOM      1  N   LEU A   1      -5.815   2.794 129.145  0.00  0.00    +0.000 N 
ATOM      2  C   UNK A   2      -5.963   1.755 128.180  0.00  0.00    +0.000 C 
ATOM      3  O   UNK A   2      -5.114   0.875 128.043  0.00  0.00    +0.000 OA
ATOM      4  C   UNK A   2      -7.090   1.968 127.138  0.00  0.00    +0.000 C 
ATOM      5  N   UNK A   2      -8.255   2.489 127.807  0.00  0.00    +0.000 N 
ATOM      6  C   LEU A   1      -8.200   3.502 128.730  0.00  0.00    +0.000 C 
ATOM      7  O   LEU A   1      -9.247   4.056 129.038  0.00  0.00    +0.000 OA
ATOM      8  CA  LEU A   1      -6.821   3.971 129.156  0.00  0.00    +0.000 C 
ATOM      9  H   UNK A   2      -9.183   2.380 127.424  0.00  0.00    +0.000 HD
ENDROOT
BRANCH   4  10
ATOM     10  C   UNK A   2      -7.301   0.879 126.103  0.00  0.00    +0.000 C 
ATOM     11  C   UNK A   2      -8.151  -0.212 126.802  0.00  0.00    +0.000 C 
ATOM     12  C   UNK A   2      -8.186  -1.262 125.781  0.00  0.00    +0.000 A 
ATOM     13  C   UNK A   2      -9.109  -2.286 125.807  0.00  0.00    +0.000 A 
ATOM     14  C   UNK A   2      -9.169  -3.097 124.709  0.00  0.00    +0.000 A 
ATOM     15  C   UNK A   2      -8.458  -2.699 123.570  0.00  0.00    +0.000 A 
ATOM     16  C   UNK A   2      -7.471  -1.659 123.612  0.00  0.00    +0.000 A 
ATOM     17  C   UNK A   2      -7.200  -1.043 124.822  0.00  0.00    +0.000 A 
ATOM     18  C   UNK A   2      -6.221  -0.036 125.474  0.00  0.00    +0.000 C 
ENDBRANCH   4  10
BRANCH   1  19
ATOM     19  C   UNK A   0      -4.492   2.755 129.901  0.00  0.00    +0.000 C 
BRANCH  19  25
ATOM     20  C   UNK A   0      -3.495   4.898 128.681  0.00  0.00    +0.000 A 
ATOM     21  C   UNK A   0      -2.648   6.014 128.881  0.00  0.00    +0.000 A 
ATOM     22  C   UNK A   0      -2.076   6.346 130.123  0.00  0.00    +0.000 A 
ATOM     23  C   UNK A   0      -2.340   5.583 131.234  0.00  0.00    +0.000 A 
ATOM     24  C   UNK A   0      -3.061   4.421 131.050  0.00  0.00    +0.000 A 
ATOM     25  C   UNK A   0      -3.688   4.059 129.808  0.00  0.00    +0.000 A 
BRANCH  20  26
ATOM     26  C   UNK A   0      -3.852   4.689 127.197  0.00  0.00    +0.000 C 
ATOM     27  O   UNK A   0      -4.807   5.303 126.742  0.00  0.00    +0.000 OA
BRANCH  26  29
ATOM     28  C   UNK A   0      -1.815   3.080 126.762  0.00  0.00    +0.000 C 
ATOM     29  O   UNK A   0      -3.122   3.804 126.460  0.00  0.00    +0.000 OA
ENDBRANCH  26  29
ENDBRANCH  20  26
ENDBRANCH  19  25
BRANCH  19  30
ATOM     30  C   UNK A   0      -4.394   2.292 131.396  0.00  0.00    +0.000 C 
ATOM     31  O   UNK A   0      -3.696   1.321 131.722  0.00  0.00    +0.000 OA
ATOM     32  N   UNK A   0      -5.009   2.678 132.530  0.00  0.00    +0.000 N 
ATOM     33  H   UNK A   0      -5.519   3.537 132.614  0.00  0.00    +0.000 HD
BRANCH  32  34
ATOM     34  C   UNK A   0      -4.606   1.939 133.759  0.00  0.00    +0.000 C 
ATOM     35  C   UNK A   0      -3.826   2.826 134.753  0.00  0.00    +0.000 C 
ATOM     36  C   UNK A   0      -5.823   1.453 134.466  0.00  0.00    +0.000 C 
ENDBRANCH  32  34
ENDBRANCH  19  30
ENDBRANCH   1  19
BRANCH   8  37
ATOM     37  CB  LEU A   1      -6.816   4.782 130.408  0.00  0.00    +0.000 C 
BRANCH  37  38
ATOM     38  CG  LEU A   1      -6.566   6.176 130.965  0.00  0.00    +0.000 C 
ATOM     39  CD1 LEU A   1      -7.876   6.893 131.062  0.00  0.00    +0.000 C 
ATOM     40  CD2 LEU A   1      -6.056   6.110 132.431  0.00  0.00    +0.000 C 
ENDBRANCH  37  38
ENDBRANCH   8  37
TORSDOF 9
ENDMDL
MODEL 9
REMARK VINA RESULT:      -7.6      3.010      3.981
REMARK  Name = CHEMBL2035016
REMARK  14 active torsions:
REMARK  status: ('A' for Active; 'I' for Inactive)
REMARK    1  A    between atoms: C_1  and  O_2
REMARK    2  A    between atoms: O_2  and  C_3
REMARK    3  A    between atoms: C_3  and  C_5
REMARK    4  A    between atoms: C_10  and  C_11
REMARK    5  A    between atoms: C_11  and  C_12
REMARK    6  A    between atoms: C_11  and  N_18
REMARK    7  A    between atoms: N_14  and  C_15
REMARK    8  A    between atoms: C_15  and  C_16
REMARK    9  A    between atoms: C_15  and  C_17
REMARK   10  A    between atoms: C_21  and  C_22
REMARK   11  A    between atoms: CA_34  and  CB_35
REMARK   12  A    between atoms: CB_35  and  CG_36
REMARK   13  A    between atoms: CG_36  and  CD1_37
REMARK   14  A    between atoms: CG_36  and  CD2_38
REMARK                            x       y       z     vdW  Elec       q    Type
REMARK                         _______ _______ _______ _____ _____    ______ ____
ROOT
ATOM      1  N   LEU A   1      -6.610   2.672 130.547  0.00  0.00    +0.000 N 
ATOM      2  C   UNK A   2      -7.806   3.379 130.227  0.00  0.00    +0.000 C 
ATOM      3  O   UNK A   2      -8.371   3.235 129.144  0.00  0.00    +0.000 OA
ATOM      4  C   UNK A   2      -8.176   4.535 131.191  0.00  0.00    +0.000 C 
ATOM      5  N   UNK A   2      -7.943   4.107 132.547  0.00  0.00    +0.000 N 
ATOM      6  C   LEU A   1      -6.811   3.442 132.941  0.00  0.00    +0.000 C 
ATOM      7  O   LEU A   1      -6.578   3.362 134.140  0.00  0.00    +0.000 OA
ATOM      8  CA  LEU A   1      -5.846   3.021 131.848  0.00  0.00    +0.000 C 
ATOM      9  H   UNK A   2      -8.420   4.532 133.329  0.00  0.00    +0.000 HD
ENDROOT
BRANCH   4  10
ATOM     10  C   UNK A   2      -9.452   5.303 130.904  0.00  0.00    +0.000 C 
ATOM     11  C   UNK A   2      -9.038   6.490 129.997  0.00  0.00    +0.000 C 
ATOM     12  C   UNK A   2     -10.295   7.235 129.888  0.00  0.00    +0.000 A 
ATOM     13  C   UNK A   2     -10.512   8.176 128.905  0.00  0.00    +0.000 A 
ATOM     14  C   UNK A   2     -11.781   8.669 128.785  0.00  0.00    +0.000 A 
ATOM     15  C   UNK A   2     -12.795   8.028 129.507  0.00  0.00    +0.000 A 
ATOM     16  C   UNK A   2     -12.511   7.092 130.557  0.00  0.00    +0.000 A 
ATOM     17  C   UNK A   2     -11.189   6.828 130.876  0.00  0.00    +0.000 A 
ATOM     18  C   UNK A   2     -10.324   6.083 131.921  0.00  0.00    +0.000 C 
ENDBRANCH   4  10
BRANCH   1  19
ATOM     19  C   UNK A   0      -6.070   1.817 129.407  0.00  0.00    +0.000 C 
BRANCH  19  25
ATOM     20  C   UNK A   0      -4.714   2.408 127.196  0.00  0.00    +0.000 A 
ATOM     21  C   UNK A   0      -3.580   3.114 126.727  0.00  0.00    +0.000 A 
ATOM     22  C   UNK A   0      -2.777   3.929 127.544  0.00  0.00    +0.000 A 
ATOM     23  C   UNK A   0      -3.080   4.093 128.874  0.00  0.00    +0.000 A 
ATOM     24  C   UNK A   0      -4.103   3.324 129.390  0.00  0.00    +0.000 A 
ATOM     25  C   UNK A   0      -4.968   2.503 128.588  0.00  0.00    +0.000 A 
BRANCH  20  26
ATOM     26  C   UNK A   0      -5.313   1.478 126.124  0.00  0.00    +0.000 C 
ATOM     27  O   UNK A   0      -6.049   1.970 125.281  0.00  0.00    +0.000 OA
BRANCH  26  29
ATOM     28  C   UNK A   0      -5.596  -1.032 125.385  0.00  0.00    +0.000 C 
ATOM     29  O   UNK A   0      -5.036   0.143 126.177  0.00  0.00    +0.000 OA
ENDBRANCH  26  29
ENDBRANCH  20  26
ENDBRANCH  19  25
BRANCH  19  30
ATOM     30  C   UNK A   0      -5.594   0.339 129.621  0.00  0.00    +0.000 C 
ATOM     31  O   UNK A   0      -6.245  -0.449 130.324  0.00  0.00    +0.000 OA
ATOM     32  N   UNK A   0      -4.493  -0.344 129.258  0.00  0.00    +0.000 N 
ATOM     33  H   UNK A   0      -3.852  -0.022 128.557  0.00  0.00    +0.000 HD
BRANCH  32  34
ATOM     34  C   UNK A   0      -4.450  -1.769 129.692  0.00  0.00    +0.000 C 
ATOM     35  C   UNK A   0      -4.571  -2.753 128.508  0.00  0.00    +0.000 C 
ATOM     36  C   UNK A   0      -3.149  -2.045 130.362  0.00  0.00    +0.000 C 
ENDBRANCH  32  34
ENDBRANCH  19  30
ENDBRANCH   1  19
BRANCH   8  37
ATOM     37  CB  LEU A   1      -4.852   1.995 132.279  0.00  0.00    +0.000 C 
BRANCH  37  38
ATOM     38  CG  LEU A   1      -3.475   1.805 132.899  0.00  0.00    +0.000 C 
ATOM     39  CD1 LEU A   1      -2.796   3.138 132.970  0.00  0.00    +0.000 C 
ATOM     40  CD2 LEU A   1      -3.587   1.353 134.381  0.00  0.00    +0.000 C 
ENDBRANCH  37  38
ENDBRANCH   8  37
TORSDOF 9
ENDMDL
