MODEL 1
REMARK VINA RESULT:      -8.1      0.000      0.000
REMARK  Name = CHEMBL592731
REMARK  7 active torsions:
REMARK  status: ('A' for Active; 'I' for Inactive)
REMARK    1  A    between atoms: C_1  and  O_2
REMARK    2  A    between atoms: O_2  and  C_3
REMARK    3  A    between atoms: C_6  and  N_7
REMARK    4  A    between atoms: C_8  and  C_9
REMARK    5  A    between atoms: C_16  and  O_17
REMARK    6  A    between atoms: O_17  and  C_18
REMARK    7  A    between atoms: C_23  and  C_24
REMARK                            x       y       z     vdW  Elec       q    Type
REMARK                         _______ _______ _______ _____ _____    ______ ____
ROOT
ATOM      1  N   UNL     1      -7.748   3.051 125.079  0.00  0.00    +0.000 N 
ATOM      2  C   UNL     1      -8.090   4.019 126.026  0.00  0.00    +0.000 A 
ATOM      3  C   UNL     1      -8.227   5.492 125.873  0.00  0.00    +0.000 C 
ATOM      4  N   UNL     1      -8.444   3.415 127.147  0.00  0.00    +0.000 NA
ATOM      5  N   UNL     1      -8.389   2.068 126.967  0.00  0.00    +0.000 NA
ATOM      6  C   UNL     1      -7.943   1.822 125.744  0.00  0.00    +0.000 A 
ATOM      7  N   UNL     1      -7.663   0.619 125.223  0.00  0.00    +0.000 N 
ATOM      8  C   UNL     1      -6.384   0.253 124.692  0.00  0.00    +0.000 C 
ATOM      9  C   UNL     1      -6.873  -0.618 123.563  0.00  0.00    +0.000 C 
ATOM     10  C   UNL     1      -7.884  -1.553 124.176  0.00  0.00    +0.000 C 
ATOM     11  C   UNL     1      -8.562  -0.554 125.193  0.00  0.00    +0.000 C 
ENDROOT
BRANCH   1  15
ATOM     12  C   UNL     1      -6.863   3.762 121.019  0.00  0.00    +0.000 A 
ATOM     13  C   UNL     1      -5.854   3.917 121.956  0.00  0.00    +0.000 A 
ATOM     14  C   UNL     1      -6.137   3.652 123.309  0.00  0.00    +0.000 A 
ATOM     15  C   UNL     1      -7.408   3.213 123.696  0.00  0.00    +0.000 A 
ATOM     16  C   UNL     1      -8.360   3.105 122.694  0.00  0.00    +0.000 A 
ATOM     17  N   UNL     1      -8.112   3.381 121.377  0.00  0.00    +0.000 NA
BRANCH  12  19
ATOM     18  C   UNL     1      -5.768   5.118 119.396  0.00  0.00    +0.000 C 
ATOM     19  O   UNL     1      -6.733   4.112 119.698  0.00  0.00    +0.000 OA
ENDBRANCH  12  19
ENDBRANCH   1  15
BRANCH  10  20
ATOM     20  O   UNL     1      -7.188  -2.668 124.821  0.00  0.00    +0.000 OA
BRANCH  20  21
ATOM     21  C   UNL     1      -7.483  -2.970 126.152  0.00  0.00    +0.000 A 
ATOM     22  C   UNL     1      -8.725  -3.605 126.372  0.00  0.00    +0.000 A 
ATOM     23  C   UNL     1      -9.209  -3.838 127.674  0.00  0.00    +0.000 A 
ATOM     24  C   UNL     1      -8.462  -3.457 128.780  0.00  0.00    +0.000 A 
ATOM     25  C   UNL     1      -7.257  -2.809 128.588  0.00  0.00    +0.000 A 
ATOM     26  C   UNL     1      -6.776  -2.502 127.300  0.00  0.00    +0.000 A 
ATOM     27  C   UNL     1      -5.522  -1.660 127.372  0.00  0.00    +0.000 C 
ENDBRANCH  20  21
ENDBRANCH  10  20
TORSDOF 4
ENDMDL
MODEL 2
REMARK VINA RESULT:      -8.1      3.668      6.060
REMARK  Name = CHEMBL592731
REMARK  7 active torsions:
REMARK  status: ('A' for Active; 'I' for Inactive)
REMARK    1  A    between atoms: C_1  and  O_2
REMARK    2  A    between atoms: O_2  and  C_3
REMARK    3  A    between atoms: C_6  and  N_7
REMARK    4  A    between atoms: C_8  and  C_9
REMARK    5  A    between atoms: C_16  and  O_17
REMARK    6  A    between atoms: O_17  and  C_18
REMARK    7  A    between atoms: C_23  and  C_24
REMARK                            x       y       z     vdW  Elec       q    Type
REMARK                         _______ _______ _______ _____ _____    ______ ____
ROOT
ATOM      1  N   UNL     1      -8.470   1.837 123.744  0.00  0.00    +0.000 N 
ATOM      2  C   UNL     1      -9.316   0.725 123.717  0.00  0.00    +0.000 A 
ATOM      3  C   UNL     1      -9.939   0.033 122.557  0.00  0.00    +0.000 C 
ATOM      4  N   UNL     1      -9.405   0.225 124.937  0.00  0.00    +0.000 NA
ATOM      5  N   UNL     1      -8.611   0.944 125.775  0.00  0.00    +0.000 NA
ATOM      6  C   UNL     1      -8.063   1.937 125.091  0.00  0.00    +0.000 A 
ATOM      7  N   UNL     1      -7.292   2.917 125.585  0.00  0.00    +0.000 N 
ATOM      8  C   UNL     1      -7.591   4.313 125.458  0.00  0.00    +0.000 C 
ATOM      9  C   UNL     1      -6.176   4.811 125.301  0.00  0.00    +0.000 C 
ATOM     10  C   UNL     1      -5.390   4.165 126.413  0.00  0.00    +0.000 C 
ATOM     11  C   UNL     1      -6.084   2.746 126.418  0.00  0.00    +0.000 C 
ENDROOT
BRANCH   1  15
ATOM     12  C   UNL     1      -6.995   3.968 120.419  0.00  0.00    +0.000 A 
ATOM     13  C   UNL     1      -8.366   3.883 120.598  0.00  0.00    +0.000 A 
ATOM     14  C   UNL     1      -8.863   3.197 121.724  0.00  0.00    +0.000 A 
ATOM     15  C   UNL     1      -7.985   2.636 122.658  0.00  0.00    +0.000 A 
ATOM     16  C   UNL     1      -6.631   2.754 122.387  0.00  0.00    +0.000 A 
ATOM     17  N   UNL     1      -6.128   3.394 121.288  0.00  0.00    +0.000 NA
BRANCH  12  19
ATOM     18  C   UNL     1      -5.346   5.429 119.516  0.00  0.00    +0.000 C 
ATOM     19  O   UNL     1      -6.407   4.501 119.299  0.00  0.00    +0.000 OA
ENDBRANCH  12  19
ENDBRANCH   1  15
BRANCH  10  20
ATOM     20  O   UNL     1      -5.588   4.921 127.652  0.00  0.00    +0.000 OA
BRANCH  20  21
ATOM     21  C   UNL     1      -4.470   5.340 128.374  0.00  0.00    +0.000 A 
ATOM     22  C   UNL     1      -3.737   6.403 127.802  0.00  0.00    +0.000 A 
ATOM     23  C   UNL     1      -2.512   6.830 128.352  0.00  0.00    +0.000 A 
ATOM     24  C   UNL     1      -2.000   6.216 129.486  0.00  0.00    +0.000 A 
ATOM     25  C   UNL     1      -2.686   5.156 130.046  0.00  0.00    +0.000 A 
ATOM     26  C   UNL     1      -3.879   4.662 129.483  0.00  0.00    +0.000 A 
ATOM     27  C   UNL     1      -4.341   3.409 130.192  0.00  0.00    +0.000 C 
ENDBRANCH  20  21
ENDBRANCH  10  20
TORSDOF 4
ENDMDL
MODEL 3
REMARK VINA RESULT:      -8.1      2.124      7.698
REMARK  Name = CHEMBL592731
REMARK  7 active torsions:
REMARK  status: ('A' for Active; 'I' for Inactive)
REMARK    1  A    between atoms: C_1  and  O_2
REMARK    2  A    between atoms: O_2  and  C_3
REMARK    3  A    between atoms: C_6  and  N_7
REMARK    4  A    between atoms: C_8  and  C_9
REMARK    5  A    between atoms: C_16  and  O_17
REMARK    6  A    between atoms: O_17  and  C_18
REMARK    7  A    between atoms: C_23  and  C_24
REMARK                            x       y       z     vdW  Elec       q    Type
REMARK                         _______ _______ _______ _____ _____    ______ ____
ROOT
ATOM      1  N   UNL     1      -7.785   2.766 127.499  0.00  0.00    +0.000 N 
ATOM      2  C   UNL     1      -8.120   3.570 128.591  0.00  0.00    +0.000 A 
ATOM      3  C   UNL     1      -8.047   3.272 130.047  0.00  0.00    +0.000 C 
ATOM      4  N   UNL     1      -8.407   4.785 128.158  0.00  0.00    +0.000 NA
ATOM      5  N   UNL     1      -8.236   4.831 126.809  0.00  0.00    +0.000 NA
ATOM      6  C   UNL     1      -7.894   3.624 126.384  0.00  0.00    +0.000 A 
ATOM      7  N   UNL     1      -7.728   3.245 125.108  0.00  0.00    +0.000 N 
ATOM      8  C   UNL     1      -8.450   2.172 124.491  0.00  0.00    +0.000 C 
ATOM      9  C   UNL     1      -7.338   1.656 123.613  0.00  0.00    +0.000 C 
ATOM     10  C   UNL     1      -6.772   2.867 122.916  0.00  0.00    +0.000 C 
ATOM     11  C   UNL     1      -6.872   3.906 124.101  0.00  0.00    +0.000 C 
ENDROOT
BRANCH   1  15
ATOM     12  C   UNL     1      -6.321  -1.182 127.692  0.00  0.00    +0.000 A 
ATOM     13  C   UNL     1      -7.690  -0.985 127.606  0.00  0.00    +0.000 A 
ATOM     14  C   UNL     1      -8.182   0.331 127.511  0.00  0.00    +0.000 A 
ATOM     15  C   UNL     1      -7.301   1.418 127.476  0.00  0.00    +0.000 A 
ATOM     16  C   UNL     1      -5.950   1.127 127.587  0.00  0.00    +0.000 A 
ATOM     17  N   UNL     1      -5.453  -0.142 127.705  0.00  0.00    +0.000 NA
BRANCH  12  19
ATOM     18  C   UNL     1      -4.579  -2.425 128.736  0.00  0.00    +0.000 C 
ATOM     19  O   UNL     1      -5.743  -2.407 127.912  0.00  0.00    +0.000 OA
ENDBRANCH  12  19
ENDBRANCH   1  15
BRANCH  10  20
ATOM     20  O   UNL     1      -7.612   3.204 121.766  0.00  0.00    +0.000 OA
BRANCH  20  21
ATOM     21  C   UNL     1      -7.039   3.873 120.683  0.00  0.00    +0.000 A 
ATOM     22  C   UNL     1      -5.722   4.343 120.884  0.00  0.00    +0.000 A 
ATOM     23  C   UNL     1      -5.078   5.154 119.928  0.00  0.00    +0.000 A 
ATOM     24  C   UNL     1      -5.726   5.500 118.751  0.00  0.00    +0.000 A 
ATOM     25  C   UNL     1      -7.025   5.074 118.545  0.00  0.00    +0.000 A 
ATOM     26  C   UNL     1      -7.720   4.318 119.510  0.00  0.00    +0.000 A 
ATOM     27  C   UNL     1      -9.163   4.116 119.110  0.00  0.00    +0.000 C 
ENDBRANCH  20  21
ENDBRANCH  10  20
TORSDOF 4
ENDMDL
MODEL 4
REMARK VINA RESULT:      -8.1      7.485     10.255
REMARK  Name = CHEMBL592731
REMARK  7 active torsions:
REMARK  status: ('A' for Active; 'I' for Inactive)
REMARK    1  A    between atoms: C_1  and  O_2
REMARK    2  A    between atoms: O_2  and  C_3
REMARK    3  A    between atoms: C_6  and  N_7
REMARK    4  A    between atoms: C_8  and  C_9
REMARK    5  A    between atoms: C_16  and  O_17
REMARK    6  A    between atoms: O_17  and  C_18
REMARK    7  A    between atoms: C_23  and  C_24
REMARK                            x       y       z     vdW  Elec       q    Type
REMARK                         _______ _______ _______ _____ _____    ______ ____
ROOT
ATOM      1  N   UNL     1      -7.578   3.686 131.881  0.00  0.00    +0.000 N 
ATOM      2  C   UNL     1      -7.317   2.469 132.514  0.00  0.00    +0.000 A 
ATOM      3  C   UNL     1      -6.016   1.804 132.796  0.00  0.00    +0.000 C 
ATOM      4  N   UNL     1      -8.448   1.988 133.002  0.00  0.00    +0.000 NA
ATOM      5  N   UNL     1      -9.454   2.869 132.750  0.00  0.00    +0.000 NA
ATOM      6  C   UNL     1      -8.965   3.882 132.051  0.00  0.00    +0.000 A 
ATOM      7  N   UNL     1      -9.661   4.903 131.533  0.00  0.00    +0.000 N 
ATOM      8  C   UNL     1      -9.674   5.240 130.140  0.00  0.00    +0.000 C 
ATOM      9  C   UNL     1      -9.743   6.739 130.293  0.00  0.00    +0.000 C 
ATOM     10  C   UNL     1     -10.851   6.997 131.283  0.00  0.00    +0.000 C 
ATOM     11  C   UNL     1     -10.600   5.783 132.260  0.00  0.00    +0.000 C 
ENDROOT
BRANCH   1  15
ATOM     12  C   UNL     1      -5.085   6.549 130.048  0.00  0.00    +0.000 A 
ATOM     13  C   UNL     1      -5.493   6.763 131.355  0.00  0.00    +0.000 A 
ATOM     14  C   UNL     1      -6.301   5.795 131.982  0.00  0.00    +0.000 A 
ATOM     15  C   UNL     1      -6.662   4.625 131.304  0.00  0.00    +0.000 A 
ATOM     16  C   UNL     1      -6.225   4.505 129.994  0.00  0.00    +0.000 A 
ATOM     17  N   UNL     1      -5.460   5.445 129.359  0.00  0.00    +0.000 NA
BRANCH  12  19
ATOM     18  C   UNL     1      -3.355   6.987 128.471  0.00  0.00    +0.000 C 
ATOM     19  O   UNL     1      -4.403   7.479 129.304  0.00  0.00    +0.000 OA
ENDBRANCH  12  19
ENDBRANCH   1  15
BRANCH  10  20
ATOM     20  O   UNL     1     -12.142   6.942 130.594  0.00  0.00    +0.000 OA
BRANCH  20  21
ATOM     21  C   UNL     1     -12.599   8.078 129.923  0.00  0.00    +0.000 A 
ATOM     22  C   UNL     1     -12.774   9.230 130.722  0.00  0.00    +0.000 A 
ATOM     23  C   UNL     1     -13.360  10.401 130.203  0.00  0.00    +0.000 A 
ATOM     24  C   UNL     1     -13.771  10.452 128.879  0.00  0.00    +0.000 A 
ATOM     25  C   UNL     1     -13.635   9.328 128.087  0.00  0.00    +0.000 A 
ATOM     26  C   UNL     1     -13.114   8.122 128.593  0.00  0.00    +0.000 A 
ATOM     27  C   UNL     1     -13.216   7.011 127.572  0.00  0.00    +0.000 C 
ENDBRANCH  20  21
ENDBRANCH  10  20
TORSDOF 4
ENDMDL
MODEL 5
REMARK VINA RESULT:      -7.9      2.399      7.971
REMARK  Name = CHEMBL592731
REMARK  7 active torsions:
REMARK  status: ('A' for Active; 'I' for Inactive)
REMARK    1  A    between atoms: C_1  and  O_2
REMARK    2  A    between atoms: O_2  and  C_3
REMARK    3  A    between atoms: C_6  and  N_7
REMARK    4  A    between atoms: C_8  and  C_9
REMARK    5  A    between atoms: C_16  and  O_17
REMARK    6  A    between atoms: O_17  and  C_18
REMARK    7  A    between atoms: C_23  and  C_24
REMARK                            x       y       z     vdW  Elec       q    Type
REMARK                         _______ _______ _______ _____ _____    ______ ____
ROOT
ATOM      1  N   UNL     1      -6.345  -2.069 124.546  0.00  0.00    +0.000 N 
ATOM      2  C   UNL     1      -5.643  -2.979 123.751  0.00  0.00    +0.000 A 
ATOM      3  C   UNL     1      -5.202  -4.366 124.059  0.00  0.00    +0.000 C 
ATOM      4  N   UNL     1      -5.520  -2.479 122.534  0.00  0.00    +0.000 NA
ATOM      5  N   UNL     1      -6.154  -1.277 122.477  0.00  0.00    +0.000 NA
ATOM      6  C   UNL     1      -6.630  -0.992 123.679  0.00  0.00    +0.000 A 
ATOM      7  N   UNL     1      -7.236   0.146 124.049  0.00  0.00    +0.000 N 
ATOM      8  C   UNL     1      -6.782   0.984 125.119  0.00  0.00    +0.000 C 
ATOM      9  C   UNL     1      -8.134   1.418 125.626  0.00  0.00    +0.000 C 
ATOM     10  C   UNL     1      -8.903   1.864 124.408  0.00  0.00    +0.000 C 
ATOM     11  C   UNL     1      -8.387   0.784 123.378  0.00  0.00    +0.000 C 
ENDROOT
BRANCH   1  15
ATOM     12  C   UNL     1      -7.701  -2.745 128.480  0.00  0.00    +0.000 A 
ATOM     13  C   UNL     1      -6.392  -2.331 128.290  0.00  0.00    +0.000 A 
ATOM     14  C   UNL     1      -5.943  -2.075 126.980  0.00  0.00    +0.000 A 
ATOM     15  C   UNL     1      -6.813  -2.210 125.892  0.00  0.00    +0.000 A 
ATOM     16  C   UNL     1      -8.098  -2.647 126.175  0.00  0.00    +0.000 A 
ATOM     17  N   UNL     1      -8.546  -2.925 127.437  0.00  0.00    +0.000 NA
BRANCH  12  19
ATOM     18  C   UNL     1      -7.442  -2.784 130.846  0.00  0.00    +0.000 C 
ATOM     19  O   UNL     1      -8.203  -3.139 129.694  0.00  0.00    +0.000 OA
ENDBRANCH  12  19
ENDBRANCH   1  15
BRANCH  10  20
ATOM     20  O   UNL     1      -8.518   3.235 124.065  0.00  0.00    +0.000 OA
BRANCH  20  21
ATOM     21  C   UNL     1      -7.557   3.440 123.073  0.00  0.00    +0.000 A 
ATOM     22  C   UNL     1      -6.277   3.821 123.534  0.00  0.00    +0.000 A 
ATOM     23  C   UNL     1      -5.256   4.194 122.638  0.00  0.00    +0.000 A 
ATOM     24  C   UNL     1      -5.485   4.183 121.269  0.00  0.00    +0.000 A 
ATOM     25  C   UNL     1      -6.738   3.840 120.797  0.00  0.00    +0.000 A 
ATOM     26  C   UNL     1      -7.799   3.525 121.669  0.00  0.00    +0.000 A 
ATOM     27  C   UNL     1      -9.093   3.340 120.910  0.00  0.00    +0.000 C 
ENDBRANCH  20  21
ENDBRANCH  10  20
TORSDOF 4
ENDMDL
MODEL 6
REMARK VINA RESULT:      -7.8      3.645      6.667
REMARK  Name = CHEMBL592731
REMARK  7 active torsions:
REMARK  status: ('A' for Active; 'I' for Inactive)
REMARK    1  A    between atoms: C_1  and  O_2
REMARK    2  A    between atoms: O_2  and  C_3
REMARK    3  A    between atoms: C_6  and  N_7
REMARK    4  A    between atoms: C_8  and  C_9
REMARK    5  A    between atoms: C_16  and  O_17
REMARK    6  A    between atoms: O_17  and  C_18
REMARK    7  A    between atoms: C_23  and  C_24
REMARK                            x       y       z     vdW  Elec       q    Type
REMARK                         _______ _______ _______ _____ _____    ______ ____
ROOT
ATOM      1  N   UNL     1      -6.386   3.112 123.072  0.00  0.00    +0.000 N 
ATOM      2  C   UNL     1      -6.053   3.809 121.908  0.00  0.00    +0.000 A 
ATOM      3  C   UNL     1      -6.567   3.645 120.522  0.00  0.00    +0.000 C 
ATOM      4  N   UNL     1      -5.257   4.816 122.225  0.00  0.00    +0.000 NA
ATOM      5  N   UNL     1      -5.079   4.839 123.573  0.00  0.00    +0.000 NA
ATOM      6  C   UNL     1      -5.719   3.807 124.103  0.00  0.00    +0.000 A 
ATOM      7  N   UNL     1      -5.705   3.435 125.391  0.00  0.00    +0.000 N 
ATOM      8  C   UNL     1      -5.290   2.141 125.846  0.00  0.00    +0.000 C 
ATOM      9  C   UNL     1      -6.273   1.999 126.981  0.00  0.00    +0.000 C 
ATOM     10  C   UNL     1      -6.189   3.288 127.758  0.00  0.00    +0.000 C 
ATOM     11  C   UNL     1      -6.006   4.294 126.555  0.00  0.00    +0.000 C 
ENDROOT
BRANCH   1  15
ATOM     12  C   UNL     1      -8.965  -0.137 123.825  0.00  0.00    +0.000 A 
ATOM     13  C   UNL     1      -9.450   1.150 123.995  0.00  0.00    +0.000 A 
ATOM     14  C   UNL     1      -8.601   2.239 123.716  0.00  0.00    +0.000 A 
ATOM     15  C   UNL     1      -7.300   2.023 123.249  0.00  0.00    +0.000 A 
ATOM     16  C   UNL     1      -6.894   0.703 123.128  0.00  0.00    +0.000 A 
ATOM     17  N   UNL     1      -7.695  -0.368 123.417  0.00  0.00    +0.000 NA
BRANCH  12  19
ATOM     18  C   UNL     1      -8.961  -2.503 124.091  0.00  0.00    +0.000 C 
ATOM     19  O   UNL     1      -9.661  -1.263 124.185  0.00  0.00    +0.000 OA
ENDBRANCH  12  19
ENDBRANCH   1  15
BRANCH  10  20
ATOM     20  O   UNL     1      -5.038   3.236 128.663  0.00  0.00    +0.000 OA
BRANCH  20  21
ATOM     21  C   UNL     1      -4.241   4.374 128.808  0.00  0.00    +0.000 A 
ATOM     22  C   UNL     1      -4.823   5.437 129.534  0.00  0.00    +0.000 A 
ATOM     23  C   UNL     1      -4.187   6.690 129.636  0.00  0.00    +0.000 A 
ATOM     24  C   UNL     1      -2.958   6.904 129.030  0.00  0.00    +0.000 A 
ATOM     25  C   UNL     1      -2.383   5.887 128.291  0.00  0.00    +0.000 A 
ATOM     26  C   UNL     1      -3.024   4.645 128.115  0.00  0.00    +0.000 A 
ATOM     27  C   UNL     1      -2.263   3.771 127.144  0.00  0.00    +0.000 C 
ENDBRANCH  20  21
ENDBRANCH  10  20
TORSDOF 4
ENDMDL
MODEL 7
REMARK VINA RESULT:      -7.7      3.498      5.556
REMARK  Name = CHEMBL592731
REMARK  7 active torsions:
REMARK  status: ('A' for Active; 'I' for Inactive)
REMARK    1  A    between atoms: C_1  and  O_2
REMARK    2  A    between atoms: O_2  and  C_3
REMARK    3  A    between atoms: C_6  and  N_7
REMARK    4  A    between atoms: C_8  and  C_9
REMARK    5  A    between atoms: C_16  and  O_17
REMARK    6  A    between atoms: O_17  and  C_18
REMARK    7  A    between atoms: C_23  and  C_24
REMARK                            x       y       z     vdW  Elec       q    Type
REMARK                         _______ _______ _______ _____ _____    ______ ____
ROOT
ATOM      1  N   UNL     1      -6.695   2.827 123.410  0.00  0.00    +0.000 N 
ATOM      2  C   UNL     1      -6.010   3.598 122.468  0.00  0.00    +0.000 A 
ATOM      3  C   UNL     1      -5.980   3.482 120.985  0.00  0.00    +0.000 C 
ATOM      4  N   UNL     1      -5.445   4.623 123.083  0.00  0.00    +0.000 NA
ATOM      5  N   UNL     1      -5.764   4.584 124.404  0.00  0.00    +0.000 NA
ATOM      6  C   UNL     1      -6.487   3.499 124.633  0.00  0.00    +0.000 A 
ATOM      7  N   UNL     1      -6.914   3.061 125.827  0.00  0.00    +0.000 N 
ATOM      8  C   UNL     1      -6.611   1.766 126.361  0.00  0.00    +0.000 C 
ATOM      9  C   UNL     1      -7.926   1.520 127.058  0.00  0.00    +0.000 C 
ATOM     10  C   UNL     1      -8.206   2.770 127.853  0.00  0.00    +0.000 C 
ATOM     11  C   UNL     1      -7.665   3.844 126.830  0.00  0.00    +0.000 C 
ENDROOT
BRANCH   1  15
ATOM     12  C   UNL     1      -9.178  -0.564 123.079  0.00  0.00    +0.000 A 
ATOM     13  C   UNL     1      -9.760   0.693 123.040  0.00  0.00    +0.000 A 
ATOM     14  C   UNL     1      -8.932   1.829 123.121  0.00  0.00    +0.000 A 
ATOM     15  C   UNL     1      -7.542   1.689 123.210  0.00  0.00    +0.000 A 
ATOM     16  C   UNL     1      -7.050   0.394 123.261  0.00  0.00    +0.000 A 
ATOM     17  N   UNL     1      -7.839  -0.722 123.210  0.00  0.00    +0.000 NA
BRANCH  12  19
ATOM     18  C   UNL     1      -9.203  -2.886 123.605  0.00  0.00    +0.000 C 
ATOM     19  O   UNL     1      -9.896  -1.732 123.133  0.00  0.00    +0.000 OA
ENDBRANCH  12  19
ENDBRANCH   1  15
BRANCH  10  20
ATOM     20  O   UNL     1      -7.457   2.725 129.111  0.00  0.00    +0.000 OA
BRANCH  20  21
ATOM     21  C   UNL     1      -8.158   2.598 130.311  0.00  0.00    +0.000 A 
ATOM     22  C   UNL     1      -8.372   3.800 131.022  0.00  0.00    +0.000 A 
ATOM     23  C   UNL     1      -8.941   3.798 132.311  0.00  0.00    +0.000 A 
ATOM     24  C   UNL     1      -9.316   2.605 132.911  0.00  0.00    +0.000 A 
ATOM     25  C   UNL     1      -9.090   1.415 132.246  0.00  0.00    +0.000 A 
ATOM     26  C   UNL     1      -8.464   1.377 130.984  0.00  0.00    +0.000 A 
ATOM     27  C   UNL     1      -8.196  -0.046 130.550  0.00  0.00    +0.000 C 
ENDBRANCH  20  21
ENDBRANCH  10  20
TORSDOF 4
ENDMDL
MODEL 8
REMARK VINA RESULT:      -7.6      4.434      7.888
REMARK  Name = CHEMBL592731
REMARK  7 active torsions:
REMARK  status: ('A' for Active; 'I' for Inactive)
REMARK    1  A    between atoms: C_1  and  O_2
REMARK    2  A    between atoms: O_2  and  C_3
REMARK    3  A    between atoms: C_6  and  N_7
REMARK    4  A    between atoms: C_8  and  C_9
REMARK    5  A    between atoms: C_16  and  O_17
REMARK    6  A    between atoms: O_17  and  C_18
REMARK    7  A    between atoms: C_23  and  C_24
REMARK                            x       y       z     vdW  Elec       q    Type
REMARK                         _______ _______ _______ _____ _____    ______ ____
ROOT
ATOM      1  N   UNL     1      -6.760   4.367 129.188  0.00  0.00    +0.000 N 
ATOM      2  C   UNL     1      -7.833   4.325 130.081  0.00  0.00    +0.000 A 
ATOM      3  C   UNL     1      -7.894   4.721 131.513  0.00  0.00    +0.000 C 
ATOM      4  N   UNL     1      -8.928   3.991 129.419  0.00  0.00    +0.000 NA
ATOM      5  N   UNL     1      -8.628   3.848 128.100  0.00  0.00    +0.000 NA
ATOM      6  C   UNL     1      -7.327   4.036 127.939  0.00  0.00    +0.000 A 
ATOM      7  N   UNL     1      -6.634   3.888 126.800  0.00  0.00    +0.000 N 
ATOM      8  C   UNL     1      -5.517   3.002 126.651  0.00  0.00    +0.000 C 
ATOM      9  C   UNL     1      -4.699   3.861 125.720  0.00  0.00    +0.000 C 
ATOM     10  C   UNL     1      -5.644   4.296 124.629  0.00  0.00    +0.000 C 
ATOM     11  C   UNL     1      -6.944   4.512 125.497  0.00  0.00    +0.000 C 
ENDROOT
BRANCH   1  15
ATOM     12  C   UNL     1      -2.864   5.726 130.053  0.00  0.00    +0.000 A 
ATOM     13  C   UNL     1      -3.219   4.441 130.431  0.00  0.00    +0.000 A 
ATOM     14  C   UNL     1      -4.509   3.972 130.118  0.00  0.00    +0.000 A 
ATOM     15  C   UNL     1      -5.407   4.781 129.412  0.00  0.00    +0.000 A 
ATOM     16  C   UNL     1      -4.973   6.059 129.092  0.00  0.00    +0.000 A 
ATOM     17  N   UNL     1      -3.733   6.542 129.409  0.00  0.00    +0.000 NA
BRANCH  12  19
ATOM     18  C   UNL     1      -1.668   6.997 131.673  0.00  0.00    +0.000 C 
ATOM     19  O   UNL     1      -1.684   6.326 130.415  0.00  0.00    +0.000 OA
ENDBRANCH  12  19
ENDBRANCH   1  15
BRANCH  10  20
ATOM     20  O   UNL     1      -5.769   3.226 123.637  0.00  0.00    +0.000 OA
BRANCH  20  21
ATOM     21  C   UNL     1      -6.074   3.560 122.317  0.00  0.00    +0.000 A 
ATOM     22  C   UNL     1      -5.063   4.253 121.614  0.00  0.00    +0.000 A 
ATOM     23  C   UNL     1      -5.290   4.772 120.324  0.00  0.00    +0.000 A 
ATOM     24  C   UNL     1      -6.520   4.601 119.705  0.00  0.00    +0.000 A 
ATOM     25  C   UNL     1      -7.532   3.951 120.385  0.00  0.00    +0.000 A 
ATOM     26  C   UNL     1      -7.359   3.478 121.701  0.00  0.00    +0.000 A 
ATOM     27  C   UNL     1      -8.657   2.949 122.267  0.00  0.00    +0.000 C 
ENDBRANCH  20  21
ENDBRANCH  10  20
TORSDOF 4
ENDMDL
MODEL 9
REMARK VINA RESULT:      -7.5      6.513      9.219
REMARK  Name = CHEMBL592731
REMARK  7 active torsions:
REMARK  status: ('A' for Active; 'I' for Inactive)
REMARK    1  A    between atoms: C_1  and  O_2
REMARK    2  A    between atoms: O_2  and  C_3
REMARK    3  A    between atoms: C_6  and  N_7
REMARK    4  A    between atoms: C_8  and  C_9
REMARK    5  A    between atoms: C_16  and  O_17
REMARK    6  A    between atoms: O_17  and  C_18
REMARK    7  A    between atoms: C_23  and  C_24
REMARK                            x       y       z     vdW  Elec       q    Type
REMARK                         _______ _______ _______ _____ _____    ______ ____
ROOT
ATOM      1  N   UNL     1      -6.081   2.193 132.003  0.00  0.00    +0.000 N 
ATOM      2  C   UNL     1      -5.930   1.282 133.052  0.00  0.00    +0.000 A 
ATOM      3  C   UNL     1      -4.705   0.599 133.549  0.00  0.00    +0.000 C 
ATOM      4  N   UNL     1      -7.076   1.183 133.702  0.00  0.00    +0.000 NA
ATOM      5  N   UNL     1      -7.981   2.034 133.146  0.00  0.00    +0.000 NA
ATOM      6  C   UNL     1      -7.419   2.628 132.105  0.00  0.00    +0.000 A 
ATOM      7  N   UNL     1      -8.018   3.464 131.244  0.00  0.00    +0.000 N 
ATOM      8  C   UNL     1      -8.081   3.247 129.829  0.00  0.00    +0.000 C 
ATOM      9  C   UNL     1      -7.955   4.686 129.396  0.00  0.00    +0.000 C 
ATOM     10  C   UNL     1      -8.955   5.451 130.226  0.00  0.00    +0.000 C 
ATOM     11  C   UNL     1      -8.791   4.674 131.591  0.00  0.00    +0.000 C 
ENDROOT
BRANCH   1  15
ATOM     12  C   UNL     1      -3.380   3.759 129.170  0.00  0.00    +0.000 A 
ATOM     13  C   UNL     1      -3.727   4.540 130.261  0.00  0.00    +0.000 A 
ATOM     14  C   UNL     1      -4.605   4.010 131.225  0.00  0.00    +0.000 A 
ATOM     15  C   UNL     1      -5.097   2.706 131.097  0.00  0.00    +0.000 A 
ATOM     16  C   UNL     1      -4.713   2.005 129.965  0.00  0.00    +0.000 A 
ATOM     17  N   UNL     1      -3.880   2.511 129.004  0.00  0.00    +0.000 NA
BRANCH  12  19
ATOM     18  C   UNL     1      -2.173   3.239 127.185  0.00  0.00    +0.000 C 
ATOM     19  O   UNL     1      -2.636   4.218 128.113  0.00  0.00    +0.000 OA
ENDBRANCH  12  19
ENDBRANCH   1  15
BRANCH  10  20
ATOM     20  O   UNL     1     -10.285   5.319 129.629  0.00  0.00    +0.000 OA
BRANCH  20  21
ATOM     21  C   UNL     1     -11.004   6.475 129.318  0.00  0.00    +0.000 A 
ATOM     22  C   UNL     1     -10.657   7.100 128.100  0.00  0.00    +0.000 A 
ATOM     23  C   UNL     1     -11.203   8.345 127.733  0.00  0.00    +0.000 A 
ATOM     24  C   UNL     1     -12.112   8.985 128.562  0.00  0.00    +0.000 A 
ATOM     25  C   UNL     1     -12.445   8.406 129.772  0.00  0.00    +0.000 A 
ATOM     26  C   UNL     1     -11.867   7.194 130.199  0.00  0.00    +0.000 A 
ATOM     27  C   UNL     1     -12.280   6.860 131.614  0.00  0.00    +0.000 C 
ENDBRANCH  20  21
ENDBRANCH  10  20
TORSDOF 4
ENDMDL
