MODEL 1
REMARK VINA RESULT:     -11.7      0.000      0.000
REMARK  Name = CHEMBL284442
REMARK  7 active torsions:
REMARK  status: ('A' for Active; 'I' for Inactive)
REMARK    1  A    between atoms: C_2  and  C_3
REMARK    2  A    between atoms: C_3  and  N_4
REMARK    3  A    between atoms: C_6  and  C_7
REMARK    4  A    between atoms: N_15  and  C_16
REMARK    5  A    between atoms: C_16  and  C_17
REMARK    6  A    between atoms: C_21  and  C_22
REMARK    7  A    between atoms: C_27  and  N_28
REMARK                            x       y       z     vdW  Elec       q    Type
REMARK                         _______ _______ _______ _____ _____    ______ ____
ROOT
ATOM      1  C   UNL     1      -7.289  -1.030 125.117  0.00  0.00    +0.000 A 
ATOM      2  C   UNL     1      -6.470  -0.208 125.859  0.00  0.00    +0.000 A 
ATOM      3  C   UNL     1      -6.719  -0.419 127.214  0.00  0.00    +0.000 A 
ATOM      4  C   UNL     1      -6.525   0.383 128.351  0.00  0.00    +0.000 A 
ATOM      5  C   UNL     1      -6.718  -0.113 129.639  0.00  0.00    +0.000 A 
ATOM      6  C   UNL     1      -7.066  -1.461 129.671  0.00  0.00    +0.000 A 
ATOM      7  N   UNL     1      -7.409  -2.298 128.571  0.00  0.00    +0.000 NA
ATOM      8  C   UNL     1      -7.285  -1.672 127.348  0.00  0.00    +0.000 A 
ATOM      9  O   UNL     1      -7.750  -2.039 126.013  0.00  0.00    +0.000 OA
ENDROOT
BRANCH   5  10
ATOM     10  C   UNL     1      -6.726   0.895 130.785  0.00  0.00    +0.000 C 
ATOM     11  O   UNL     1      -5.746   0.873 131.538  0.00  0.00    +0.000 OA
ATOM     12  N   UNL     1      -7.702   1.913 130.905  0.00  0.00    +0.000 N 
ATOM     13  C   UNL     1      -7.305   3.330 130.972  0.00  0.00    +0.000 C 
ATOM     14  C   UNL     1      -7.940   4.141 132.107  0.00  0.00    +0.000 C 
ATOM     15  C   UNL     1      -9.614   4.342 131.766  0.00  0.00    +0.000 C 
ATOM     16  C   UNL     1      -9.829   2.600 132.011  0.00  0.00    +0.000 C 
ATOM     17  C   UNL     1      -9.139   1.678 130.987  0.00  0.00    +0.000 C 
BRANCH  15  18
ATOM     18  N   UNL     1      -9.920   5.852 130.749  0.00  0.00    +0.000 N 
ATOM     19  C   UNL     1     -10.726   6.277 131.832  0.00  0.00    +0.000 C 
ATOM     20  O   UNL     1     -10.314   6.453 133.050  0.00  0.00    +0.000 OA
ATOM     21  O   UNL     1     -12.029   6.224 131.664  0.00  0.00    +0.000 OA
ATOM     22  C   UNL     1     -12.181   7.477 131.103  0.00  0.00    +0.000 C 
ATOM     23  C   UNL     1     -12.087   7.006 129.718  0.00  0.00    +0.000 A 
ATOM     24  C   UNL     1     -12.957   6.561 128.718  0.00  0.00    +0.000 A 
ATOM     25  C   UNL     1     -12.817   7.008 127.380  0.00  0.00    +0.000 A 
ATOM     26  C   UNL     1     -11.899   7.991 127.223  0.00  0.00    +0.000 A 
ATOM     27  C   UNL     1     -10.866   7.927 128.334  0.00  0.00    +0.000 A 
ATOM     28  C   UNL     1     -10.848   6.703 129.387  0.00  0.00    +0.000 A 
ENDBRANCH  15  18
ENDBRANCH   5  10
BRANCH   1  29
ATOM     29  C   UNL     1      -7.454  -0.768 123.593  0.00  0.00    +0.000 C 
BRANCH  29  32
ATOM     30  O   UNL     1     -10.666   0.455 122.439  0.00  0.00    +0.000 OA
ATOM     31  C   UNL     1      -9.668   0.414 123.165  0.00  0.00    +0.000 C 
ATOM     32  N   UNL     1      -8.704  -0.560 122.896  0.00  0.00    +0.000 N 
ATOM     33  H   UNL     1      -8.962  -1.191 122.150  0.00  0.00    +0.000 HD
BRANCH  31  34
ATOM     34  C   UNL     1      -9.485   1.444 124.317  0.00  0.00    +0.000 C 
BRANCH  34  35
ATOM     35  N   UNL     1      -8.411   2.436 124.058  0.00  0.00    +0.000 N 
ATOM     36  C   UNL     1      -7.904   2.608 122.773  0.00  0.00    +0.000 A 
ATOM     37  C   UNL     1      -6.787   3.325 122.541  0.00  0.00    +0.000 A 
ATOM     38  C   UNL     1      -6.202   4.085 123.632  0.00  0.00    +0.000 A 
ATOM     39  C   UNL     1      -6.769   4.078 124.845  0.00  0.00    +0.000 A 
ATOM     40  C   UNL     1      -7.873   3.122 125.149  0.00  0.00    +0.000 A 
ATOM     41  O   UNL     1      -8.220   2.958 126.315  0.00  0.00    +0.000 OA
BRANCH  37  42
ATOM     42  C   UNL     1      -6.102   3.395 121.204  0.00  0.00    +0.000 C 
ATOM     43  F   UNL     1      -5.512   2.222 120.861  0.00  0.00    +0.000 F 
ATOM     44  F   UNL     1      -6.984   3.694 120.214  0.00  0.00    +0.000 F 
ATOM     45  F   UNL     1      -5.138   4.351 121.163  0.00  0.00    +0.000 F 
ENDBRANCH  37  42
ENDBRANCH  34  35
ENDBRANCH  31  34
ENDBRANCH  29  32
ENDBRANCH   1  29
TORSDOF 7
ENDMDL
MODEL 2
REMARK VINA RESULT:     -11.3      4.438      9.346
REMARK  Name = CHEMBL284442
REMARK  7 active torsions:
REMARK  status: ('A' for Active; 'I' for Inactive)
REMARK    1  A    between atoms: C_2  and  C_3
REMARK    2  A    between atoms: C_3  and  N_4
REMARK    3  A    between atoms: C_6  and  C_7
REMARK    4  A    between atoms: N_15  and  C_16
REMARK    5  A    between atoms: C_16  and  C_17
REMARK    6  A    between atoms: C_21  and  C_22
REMARK    7  A    between atoms: C_27  and  N_28
REMARK                            x       y       z     vdW  Elec       q    Type
REMARK                         _______ _______ _______ _____ _____    ______ ____
ROOT
ATOM      1  C   UNL     1      -7.001  -2.074 132.951  0.00  0.00    +0.000 A 
ATOM      2  C   UNL     1      -6.173  -1.101 132.436  0.00  0.00    +0.000 A 
ATOM      3  C   UNL     1      -6.931  -0.211 131.678  0.00  0.00    +0.000 A 
ATOM      4  C   UNL     1      -6.601   0.660 130.627  0.00  0.00    +0.000 A 
ATOM      5  C   UNL     1      -7.521   1.575 130.118  0.00  0.00    +0.000 A 
ATOM      6  C   UNL     1      -8.746   1.560 130.779  0.00  0.00    +0.000 A 
ATOM      7  N   UNL     1      -9.198   0.626 131.753  0.00  0.00    +0.000 NA
ATOM      8  C   UNL     1      -8.240  -0.302 132.107  0.00  0.00    +0.000 A 
ATOM      9  O   UNL     1      -8.326  -1.557 132.850  0.00  0.00    +0.000 OA
ENDROOT
BRANCH   5  10
ATOM     10  C   UNL     1      -7.150   2.295 128.824  0.00  0.00    +0.000 C 
ATOM     11  O   UNL     1      -6.452   3.308 128.944  0.00  0.00    +0.000 OA
ATOM     12  N   UNL     1      -7.437   1.767 127.543  0.00  0.00    +0.000 N 
ATOM     13  C   UNL     1      -6.359   1.542 126.564  0.00  0.00    +0.000 C 
ATOM     14  C   UNL     1      -6.615   2.098 125.159  0.00  0.00    +0.000 C 
ATOM     15  C   UNL     1      -7.855   1.162 124.419  0.00  0.00    +0.000 C 
ATOM     16  C   UNL     1      -8.999   1.824 125.599  0.00  0.00    +0.000 C 
ATOM     17  C   UNL     1      -8.772   1.419 127.068  0.00  0.00    +0.000 C 
BRANCH  15  18
ATOM     18  N   UNL     1      -7.159  -0.297 123.527  0.00  0.00    +0.000 N 
ATOM     19  C   UNL     1      -8.426  -0.889 123.747  0.00  0.00    +0.000 C 
ATOM     20  O   UNL     1      -9.558  -0.417 123.324  0.00  0.00    +0.000 OA
ATOM     21  O   UNL     1      -8.497  -1.822 124.671  0.00  0.00    +0.000 OA
ATOM     22  C   UNL     1      -8.176  -2.892 123.859  0.00  0.00    +0.000 C 
ATOM     23  C   UNL     1      -6.741  -2.850 124.158  0.00  0.00    +0.000 A 
ATOM     24  C   UNL     1      -5.864  -3.418 125.087  0.00  0.00    +0.000 A 
ATOM     25  C   UNL     1      -4.609  -3.937 124.680  0.00  0.00    +0.000 A 
ATOM     26  C   UNL     1      -4.438  -3.969 123.336  0.00  0.00    +0.000 A 
ATOM     27  C   UNL     1      -5.315  -2.923 122.670  0.00  0.00    +0.000 A 
ATOM     28  C   UNL     1      -6.142  -1.848 123.546  0.00  0.00    +0.000 A 
ENDBRANCH  15  18
ENDBRANCH   5  10
BRANCH   1  29
ATOM     29  C   UNL     1      -6.378  -3.365 133.555  0.00  0.00    +0.000 C 
BRANCH  29  32
ATOM     30  O   UNL     1      -2.995  -4.530 132.967  0.00  0.00    +0.000 OA
ATOM     31  C   UNL     1      -4.201  -4.396 132.734  0.00  0.00    +0.000 C 
ATOM     32  N   UNL     1      -4.967  -3.667 133.645  0.00  0.00    +0.000 N 
ATOM     33  H   UNL     1      -4.450  -3.367 134.460  0.00  0.00    +0.000 HD
BRANCH  31  34
ATOM     34  C   UNL     1      -4.826  -4.999 131.442  0.00  0.00    +0.000 C 
BRANCH  34  35
ATOM     35  N   UNL     1      -5.172  -3.976 130.422  0.00  0.00    +0.000 N 
ATOM     36  C   UNL     1      -6.486  -3.829 129.986  0.00  0.00    +0.000 A 
ATOM     37  C   UNL     1      -6.798  -3.079 128.912  0.00  0.00    +0.000 A 
ATOM     38  C   UNL     1      -5.764  -2.259 128.305  0.00  0.00    +0.000 A 
ATOM     39  C   UNL     1      -4.524  -2.246 128.811  0.00  0.00    +0.000 A 
ATOM     40  C   UNL     1      -4.133  -3.232 129.860  0.00  0.00    +0.000 A 
ATOM     41  O   UNL     1      -2.946  -3.369 130.142  0.00  0.00    +0.000 OA
BRANCH  37  42
ATOM     42  C   UNL     1      -8.168  -3.029 128.296  0.00  0.00    +0.000 C 
ATOM     43  F   UNL     1      -9.146  -3.356 129.179  0.00  0.00    +0.000 F 
ATOM     44  F   UNL     1      -8.457  -1.782 127.837  0.00  0.00    +0.000 F 
ATOM     45  F   UNL     1      -8.293  -3.869 127.236  0.00  0.00    +0.000 F 
ENDBRANCH  37  42
ENDBRANCH  34  35
ENDBRANCH  31  34
ENDBRANCH  29  32
ENDBRANCH   1  29
TORSDOF 7
ENDMDL
MODEL 3
REMARK VINA RESULT:     -11.1      4.039      8.074
REMARK  Name = CHEMBL284442
REMARK  7 active torsions:
REMARK  status: ('A' for Active; 'I' for Inactive)
REMARK    1  A    between atoms: C_2  and  C_3
REMARK    2  A    between atoms: C_3  and  N_4
REMARK    3  A    between atoms: C_6  and  C_7
REMARK    4  A    between atoms: N_15  and  C_16
REMARK    5  A    between atoms: C_16  and  C_17
REMARK    6  A    between atoms: C_21  and  C_22
REMARK    7  A    between atoms: C_27  and  N_28
REMARK                            x       y       z     vdW  Elec       q    Type
REMARK                         _______ _______ _______ _____ _____    ______ ____
ROOT
ATOM      1  C   UNL     1      -4.999  -0.013 132.435  0.00  0.00    +0.000 A 
ATOM      2  C   UNL     1      -4.107   0.374 131.460  0.00  0.00    +0.000 A 
ATOM      3  C   UNL     1      -4.481   1.623 130.969  0.00  0.00    +0.000 A 
ATOM      4  C   UNL     1      -4.233   2.277 129.751  0.00  0.00    +0.000 A 
ATOM      5  C   UNL     1      -4.596   3.607 129.547  0.00  0.00    +0.000 A 
ATOM      6  C   UNL     1      -5.168   4.207 130.665  0.00  0.00    +0.000 A 
ATOM      7  N   UNL     1      -5.571   3.581 131.879  0.00  0.00    +0.000 NA
ATOM      8  C   UNL     1      -5.259   2.238 131.930  0.00  0.00    +0.000 A 
ATOM      9  O   UNL     1      -5.686   1.171 132.833  0.00  0.00    +0.000 OA
ENDROOT
BRANCH   5  10
ATOM     10  C   UNL     1      -4.512   4.146 128.121  0.00  0.00    +0.000 C 
ATOM     11  O   UNL     1      -3.531   4.852 127.861  0.00  0.00    +0.000 OA
ATOM     12  N   UNL     1      -5.401   3.744 127.096  0.00  0.00    +0.000 N 
ATOM     13  C   UNL     1      -4.889   3.151 125.847  0.00  0.00    +0.000 C 
ATOM     14  C   UNL     1      -5.446   3.754 124.553  0.00  0.00    +0.000 C 
ATOM     15  C   UNL     1      -7.101   3.306 124.409  0.00  0.00    +0.000 C 
ATOM     16  C   UNL     1      -7.455   4.332 125.810  0.00  0.00    +0.000 C 
ATOM     17  C   UNL     1      -6.852   3.881 127.154  0.00  0.00    +0.000 C 
BRANCH  15  18
ATOM     18  N   UNL     1      -7.291   1.690 123.536  0.00  0.00    +0.000 N 
ATOM     19  C   UNL     1      -8.569   2.173 123.165  0.00  0.00    +0.000 C 
ATOM     20  O   UNL     1      -8.794   3.251 122.479  0.00  0.00    +0.000 OA
ATOM     21  O   UNL     1      -9.605   1.656 123.787  0.00  0.00    +0.000 OA
ATOM     22  C   UNL     1      -9.800   0.586 122.935  0.00  0.00    +0.000 C 
ATOM     23  C   UNL     1      -8.992  -0.350 123.723  0.00  0.00    +0.000 A 
ATOM     24  C   UNL     1      -9.191  -1.266 124.761  0.00  0.00    +0.000 A 
ATOM     25  C   UNL     1      -8.591  -2.549 124.723  0.00  0.00    +0.000 A 
ATOM     26  C   UNL     1      -7.973  -2.833 123.551  0.00  0.00    +0.000 A 
ATOM     27  C   UNL     1      -7.556  -1.549 122.854  0.00  0.00    +0.000 A 
ATOM     28  C   UNL     1      -7.701  -0.118 123.586  0.00  0.00    +0.000 A 
ENDBRANCH  15  18
ENDBRANCH   5  10
BRANCH   1  29
ATOM     29  C   UNL     1      -5.012  -1.493 132.914  0.00  0.00    +0.000 C 
BRANCH  29  32
ATOM     30  O   UNL     1      -5.588  -4.286 130.675  0.00  0.00    +0.000 OA
ATOM     31  C   UNL     1      -5.897  -3.313 131.369  0.00  0.00    +0.000 C 
ATOM     32  N   UNL     1      -4.881  -2.661 132.072  0.00  0.00    +0.000 N 
ATOM     33  H   UNL     1      -3.978  -3.106 131.984  0.00  0.00    +0.000 HD
BRANCH  31  34
ATOM     34  C   UNL     1      -7.371  -2.818 131.424  0.00  0.00    +0.000 C 
BRANCH  34  35
ATOM     35  N   UNL     1      -7.608  -1.580 130.638  0.00  0.00    +0.000 N 
ATOM     36  C   UNL     1      -7.143  -1.474 129.330  0.00  0.00    +0.000 A 
ATOM     37  C   UNL     1      -7.139  -0.299 128.671  0.00  0.00    +0.000 A 
ATOM     38  C   UNL     1      -7.801   0.845 129.273  0.00  0.00    +0.000 A 
ATOM     39  C   UNL     1      -8.410   0.729 130.460  0.00  0.00    +0.000 A 
ATOM     40  C   UNL     1      -8.231  -0.506 131.276  0.00  0.00    +0.000 A 
ATOM     41  O   UNL     1      -8.592  -0.507 132.450  0.00  0.00    +0.000 OA
BRANCH  37  42
ATOM     42  C   UNL     1      -6.489  -0.095 127.331  0.00  0.00    +0.000 C 
ATOM     43  F   UNL     1      -6.393  -1.247 126.619  0.00  0.00    +0.000 F 
ATOM     44  F   UNL     1      -7.200   0.777 126.567  0.00  0.00    +0.000 F 
ATOM     45  F   UNL     1      -5.235   0.416 127.432  0.00  0.00    +0.000 F 
ENDBRANCH  37  42
ENDBRANCH  34  35
ENDBRANCH  31  34
ENDBRANCH  29  32
ENDBRANCH   1  29
TORSDOF 7
ENDMDL
MODEL 4
REMARK VINA RESULT:     -11.1      4.191      5.484
REMARK  Name = CHEMBL284442
REMARK  7 active torsions:
REMARK  status: ('A' for Active; 'I' for Inactive)
REMARK    1  A    between atoms: C_2  and  C_3
REMARK    2  A    between atoms: C_3  and  N_4
REMARK    3  A    between atoms: C_6  and  C_7
REMARK    4  A    between atoms: N_15  and  C_16
REMARK    5  A    between atoms: C_16  and  C_17
REMARK    6  A    between atoms: C_21  and  C_22
REMARK    7  A    between atoms: C_27  and  N_28
REMARK                            x       y       z     vdW  Elec       q    Type
REMARK                         _______ _______ _______ _____ _____    ______ ____
ROOT
ATOM      1  C   UNL     1      -7.834   0.694 123.860  0.00  0.00    +0.000 A 
ATOM      2  C   UNL     1      -6.640   0.346 124.451  0.00  0.00    +0.000 A 
ATOM      3  C   UNL     1      -6.894  -0.498 125.531  0.00  0.00    +0.000 A 
ATOM      4  C   UNL     1      -6.166  -0.797 126.693  0.00  0.00    +0.000 A 
ATOM      5  C   UNL     1      -6.567  -1.803 127.571  0.00  0.00    +0.000 A 
ATOM      6  C   UNL     1      -7.705  -2.486 127.152  0.00  0.00    +0.000 A 
ATOM      7  N   UNL     1      -8.568  -2.159 126.068  0.00  0.00    +0.000 NA
ATOM      8  C   UNL     1      -8.131  -1.078 125.329  0.00  0.00    +0.000 A 
ATOM      9  O   UNL     1      -8.793  -0.256 124.319  0.00  0.00    +0.000 OA
ENDROOT
BRANCH   5  10
ATOM     10  C   UNL     1      -5.855  -1.882 128.919  0.00  0.00    +0.000 C 
ATOM     11  O   UNL     1      -5.329  -2.965 129.196  0.00  0.00    +0.000 OA
ATOM     12  N   UNL     1      -5.656  -0.753 129.748  0.00  0.00    +0.000 N 
ATOM     13  C   UNL     1      -4.299  -0.361 130.170  0.00  0.00    +0.000 C 
ATOM     14  C   UNL     1      -4.126  -0.093 131.669  0.00  0.00    +0.000 C 
ATOM     15  C   UNL     1      -4.963   1.357 132.066  0.00  0.00    +0.000 C 
ATOM     16  C   UNL     1      -6.486   0.518 131.726  0.00  0.00    +0.000 C 
ATOM     17  C   UNL     1      -6.722   0.098 130.263  0.00  0.00    +0.000 C 
BRANCH  15  18
ATOM     18  N   UNL     1      -3.886   2.840 131.851  0.00  0.00    +0.000 N 
ATOM     19  C   UNL     1      -4.766   3.468 132.765  0.00  0.00    +0.000 C 
ATOM     20  O   UNL     1      -4.996   3.070 133.978  0.00  0.00    +0.000 OA
ATOM     21  O   UNL     1      -5.614   4.342 132.271  0.00  0.00    +0.000 OA
ATOM     22  C   UNL     1      -4.791   5.448 132.357  0.00  0.00    +0.000 C 
ATOM     23  C   UNL     1      -4.278   5.329 130.989  0.00  0.00    +0.000 A 
ATOM     24  C   UNL     1      -4.614   5.800 129.716  0.00  0.00    +0.000 A 
ATOM     25  C   UNL     1      -3.618   6.292 128.836  0.00  0.00    +0.000 A 
ATOM     26  C   UNL     1      -2.392   6.403 129.402  0.00  0.00    +0.000 A 
ATOM     27  C   UNL     1      -2.262   5.438 130.567  0.00  0.00    +0.000 A 
ATOM     28  C   UNL     1      -3.409   4.344 130.876  0.00  0.00    +0.000 A 
ENDBRANCH  15  18
ENDBRANCH   5  10
BRANCH   1  29
ATOM     29  C   UNL     1      -7.869   1.876 122.849  0.00  0.00    +0.000 C 
BRANCH  29  32
ATOM     30  O   UNL     1      -5.263   4.390 122.668  0.00  0.00    +0.000 OA
ATOM     31  C   UNL     1      -6.257   3.825 123.135  0.00  0.00    +0.000 C 
ATOM     32  N   UNL     1      -6.745   2.701 122.466  0.00  0.00    +0.000 N 
ATOM     33  H   UNL     1      -6.256   2.497 121.606  0.00  0.00    +0.000 HD
BRANCH  31  34
ATOM     34  C   UNL     1      -6.914   4.340 124.449  0.00  0.00    +0.000 C 
BRANCH  34  35
ATOM     35  N   UNL     1      -6.256   3.828 125.678  0.00  0.00    +0.000 N 
ATOM     36  C   UNL     1      -4.875   3.913 125.828  0.00  0.00    +0.000 A 
ATOM     37  C   UNL     1      -4.226   3.263 126.814  0.00  0.00    +0.000 A 
ATOM     38  C   UNL     1      -5.003   2.607 127.851  0.00  0.00    +0.000 A 
ATOM     39  C   UNL     1      -6.341   2.655 127.829  0.00  0.00    +0.000 A 
ATOM     40  C   UNL     1      -7.052   3.189 126.631  0.00  0.00    +0.000 A 
ATOM     41  O   UNL     1      -8.262   3.010 126.522  0.00  0.00    +0.000 OA
BRANCH  37  42
ATOM     42  C   UNL     1      -2.728   3.178 126.914  0.00  0.00    +0.000 C 
ATOM     43  F   UNL     1      -2.128   4.384 126.750  0.00  0.00    +0.000 F 
ATOM     44  F   UNL     1      -2.343   2.712 128.133  0.00  0.00    +0.000 F 
ATOM     45  F   UNL     1      -2.192   2.337 125.992  0.00  0.00    +0.000 F 
ENDBRANCH  37  42
ENDBRANCH  34  35
ENDBRANCH  31  34
ENDBRANCH  29  32
ENDBRANCH   1  29
TORSDOF 7
ENDMDL
MODEL 5
REMARK VINA RESULT:     -11.0      3.360      8.814
REMARK  Name = CHEMBL284442
REMARK  7 active torsions:
REMARK  status: ('A' for Active; 'I' for Inactive)
REMARK    1  A    between atoms: C_2  and  C_3
REMARK    2  A    between atoms: C_3  and  N_4
REMARK    3  A    between atoms: C_6  and  C_7
REMARK    4  A    between atoms: N_15  and  C_16
REMARK    5  A    between atoms: C_16  and  C_17
REMARK    6  A    between atoms: C_21  and  C_22
REMARK    7  A    between atoms: C_27  and  N_28
REMARK                            x       y       z     vdW  Elec       q    Type
REMARK                         _______ _______ _______ _____ _____    ______ ____
ROOT
ATOM      1  C   UNL     1      -7.138   3.731 133.415  0.00  0.00    +0.000 A 
ATOM      2  C   UNL     1      -7.986   2.649 133.317  0.00  0.00    +0.000 A 
ATOM      3  C   UNL     1      -7.236   1.504 133.056  0.00  0.00    +0.000 A 
ATOM      4  C   UNL     1      -7.559   0.274 132.460  0.00  0.00    +0.000 A 
ATOM      5  C   UNL     1      -6.660  -0.790 132.442  0.00  0.00    +0.000 A 
ATOM      6  C   UNL     1      -5.465  -0.521 133.103  0.00  0.00    +0.000 A 
ATOM      7  N   UNL     1      -5.013   0.731 133.610  0.00  0.00    +0.000 NA
ATOM      8  C   UNL     1      -5.943   1.741 133.479  0.00  0.00    +0.000 A 
ATOM      9  O   UNL     1      -5.834   3.192 133.619  0.00  0.00    +0.000 OA
ENDROOT
BRANCH   5  10
ATOM     10  C   UNL     1      -7.007  -1.987 131.560  0.00  0.00    +0.000 C 
ATOM     11  O   UNL     1      -7.451  -2.983 132.142  0.00  0.00    +0.000 OA
ATOM     12  N   UNL     1      -6.985  -1.930 130.147  0.00  0.00    +0.000 N 
ATOM     13  C   UNL     1      -8.189  -2.260 129.364  0.00  0.00    +0.000 C 
ATOM     14  C   UNL     1      -7.976  -3.245 128.209  0.00  0.00    +0.000 C 
ATOM     15  C   UNL     1      -7.060  -2.460 126.982  0.00  0.00    +0.000 C 
ATOM     16  C   UNL     1      -5.675  -2.444 128.088  0.00  0.00    +0.000 C 
ATOM     17  C   UNL     1      -5.820  -1.569 129.348  0.00  0.00    +0.000 C 
BRANCH  15  18
ATOM     18  N   UNL     1      -8.150  -1.567 125.791  0.00  0.00    +0.000 N 
ATOM     19  C   UNL     1      -7.581  -2.416 124.812  0.00  0.00    +0.000 C 
ATOM     20  O   UNL     1      -7.641  -3.712 124.817  0.00  0.00    +0.000 OA
ATOM     21  O   UNL     1      -6.700  -1.880 123.997  0.00  0.00    +0.000 OA
ATOM     22  C   UNL     1      -7.595  -1.437 123.043  0.00  0.00    +0.000 C 
ATOM     23  C   UNL     1      -7.731  -0.094 123.613  0.00  0.00    +0.000 A 
ATOM     24  C   UNL     1      -7.115   1.154 123.472  0.00  0.00    +0.000 A 
ATOM     25  C   UNL     1      -7.886   2.341 123.396  0.00  0.00    +0.000 A 
ATOM     26  C   UNL     1      -9.221   2.125 123.310  0.00  0.00    +0.000 A 
ATOM     27  C   UNL     1      -9.574   0.779 123.920  0.00  0.00    +0.000 A 
ATOM     28  C   UNL     1      -8.468  -0.097 124.705  0.00  0.00    +0.000 A 
ENDBRANCH  15  18
ENDBRANCH   5  10
BRANCH   1  29
ATOM     29  C   UNL     1      -7.728   5.169 133.374  0.00  0.00    +0.000 C 
BRANCH  29  32
ATOM     30  O   UNL     1      -7.525   7.389 130.514  0.00  0.00    +0.000 OA
ATOM     31  C   UNL     1      -7.939   6.429 131.172  0.00  0.00    +0.000 C 
ATOM     32  N   UNL     1      -7.376   6.207 132.431  0.00  0.00    +0.000 N 
ATOM     33  H   UNL     1      -6.620   6.839 132.654  0.00  0.00    +0.000 HD
BRANCH  31  34
ATOM     34  C   UNL     1      -9.077   5.524 130.617  0.00  0.00    +0.000 C 
BRANCH  34  35
ATOM     35  N   UNL     1     -10.381   6.224 130.494  0.00  0.00    +0.000 N 
ATOM     36  C   UNL     1     -10.838   6.652 129.251  0.00  0.00    +0.000 A 
ATOM     37  C   UNL     1     -11.894   7.480 129.129  0.00  0.00    +0.000 A 
ATOM     38  C   UNL     1     -12.683   7.788 130.309  0.00  0.00    +0.000 A 
ATOM     39  C   UNL     1     -12.369   7.251 131.495  0.00  0.00    +0.000 A 
ATOM     40  C   UNL     1     -11.086   6.510 131.665  0.00  0.00    +0.000 A 
ATOM     41  O   UNL     1     -10.699   6.232 132.797  0.00  0.00    +0.000 OA
BRANCH  37  42
ATOM     42  C   UNL     1     -12.317   8.110 127.831  0.00  0.00    +0.000 C 
ATOM     43  F   UNL     1     -13.059   7.271 127.065  0.00  0.00    +0.000 F 
ATOM     44  F   UNL     1     -13.076   9.217 128.046  0.00  0.00    +0.000 F 
ATOM     45  F   UNL     1     -11.260   8.508 127.077  0.00  0.00    +0.000 F 
ENDBRANCH  37  42
ENDBRANCH  34  35
ENDBRANCH  31  34
ENDBRANCH  29  32
ENDBRANCH   1  29
TORSDOF 7
ENDMDL
MODEL 6
REMARK VINA RESULT:     -11.0      2.225      2.590
REMARK  Name = CHEMBL284442
REMARK  7 active torsions:
REMARK  status: ('A' for Active; 'I' for Inactive)
REMARK    1  A    between atoms: C_2  and  C_3
REMARK    2  A    between atoms: C_3  and  N_4
REMARK    3  A    between atoms: C_6  and  C_7
REMARK    4  A    between atoms: N_15  and  C_16
REMARK    5  A    between atoms: C_16  and  C_17
REMARK    6  A    between atoms: C_21  and  C_22
REMARK    7  A    between atoms: C_27  and  N_28
REMARK                            x       y       z     vdW  Elec       q    Type
REMARK                         _______ _______ _______ _____ _____    ______ ____
ROOT
ATOM      1  C   UNL     1      -8.327  -1.750 125.630  0.00  0.00    +0.000 A 
ATOM      2  C   UNL     1      -7.420  -0.900 126.223  0.00  0.00    +0.000 A 
ATOM      3  C   UNL     1      -7.499  -1.041 127.607  0.00  0.00    +0.000 A 
ATOM      4  C   UNL     1      -7.163  -0.186 128.669  0.00  0.00    +0.000 A 
ATOM      5  C   UNL     1      -7.197  -0.616 129.995  0.00  0.00    +0.000 A 
ATOM      6  C   UNL     1      -7.542  -1.957 130.137  0.00  0.00    +0.000 A 
ATOM      7  N   UNL     1      -8.022  -2.844 129.132  0.00  0.00    +0.000 NA
ATOM      8  C   UNL     1      -8.048  -2.280 127.873  0.00  0.00    +0.000 A 
ATOM      9  O   UNL     1      -8.677  -2.709 126.626  0.00  0.00    +0.000 OA
ENDROOT
BRANCH   5  10
ATOM     10  C   UNL     1      -7.058   0.448 131.080  0.00  0.00    +0.000 C 
ATOM     11  O   UNL     1      -6.059   0.364 131.803  0.00  0.00    +0.000 OA
ATOM     12  N   UNL     1      -7.919   1.567 131.172  0.00  0.00    +0.000 N 
ATOM     13  C   UNL     1      -7.376   2.937 131.144  0.00  0.00    +0.000 C 
ATOM     14  C   UNL     1      -7.882   3.870 132.251  0.00  0.00    +0.000 C 
ATOM     15  C   UNL     1      -9.538   4.227 131.950  0.00  0.00    +0.000 C 
ATOM     16  C   UNL     1      -9.922   2.533 132.301  0.00  0.00    +0.000 C 
ATOM     17  C   UNL     1      -9.369   1.490 131.311  0.00  0.00    +0.000 C 
BRANCH  15  18
ATOM     18  N   UNL     1      -9.724   5.704 130.857  0.00  0.00    +0.000 N 
ATOM     19  C   UNL     1     -10.496   6.243 131.914  0.00  0.00    +0.000 C 
ATOM     20  O   UNL     1     -10.074   6.447 133.123  0.00  0.00    +0.000 OA
ATOM     21  O   UNL     1     -11.799   6.283 131.741  0.00  0.00    +0.000 OA
ATOM     22  C   UNL     1     -11.852   7.515 131.117  0.00  0.00    +0.000 C 
ATOM     23  C   UNL     1     -11.792   6.970 129.758  0.00  0.00    +0.000 A 
ATOM     24  C   UNL     1     -12.692   6.544 128.776  0.00  0.00    +0.000 A 
ATOM     25  C   UNL     1     -12.515   6.911 127.419  0.00  0.00    +0.000 A 
ATOM     26  C   UNL     1     -11.523   7.812 127.218  0.00  0.00    +0.000 A 
ATOM     27  C   UNL     1     -10.500   7.723 128.338  0.00  0.00    +0.000 A 
ATOM     28  C   UNL     1     -10.580   6.555 129.449  0.00  0.00    +0.000 A 
ENDBRANCH  15  18
ENDBRANCH   5  10
BRANCH   1  29
ATOM     29  C   UNL     1      -8.679  -1.562 124.127  0.00  0.00    +0.000 C 
BRANCH  29  32
ATOM     30  O   UNL     1      -9.414   1.662 122.641  0.00  0.00    +0.000 OA
ATOM     31  C   UNL     1      -8.706   0.789 123.152  0.00  0.00    +0.000 C 
ATOM     32  N   UNL     1      -9.317  -0.405 123.541  0.00  0.00    +0.000 N 
ATOM     33  H   UNL     1     -10.320  -0.406 123.416  0.00  0.00    +0.000 HD
BRANCH  31  34
ATOM     34  C   UNL     1      -7.175   1.013 123.320  0.00  0.00    +0.000 C 
BRANCH  34  35
ATOM     35  N   UNL     1      -6.838   2.273 124.030  0.00  0.00    +0.000 N 
ATOM     36  C   UNL     1      -7.190   2.448 125.365  0.00  0.00    +0.000 A 
ATOM     37  C   UNL     1      -7.104   3.648 125.971  0.00  0.00    +0.000 A 
ATOM     38  C   UNL     1      -6.459   4.744 125.268  0.00  0.00    +0.000 A 
ATOM     39  C   UNL     1      -5.952   4.559 124.043  0.00  0.00    +0.000 A 
ATOM     40  C   UNL     1      -6.236   3.298 123.298  0.00  0.00    +0.000 A 
ATOM     41  O   UNL     1      -5.972   3.237 122.100  0.00  0.00    +0.000 OA
BRANCH  37  42
ATOM     42  C   UNL     1      -7.636   3.929 127.349  0.00  0.00    +0.000 C 
ATOM     43  F   UNL     1      -8.279   2.861 127.885  0.00  0.00    +0.000 F 
ATOM     44  F   UNL     1      -6.631   4.252 128.207  0.00  0.00    +0.000 F 
ATOM     45  F   UNL     1      -8.509   4.970 127.368  0.00  0.00    +0.000 F 
ENDBRANCH  37  42
ENDBRANCH  34  35
ENDBRANCH  31  34
ENDBRANCH  29  32
ENDBRANCH   1  29
TORSDOF 7
ENDMDL
MODEL 7
REMARK VINA RESULT:     -10.9      3.954      8.938
REMARK  Name = CHEMBL284442
REMARK  7 active torsions:
REMARK  status: ('A' for Active; 'I' for Inactive)
REMARK    1  A    between atoms: C_2  and  C_3
REMARK    2  A    between atoms: C_3  and  N_4
REMARK    3  A    between atoms: C_6  and  C_7
REMARK    4  A    between atoms: N_15  and  C_16
REMARK    5  A    between atoms: C_16  and  C_17
REMARK    6  A    between atoms: C_21  and  C_22
REMARK    7  A    between atoms: C_27  and  N_28
REMARK                            x       y       z     vdW  Elec       q    Type
REMARK                         _______ _______ _______ _____ _____    ______ ____
ROOT
ATOM      1  C   UNL     1      -4.550   1.361 132.440  0.00  0.00    +0.000 A 
ATOM      2  C   UNL     1      -3.873   2.170 131.554  0.00  0.00    +0.000 A 
ATOM      3  C   UNL     1      -4.796   2.851 130.762  0.00  0.00    +0.000 A 
ATOM      4  C   UNL     1      -4.706   3.433 129.488  0.00  0.00    +0.000 A 
ATOM      5  C   UNL     1      -5.741   4.200 128.957  0.00  0.00    +0.000 A 
ATOM      6  C   UNL     1      -6.818   4.358 129.825  0.00  0.00    +0.000 A 
ATOM      7  N   UNL     1      -7.041   3.697 131.066  0.00  0.00    +0.000 NA
ATOM      8  C   UNL     1      -5.997   2.878 131.444  0.00  0.00    +0.000 A 
ATOM      9  O   UNL     1      -5.890   1.845 132.473  0.00  0.00    +0.000 OA
ENDROOT
BRANCH   5  10
ATOM     10  C   UNL     1      -5.650   4.576 127.481  0.00  0.00    +0.000 C 
ATOM     11  O   UNL     1      -4.861   5.484 127.196  0.00  0.00    +0.000 OA
ATOM     12  N   UNL     1      -6.295   3.839 126.460  0.00  0.00    +0.000 N 
ATOM     13  C   UNL     1      -5.522   3.266 125.344  0.00  0.00    +0.000 C 
ATOM     14  C   UNL     1      -6.077   3.547 123.943  0.00  0.00    +0.000 C 
ATOM     15  C   UNL     1      -7.539   2.660 123.746  0.00  0.00    +0.000 C 
ATOM     16  C   UNL     1      -8.287   3.706 124.965  0.00  0.00    +0.000 C 
ATOM     17  C   UNL     1      -7.731   3.589 126.397  0.00  0.00    +0.000 C 
BRANCH  15  18
ATOM     18  N   UNL     1      -7.217   0.965 123.090  0.00  0.00    +0.000 N 
ATOM     19  C   UNL     1      -8.578   0.717 123.388  0.00  0.00    +0.000 C 
ATOM     20  O   UNL     1      -9.586   1.366 122.891  0.00  0.00    +0.000 OA
ATOM     21  O   UNL     1      -8.833  -0.027 124.442  0.00  0.00    +0.000 OA
ATOM     22  C   UNL     1      -8.785  -1.251 123.804  0.00  0.00    +0.000 C 
ATOM     23  C   UNL     1      -7.371  -1.493 124.103  0.00  0.00    +0.000 A 
ATOM     24  C   UNL     1      -6.619  -2.101 125.113  0.00  0.00    +0.000 A 
ATOM     25  C   UNL     1      -5.526  -2.947 124.797  0.00  0.00    +0.000 A 
ATOM     26  C   UNL     1      -5.405  -3.218 123.475  0.00  0.00    +0.000 A 
ATOM     27  C   UNL     1      -6.040  -2.110 122.653  0.00  0.00    +0.000 A 
ATOM     28  C   UNL     1      -6.578  -0.757 123.350  0.00  0.00    +0.000 A 
ENDBRANCH  15  18
ENDBRANCH   5  10
BRANCH   1  29
ATOM     29  C   UNL     1      -3.772   0.254 133.209  0.00  0.00    +0.000 C 
BRANCH  29  32
ATOM     30  O   UNL     1      -3.073  -2.956 131.676  0.00  0.00    +0.000 OA
ATOM     31  C   UNL     1      -3.776  -2.073 132.177  0.00  0.00    +0.000 C 
ATOM     32  N   UNL     1      -3.145  -0.909 132.623  0.00  0.00    +0.000 N 
ATOM     33  H   UNL     1      -2.138  -0.937 132.542  0.00  0.00    +0.000 HD
BRANCH  31  34
ATOM     34  C   UNL     1      -5.319  -2.250 132.272  0.00  0.00    +0.000 C 
BRANCH  34  35
ATOM     35  N   UNL     1      -5.997  -2.235 130.951  0.00  0.00    +0.000 N 
ATOM     36  C   UNL     1      -6.254  -1.030 130.303  0.00  0.00    +0.000 A 
ATOM     37  C   UNL     1      -7.059  -0.962 129.224  0.00  0.00    +0.000 A 
ATOM     38  C   UNL     1      -7.523  -2.197 128.616  0.00  0.00    +0.000 A 
ATOM     39  C   UNL     1      -7.150  -3.382 129.116  0.00  0.00    +0.000 A 
ATOM     40  C   UNL     1      -6.439  -3.451 130.425  0.00  0.00    +0.000 A 
ATOM     41  O   UNL     1      -6.315  -4.538 130.984  0.00  0.00    +0.000 OA
BRANCH  37  42
ATOM     42  C   UNL     1      -7.509   0.329 128.598  0.00  0.00    +0.000 C 
ATOM     43  F   UNL     1      -8.336   0.132 127.540  0.00  0.00    +0.000 F 
ATOM     44  F   UNL     1      -8.190   1.097 129.489  0.00  0.00    +0.000 F 
ATOM     45  F   UNL     1      -6.469   1.082 128.155  0.00  0.00    +0.000 F 
ENDBRANCH  37  42
ENDBRANCH  34  35
ENDBRANCH  31  34
ENDBRANCH  29  32
ENDBRANCH   1  29
TORSDOF 7
ENDMDL
MODEL 8
REMARK VINA RESULT:     -10.7      4.329      6.273
REMARK  Name = CHEMBL284442
REMARK  7 active torsions:
REMARK  status: ('A' for Active; 'I' for Inactive)
REMARK    1  A    between atoms: C_2  and  C_3
REMARK    2  A    between atoms: C_3  and  N_4
REMARK    3  A    between atoms: C_6  and  C_7
REMARK    4  A    between atoms: N_15  and  C_16
REMARK    5  A    between atoms: C_16  and  C_17
REMARK    6  A    between atoms: C_21  and  C_22
REMARK    7  A    between atoms: C_27  and  N_28
REMARK                            x       y       z     vdW  Elec       q    Type
REMARK                         _______ _______ _______ _____ _____    ______ ____
ROOT
ATOM      1  C   UNL     1      -8.617   0.365 124.686  0.00  0.00    +0.000 A 
ATOM      2  C   UNL     1      -7.507  -0.048 125.390  0.00  0.00    +0.000 A 
ATOM      3  C   UNL     1      -7.861  -1.112 126.216  0.00  0.00    +0.000 A 
ATOM      4  C   UNL     1      -7.304  -1.619 127.401  0.00  0.00    +0.000 A 
ATOM      5  C   UNL     1      -7.758  -2.805 127.976  0.00  0.00    +0.000 A 
ATOM      6  C   UNL     1      -8.758  -3.434 127.239  0.00  0.00    +0.000 A 
ATOM      7  N   UNL     1      -9.462  -2.922 126.112  0.00  0.00    +0.000 NA
ATOM      8  C   UNL     1      -9.001  -1.691 125.693  0.00  0.00    +0.000 A 
ATOM      9  O   UNL     1      -9.558  -0.703 124.772  0.00  0.00    +0.000 OA
ENDROOT
BRANCH   5  10
ATOM     10  C   UNL     1      -7.265  -3.137 129.382  0.00  0.00    +0.000 C 
ATOM     11  O   UNL     1      -6.949  -4.315 129.585  0.00  0.00    +0.000 OA
ATOM     12  N   UNL     1      -7.020  -2.147 130.362  0.00  0.00    +0.000 N 
ATOM     13  C   UNL     1      -5.694  -2.028 130.995  0.00  0.00    +0.000 C 
ATOM     14  C   UNL     1      -5.698  -1.947 132.525  0.00  0.00    +0.000 C 
ATOM     15  C   UNL     1      -6.360  -0.429 132.991  0.00  0.00    +0.000 C 
ATOM     16  C   UNL     1      -7.927  -0.969 132.364  0.00  0.00    +0.000 C 
ATOM     17  C   UNL     1      -8.012  -1.191 130.842  0.00  0.00    +0.000 C 
BRANCH  15  18
ATOM     18  N   UNL     1      -5.055   0.873 133.097  0.00  0.00    +0.000 N 
ATOM     19  C   UNL     1      -5.757   1.319 134.243  0.00  0.00    +0.000 C 
ATOM     20  O   UNL     1      -5.981   0.613 135.308  0.00  0.00    +0.000 OA
ATOM     21  O   UNL     1      -6.469   2.417 134.117  0.00  0.00    +0.000 OA
ATOM     22  C   UNL     1      -5.462   3.311 134.428  0.00  0.00    +0.000 C 
ATOM     23  C   UNL     1      -5.060   3.535 133.036  0.00  0.00    +0.000 A 
ATOM     24  C   UNL     1      -5.384   4.413 131.997  0.00  0.00    +0.000 A 
ATOM     25  C   UNL     1      -4.371   4.994 131.193  0.00  0.00    +0.000 A 
ATOM     26  C   UNL     1      -3.113   4.746 131.631  0.00  0.00    +0.000 A 
ATOM     27  C   UNL     1      -3.084   3.466 132.448  0.00  0.00    +0.000 A 
ATOM     28  C   UNL     1      -4.383   2.513 132.551  0.00  0.00    +0.000 A 
ENDBRANCH  15  18
ENDBRANCH   5  10
BRANCH   1  29
ATOM     29  C   UNL     1      -8.585   1.732 123.945  0.00  0.00    +0.000 C 
BRANCH  29  32
ATOM     30  O   UNL     1      -8.694   4.956 125.600  0.00  0.00    +0.000 OA
ATOM     31  C   UNL     1      -8.187   3.891 125.232  0.00  0.00    +0.000 C 
ATOM     32  N   UNL     1      -8.980   3.009 124.496  0.00  0.00    +0.000 N 
ATOM     33  H   UNL     1      -9.938   3.316 124.391  0.00  0.00    +0.000 HD
BRANCH  31  34
ATOM     34  C   UNL     1      -6.699   3.572 125.556  0.00  0.00    +0.000 C 
BRANCH  34  35
ATOM     35  N   UNL     1      -6.518   2.836 126.834  0.00  0.00    +0.000 N 
ATOM     36  C   UNL     1      -7.485   2.906 127.832  0.00  0.00    +0.000 A 
ATOM     37  C   UNL     1      -7.256   2.443 129.077  0.00  0.00    +0.000 A 
ATOM     38  C   UNL     1      -6.039   1.692 129.332  0.00  0.00    +0.000 A 
ATOM     39  C   UNL     1      -5.165   1.459 128.345  0.00  0.00    +0.000 A 
ATOM     40  C   UNL     1      -5.318   2.148 127.031  0.00  0.00    +0.000 A 
ATOM     41  O   UNL     1      -4.394   2.114 126.224  0.00  0.00    +0.000 OA
BRANCH  37  42
ATOM     42  C   UNL     1      -8.194   2.652 130.232  0.00  0.00    +0.000 C 
ATOM     43  F   UNL     1      -7.708   2.147 131.394  0.00  0.00    +0.000 F 
ATOM     44  F   UNL     1      -8.423   3.976 130.447  0.00  0.00    +0.000 F 
ATOM     45  F   UNL     1      -9.409   2.080 130.027  0.00  0.00    +0.000 F 
ENDBRANCH  37  42
ENDBRANCH  34  35
ENDBRANCH  31  34
ENDBRANCH  29  32
ENDBRANCH   1  29
TORSDOF 7
ENDMDL
MODEL 9
REMARK VINA RESULT:     -10.7      3.316      4.115
REMARK  Name = CHEMBL284442
REMARK  7 active torsions:
REMARK  status: ('A' for Active; 'I' for Inactive)
REMARK    1  A    between atoms: C_2  and  C_3
REMARK    2  A    between atoms: C_3  and  N_4
REMARK    3  A    between atoms: C_6  and  C_7
REMARK    4  A    between atoms: N_15  and  C_16
REMARK    5  A    between atoms: C_16  and  C_17
REMARK    6  A    between atoms: C_21  and  C_22
REMARK    7  A    between atoms: C_27  and  N_28
REMARK                            x       y       z     vdW  Elec       q    Type
REMARK                         _______ _______ _______ _____ _____    ______ ____
ROOT
ATOM      1  C   UNL     1      -8.219  -2.209 124.710  0.00  0.00    +0.000 A 
ATOM      2  C   UNL     1      -7.161  -2.159 125.590  0.00  0.00    +0.000 A 
ATOM      3  C   UNL     1      -7.607  -2.517 126.861  0.00  0.00    +0.000 A 
ATOM      4  C   UNL     1      -7.122  -2.242 128.149  0.00  0.00    +0.000 A 
ATOM      5  C   UNL     1      -7.667  -2.845 129.282  0.00  0.00    +0.000 A 
ATOM      6  C   UNL     1      -8.679  -3.757 128.995  0.00  0.00    +0.000 A 
ATOM      7  N   UNL     1      -9.311  -3.990 127.741  0.00  0.00    +0.000 NA
ATOM      8  C   UNL     1      -8.761  -3.259 126.708  0.00  0.00    +0.000 A 
ATOM      9  O   UNL     1      -9.226  -2.991 125.348  0.00  0.00    +0.000 OA
ENDROOT
BRANCH   5  10
ATOM     10  C   UNL     1      -7.242  -2.296 130.641  0.00  0.00    +0.000 C 
ATOM     11  O   UNL     1      -6.946  -3.134 131.500  0.00  0.00    +0.000 OA
ATOM     12  N   UNL     1      -7.036  -0.917 130.881  0.00  0.00    +0.000 N 
ATOM     13  C   UNL     1      -5.740  -0.428 131.385  0.00  0.00    +0.000 C 
ATOM     14  C   UNL     1      -5.814   0.520 132.587  0.00  0.00    +0.000 C 
ATOM     15  C   UNL     1      -6.485   2.016 132.064  0.00  0.00    +0.000 C 
ATOM     16  C   UNL     1      -8.025   1.181 131.797  0.00  0.00    +0.000 C 
ATOM     17  C   UNL     1      -8.041   0.121 130.679  0.00  0.00    +0.000 C 
BRANCH  15  18
ATOM     18  N   UNL     1      -5.176   3.167 131.455  0.00  0.00    +0.000 N 
ATOM     19  C   UNL     1      -6.132   4.186 131.680  0.00  0.00    +0.000 C 
ATOM     20  O   UNL     1      -6.682   4.461 132.823  0.00  0.00    +0.000 OA
ATOM     21  O   UNL     1      -6.710   4.707 130.620  0.00  0.00    +0.000 OA
ATOM     22  C   UNL     1      -5.769   5.689 130.377  0.00  0.00    +0.000 C 
ATOM     23  C   UNL     1      -4.991   4.886 129.430  0.00  0.00    +0.000 A 
ATOM     24  C   UNL     1      -4.963   4.655 128.051  0.00  0.00    +0.000 A 
ATOM     25  C   UNL     1      -3.734   4.617 127.345  0.00  0.00    +0.000 A 
ATOM     26  C   UNL     1      -2.661   4.976 128.089  0.00  0.00    +0.000 A 
ATOM     27  C   UNL     1      -2.939   4.729 129.562  0.00  0.00    +0.000 A 
ATOM     28  C   UNL     1      -4.276   3.963 130.042  0.00  0.00    +0.000 A 
ENDBRANCH  15  18
ENDBRANCH   5  10
BRANCH   1  29
ATOM     29  C   UNL     1      -8.078  -1.547 123.309  0.00  0.00    +0.000 C 
BRANCH  29  32
ATOM     30  O   UNL     1     -10.593   0.819 122.204  0.00  0.00    +0.000 OA
ATOM     31  C   UNL     1      -9.738   0.351 122.962  0.00  0.00    +0.000 C 
ATOM     32  N   UNL     1      -9.119  -0.844 122.592  0.00  0.00    +0.000 N 
ATOM     33  H   UNL     1      -9.491  -1.248 121.744  0.00  0.00    +0.000 HD
BRANCH  31  34
ATOM     34  C   UNL     1      -9.349   1.100 124.270  0.00  0.00    +0.000 C 
BRANCH  34  35
ATOM     35  N   UNL     1      -8.365   2.192 124.054  0.00  0.00    +0.000 N 
ATOM     36  C   UNL     1      -7.822   2.414 122.792  0.00  0.00    +0.000 A 
ATOM     37  C   UNL     1      -6.771   3.236 122.606  0.00  0.00    +0.000 A 
ATOM     38  C   UNL     1      -6.312   4.049 123.719  0.00  0.00    +0.000 A 
ATOM     39  C   UNL     1      -6.928   3.986 124.906  0.00  0.00    +0.000 A 
ATOM     40  C   UNL     1      -7.946   2.927 125.165  0.00  0.00    +0.000 A 
ATOM     41  O   UNL     1      -8.327   2.729 126.316  0.00  0.00    +0.000 OA
BRANCH  37  42
ATOM     42  C   UNL     1      -6.037   3.373 121.301  0.00  0.00    +0.000 C 
ATOM     43  F   UNL     1      -6.863   3.690 120.272  0.00  0.00    +0.000 F 
ATOM     44  F   UNL     1      -5.098   4.355 121.365  0.00  0.00    +0.000 F 
ATOM     45  F   UNL     1      -5.383   2.236 120.950  0.00  0.00    +0.000 F 
ENDBRANCH  37  42
ENDBRANCH  34  35
ENDBRANCH  31  34
ENDBRANCH  29  32
ENDBRANCH   1  29
TORSDOF 7
ENDMDL
