MODEL 1
REMARK VINA RESULT:     -11.7      0.000      0.000
REMARK  Name = CHEMBL283039
REMARK  7 active torsions:
REMARK  status: ('A' for Active; 'I' for Inactive)
REMARK    1  A    between atoms: C_2  and  C_3
REMARK    2  A    between atoms: C_3  and  N_4
REMARK    3  A    between atoms: C_6  and  C_7
REMARK    4  A    between atoms: N_15  and  C_16
REMARK    5  A    between atoms: C_16  and  C_17
REMARK    6  A    between atoms: C_21  and  C_22
REMARK    7  A    between atoms: C_27  and  N_28
REMARK                            x       y       z     vdW  Elec       q    Type
REMARK                         _______ _______ _______ _____ _____    ______ ____
ROOT
ATOM      1  C   UNL     1      -6.336   4.500 132.322  0.00  0.00    +0.000 A 
ATOM      2  C   UNL     1      -5.984   5.737 132.860  0.00  0.00    +0.000 A 
ATOM      3  C   UNL     1      -4.695   6.001 132.334  0.00  0.00    +0.000 A 
ATOM      4  C   UNL     1      -4.239   6.207 130.999  0.00  0.00    +0.000 A 
ATOM      5  C   UNL     1      -2.924   5.959 130.548  0.00  0.00    +0.000 A 
ATOM      6  C   UNL     1      -2.009   5.583 131.520  0.00  0.00    +0.000 A 
ATOM      7  C   UNL     1      -2.531   5.082 132.746  0.00  0.00    +0.000 A 
ATOM      8  C   UNL     1      -3.968   4.938 132.856  0.00  0.00    +0.000 A 
ATOM      9  O   UNL     1      -4.992   3.854 132.275  0.00  0.00    +0.000 OA
ENDROOT
BRANCH   5  10
ATOM     10  C   UNL     1      -2.587   5.923 129.069  0.00  0.00    +0.000 C 
ATOM     11  O   UNL     1      -1.826   6.779 128.621  0.00  0.00    +0.000 OA
ATOM     12  N   UNL     1      -3.117   4.853 128.287  0.00  0.00    +0.000 N 
ATOM     13  C   UNL     1      -2.283   3.849 127.601  0.00  0.00    +0.000 C 
ATOM     14  C   UNL     1      -2.874   3.446 126.221  0.00  0.00    +0.000 C 
ATOM     15  C   UNL     1      -4.528   2.708 126.315  0.00  0.00    +0.000 C 
ATOM     16  C   UNL     1      -5.165   4.155 126.991  0.00  0.00    +0.000 C 
ATOM     17  C   UNL     1      -4.530   4.503 128.343  0.00  0.00    +0.000 C 
BRANCH  15  18
ATOM     18  N   UNL     1      -5.035   0.923 126.064  0.00  0.00    +0.000 N 
ATOM     19  C   UNL     1      -5.390   1.011 127.436  0.00  0.00    +0.000 C 
ATOM     20  O   UNL     1      -4.680   1.353 128.413  0.00  0.00    +0.000 OA
ATOM     21  O   UNL     1      -6.700   1.006 127.615  0.00  0.00    +0.000 OA
ATOM     22  C   UNL     1      -6.837  -0.325 127.918  0.00  0.00    +0.000 C 
ATOM     23  C   UNL     1      -7.257  -0.693 126.561  0.00  0.00    +0.000 A 
ATOM     24  C   UNL     1      -8.519  -1.527 126.614  0.00  0.00    +0.000 A 
ATOM     25  C   UNL     1      -8.830  -2.587 125.822  0.00  0.00    +0.000 A 
ATOM     26  F   UNL     1     -10.003  -3.250 125.936  0.00  0.00    +0.000 F 
ATOM     27  C   UNL     1      -7.783  -2.881 124.999  0.00  0.00    +0.000 A 
ATOM     28  C   UNL     1      -6.481  -1.850 124.877  0.00  0.00    +0.000 A 
ATOM     29  C   UNL     1      -6.234  -0.434 125.608  0.00  0.00    +0.000 A 
ENDBRANCH  15  18
ENDBRANCH   5  10
BRANCH   1  30
ATOM     30  C   UNL     1      -7.770   3.864 132.500  0.00  0.00    +0.000 C 
BRANCH  30  33
ATOM     31  O   UNL     1      -9.969   3.234 129.648  0.00  0.00    +0.000 OA
ATOM     32  C   UNL     1      -9.299   3.915 130.433  0.00  0.00    +0.000 C 
ATOM     33  N   UNL     1      -8.584   3.252 131.445  0.00  0.00    +0.000 N 
ATOM     34  H   UNL     1      -8.679   2.244 131.395  0.00  0.00    +0.000 HD
BRANCH  32  35
ATOM     35  C   UNL     1      -9.272   5.477 130.311  0.00  0.00    +0.000 C 
BRANCH  35  36
ATOM     36  N   UNL     1     -10.593   6.170 130.370  0.00  0.00    +0.000 N 
ATOM     37  C   UNL     1     -11.230   6.566 129.194  0.00  0.00    +0.000 A 
ATOM     38  C   UNL     1     -12.275   7.417 129.201  0.00  0.00    +0.000 A 
ATOM     39  C   UNL     1     -12.877   7.777 130.471  0.00  0.00    +0.000 A 
ATOM     40  C   UNL     1     -12.394   7.279 131.615  0.00  0.00    +0.000 A 
ATOM     41  C   UNL     1     -11.105   6.530 131.620  0.00  0.00    +0.000 A 
ATOM     42  O   UNL     1     -10.575   6.272 132.695  0.00  0.00    +0.000 OA
BRANCH  38  43
ATOM     43  C   UNL     1     -12.872   8.024 127.961  0.00  0.00    +0.000 C 
ATOM     44  F   UNL     1     -13.688   7.152 127.313  0.00  0.00    +0.000 F 
ATOM     45  F   UNL     1     -13.625   9.117 128.250  0.00  0.00    +0.000 F 
ATOM     46  F   UNL     1     -11.932   8.419 127.065  0.00  0.00    +0.000 F 
ENDBRANCH  38  43
ENDBRANCH  35  36
ENDBRANCH  32  35
ENDBRANCH  30  33
ENDBRANCH   1  30
TORSDOF 7
ENDMDL
MODEL 2
REMARK VINA RESULT:     -11.7      5.067      9.801
REMARK  Name = CHEMBL283039
REMARK  7 active torsions:
REMARK  status: ('A' for Active; 'I' for Inactive)
REMARK    1  A    between atoms: C_2  and  C_3
REMARK    2  A    between atoms: C_3  and  N_4
REMARK    3  A    between atoms: C_6  and  C_7
REMARK    4  A    between atoms: N_15  and  C_16
REMARK    5  A    between atoms: C_16  and  C_17
REMARK    6  A    between atoms: C_21  and  C_22
REMARK    7  A    between atoms: C_27  and  N_28
REMARK                            x       y       z     vdW  Elec       q    Type
REMARK                         _______ _______ _______ _____ _____    ______ ____
ROOT
ATOM      1  C   UNL     1      -6.252   3.790 125.844  0.00  0.00    +0.000 A 
ATOM      2  C   UNL     1      -6.024   2.726 126.715  0.00  0.00    +0.000 A 
ATOM      3  C   UNL     1      -4.754   2.996 127.284  0.00  0.00    +0.000 A 
ATOM      4  C   UNL     1      -4.295   4.059 128.115  0.00  0.00    +0.000 A 
ATOM      5  C   UNL     1      -2.955   4.496 128.199  0.00  0.00    +0.000 A 
ATOM      6  C   UNL     1      -2.027   3.753 127.483  0.00  0.00    +0.000 A 
ATOM      7  C   UNL     1      -2.524   2.926 126.437  0.00  0.00    +0.000 A 
ATOM      8  C   UNL     1      -3.944   2.979 126.155  0.00  0.00    +0.000 A 
ATOM      9  O   UNL     1      -4.855   4.050 125.391  0.00  0.00    +0.000 OA
ENDROOT
BRANCH   5  10
ATOM     10  C   UNL     1      -2.589   5.805 128.875  0.00  0.00    +0.000 C 
ATOM     11  O   UNL     1      -2.099   6.701 128.189  0.00  0.00    +0.000 OA
ATOM     12  N   UNL     1      -2.898   5.952 130.260  0.00  0.00    +0.000 N 
ATOM     13  C   UNL     1      -3.838   6.961 130.787  0.00  0.00    +0.000 C 
ATOM     14  C   UNL     1      -3.362   7.544 132.147  0.00  0.00    +0.000 C 
ATOM     15  C   UNL     1      -3.202   6.308 133.464  0.00  0.00    +0.000 C 
ATOM     16  C   UNL     1      -1.999   5.467 132.566  0.00  0.00    +0.000 C 
ATOM     17  C   UNL     1      -2.529   4.930 131.231  0.00  0.00    +0.000 C 
BRANCH  15  18
ATOM     18  N   UNL     1      -4.290   6.039 134.963  0.00  0.00    +0.000 N 
ATOM     19  C   UNL     1      -3.346   6.896 135.588  0.00  0.00    +0.000 C 
ATOM     20  O   UNL     1      -2.099   6.775 135.661  0.00  0.00    +0.000 OA
ATOM     21  O   UNL     1      -3.853   8.089 135.854  0.00  0.00    +0.000 OA
ATOM     22  C   UNL     1      -4.157   7.869 137.173  0.00  0.00    +0.000 C 
ATOM     23  C   UNL     1      -5.571   7.587 136.903  0.00  0.00    +0.000 A 
ATOM     24  C   UNL     1      -6.450   8.407 137.822  0.00  0.00    +0.000 A 
ATOM     25  C   UNL     1      -7.611   8.012 138.408  0.00  0.00    +0.000 A 
ATOM     26  F   UNL     1      -8.337   8.837 139.196  0.00  0.00    +0.000 F 
ATOM     27  C   UNL     1      -7.852   6.698 138.131  0.00  0.00    +0.000 A 
ATOM     28  C   UNL     1      -6.937   5.885 137.002  0.00  0.00    +0.000 A 
ATOM     29  C   UNL     1      -5.729   6.434 136.087  0.00  0.00    +0.000 A 
ENDBRANCH  15  18
ENDBRANCH   5  10
BRANCH   1  30
ATOM     30  C   UNL     1      -7.626   4.007 125.096  0.00  0.00    +0.000 C 
BRANCH  30  33
ATOM     31  O   UNL     1      -8.933   2.552 122.007  0.00  0.00    +0.000 OA
ATOM     32  C   UNL     1      -8.853   2.737 123.227  0.00  0.00    +0.000 C 
ATOM     33  N   UNL     1      -7.915   3.671 123.698  0.00  0.00    +0.000 N 
ATOM     34  H   UNL     1      -7.409   4.130 122.950  0.00  0.00    +0.000 HD
BRANCH  32  35
ATOM     35  C   UNL     1      -9.760   1.929 124.217  0.00  0.00    +0.000 C 
BRANCH  35  36
ATOM     36  N   UNL     1      -9.196   0.650 124.741  0.00  0.00    +0.000 N 
ATOM     37  C   UNL     1      -9.012  -0.437 123.886  0.00  0.00    +0.000 A 
ATOM     38  C   UNL     1      -8.762  -1.677 124.353  0.00  0.00    +0.000 A 
ATOM     39  C   UNL     1      -8.484  -1.851 125.766  0.00  0.00    +0.000 A 
ATOM     40  C   UNL     1      -8.485  -0.797 126.591  0.00  0.00    +0.000 A 
ATOM     41  C   UNL     1      -8.986   0.524 126.117  0.00  0.00    +0.000 A 
ATOM     42  O   UNL     1      -9.181   1.413 126.940  0.00  0.00    +0.000 OA
BRANCH  38  43
ATOM     43  C   UNL     1      -8.748  -2.911 123.493  0.00  0.00    +0.000 C 
ATOM     44  F   UNL     1      -8.319  -2.643 122.232  0.00  0.00    +0.000 F 
ATOM     45  F   UNL     1      -7.914  -3.860 123.992  0.00  0.00    +0.000 F 
ATOM     46  F   UNL     1      -9.972  -3.484 123.377  0.00  0.00    +0.000 F 
ENDBRANCH  38  43
ENDBRANCH  35  36
ENDBRANCH  32  35
ENDBRANCH  30  33
ENDBRANCH   1  30
TORSDOF 7
ENDMDL
MODEL 3
REMARK VINA RESULT:     -11.7      3.830      6.007
REMARK  Name = CHEMBL283039
REMARK  7 active torsions:
REMARK  status: ('A' for Active; 'I' for Inactive)
REMARK    1  A    between atoms: C_2  and  C_3
REMARK    2  A    between atoms: C_3  and  N_4
REMARK    3  A    between atoms: C_6  and  C_7
REMARK    4  A    between atoms: N_15  and  C_16
REMARK    5  A    between atoms: C_16  and  C_17
REMARK    6  A    between atoms: C_21  and  C_22
REMARK    7  A    between atoms: C_27  and  N_28
REMARK                            x       y       z     vdW  Elec       q    Type
REMARK                         _______ _______ _______ _____ _____    ______ ____
ROOT
ATOM      1  C   UNL     1      -4.581   4.786 128.925  0.00  0.00    +0.000 A 
ATOM      2  C   UNL     1      -3.718   5.024 129.994  0.00  0.00    +0.000 A 
ATOM      3  C   UNL     1      -4.529   4.876 131.147  0.00  0.00    +0.000 A 
ATOM      4  C   UNL     1      -5.228   3.753 131.677  0.00  0.00    +0.000 A 
ATOM      5  C   UNL     1      -6.371   3.830 132.502  0.00  0.00    +0.000 A 
ATOM      6  C   UNL     1      -6.759   5.105 132.887  0.00  0.00    +0.000 A 
ATOM      7  C   UNL     1      -6.268   6.195 132.113  0.00  0.00    +0.000 A 
ATOM      8  C   UNL     1      -5.465   5.885 130.948  0.00  0.00    +0.000 A 
ATOM      9  O   UNL     1      -5.841   5.352 129.487  0.00  0.00    +0.000 OA
ENDROOT
BRANCH   5  10
ATOM     10  C   UNL     1      -7.225   2.609 132.789  0.00  0.00    +0.000 C 
ATOM     11  O   UNL     1      -7.965   2.628 133.772  0.00  0.00    +0.000 OA
ATOM     12  N   UNL     1      -7.177   1.525 131.861  0.00  0.00    +0.000 N 
ATOM     13  C   UNL     1      -8.340   1.065 131.079  0.00  0.00    +0.000 C 
ATOM     14  C   UNL     1      -8.357  -0.481 130.918  0.00  0.00    +0.000 C 
ATOM     15  C   UNL     1      -6.909  -1.148 130.055  0.00  0.00    +0.000 C 
ATOM     16  C   UNL     1      -5.866  -0.551 131.285  0.00  0.00    +0.000 C 
ATOM     17  C   UNL     1      -5.907   0.978 131.402  0.00  0.00    +0.000 C 
BRANCH  15  18
ATOM     18  N   UNL     1      -6.792  -1.852 128.324  0.00  0.00    +0.000 N 
ATOM     19  C   UNL     1      -7.501  -2.937 128.903  0.00  0.00    +0.000 C 
ATOM     20  O   UNL     1      -7.202  -3.629 129.906  0.00  0.00    +0.000 OA
ATOM     21  O   UNL     1      -8.753  -2.999 128.479  0.00  0.00    +0.000 OA
ATOM     22  C   UNL     1      -8.572  -3.954 127.512  0.00  0.00    +0.000 C 
ATOM     23  C   UNL     1      -8.497  -2.976 126.420  0.00  0.00    +0.000 A 
ATOM     24  C   UNL     1      -9.431  -3.377 125.298  0.00  0.00    +0.000 A 
ATOM     25  C   UNL     1      -9.204  -3.252 123.964  0.00  0.00    +0.000 A 
ATOM     26  F   UNL     1     -10.121  -3.619 123.041  0.00  0.00    +0.000 F 
ATOM     27  C   UNL     1      -7.940  -2.788 123.745  0.00  0.00    +0.000 A 
ATOM     28  C   UNL     1      -7.009  -2.228 125.007  0.00  0.00    +0.000 A 
ATOM     29  C   UNL     1      -7.383  -2.106 126.571  0.00  0.00    +0.000 A 
ENDBRANCH  15  18
ENDBRANCH   5  10
BRANCH   1  30
ATOM     30  C   UNL     1      -4.085   4.681 127.430  0.00  0.00    +0.000 C 
BRANCH  30  33
ATOM     31  O   UNL     1      -6.067   4.624 124.358  0.00  0.00    +0.000 OA
ATOM     32  C   UNL     1      -5.491   4.149 125.343  0.00  0.00    +0.000 C 
ATOM     33  N   UNL     1      -4.858   5.032 126.233  0.00  0.00    +0.000 N 
ATOM     34  H   UNL     1      -4.976   6.004 125.972  0.00  0.00    +0.000 HD
BRANCH  32  35
ATOM     35  C   UNL     1      -5.451   2.599 125.573  0.00  0.00    +0.000 C 
BRANCH  35  36
ATOM     36  N   UNL     1      -6.770   1.921 125.748  0.00  0.00    +0.000 N 
ATOM     37  C   UNL     1      -7.564   1.635 124.638  0.00  0.00    +0.000 A 
ATOM     38  C   UNL     1      -8.857   1.274 124.761  0.00  0.00    +0.000 A 
ATOM     39  C   UNL     1      -9.382   0.986 126.082  0.00  0.00    +0.000 A 
ATOM     40  C   UNL     1      -8.596   1.087 127.160  0.00  0.00    +0.000 A 
ATOM     41  C   UNL     1      -7.245   1.706 127.045  0.00  0.00    +0.000 A 
ATOM     42  O   UNL     1      -6.633   1.986 128.071  0.00  0.00    +0.000 OA
BRANCH  38  43
ATOM     43  C   UNL     1      -9.805   1.142 123.601  0.00  0.00    +0.000 C 
ATOM     44  F   UNL     1      -9.814  -0.118 123.094  0.00  0.00    +0.000 F 
ATOM     45  F   UNL     1     -11.085   1.422 123.964  0.00  0.00    +0.000 F 
ATOM     46  F   UNL     1      -9.498   1.975 122.574  0.00  0.00    +0.000 F 
ENDBRANCH  38  43
ENDBRANCH  35  36
ENDBRANCH  32  35
ENDBRANCH  30  33
ENDBRANCH   1  30
TORSDOF 7
ENDMDL
MODEL 4
REMARK VINA RESULT:     -11.7      2.121      8.634
REMARK  Name = CHEMBL283039
REMARK  7 active torsions:
REMARK  status: ('A' for Active; 'I' for Inactive)
REMARK    1  A    between atoms: C_2  and  C_3
REMARK    2  A    between atoms: C_3  and  N_4
REMARK    3  A    between atoms: C_6  and  C_7
REMARK    4  A    between atoms: N_15  and  C_16
REMARK    5  A    between atoms: C_16  and  C_17
REMARK    6  A    between atoms: C_21  and  C_22
REMARK    7  A    between atoms: C_27  and  N_28
REMARK                            x       y       z     vdW  Elec       q    Type
REMARK                         _______ _______ _______ _____ _____    ______ ____
ROOT
ATOM      1  C   UNL     1      -4.401   3.863 126.247  0.00  0.00    +0.000 A 
ATOM      2  C   UNL     1      -3.066   3.471 126.347  0.00  0.00    +0.000 A 
ATOM      3  C   UNL     1      -2.670   3.882 127.643  0.00  0.00    +0.000 A 
ATOM      4  C   UNL     1      -3.110   3.486 128.940  0.00  0.00    +0.000 A 
ATOM      5  C   UNL     1      -3.026   4.287 130.100  0.00  0.00    +0.000 A 
ATOM      6  C   UNL     1      -2.374   5.502 129.954  0.00  0.00    +0.000 A 
ATOM      7  C   UNL     1      -2.234   6.011 128.632  0.00  0.00    +0.000 A 
ATOM      8  C   UNL     1      -2.843   5.259 127.555  0.00  0.00    +0.000 A 
ATOM      9  O   UNL     1      -4.359   5.112 127.061  0.00  0.00    +0.000 OA
ENDROOT
BRANCH   5  10
ATOM     10  C   UNL     1      -3.769   3.920 131.372  0.00  0.00    +0.000 C 
ATOM     11  O   UNL     1      -3.161   3.312 132.251  0.00  0.00    +0.000 OA
ATOM     12  N   UNL     1      -5.119   4.362 131.509  0.00  0.00    +0.000 N 
ATOM     13  C   UNL     1      -5.573   5.293 132.561  0.00  0.00    +0.000 C 
ATOM     14  C   UNL     1      -6.989   4.928 133.088  0.00  0.00    +0.000 C 
ATOM     15  C   UNL     1      -8.283   4.975 131.819  0.00  0.00    +0.000 C 
ATOM     16  C   UNL     1      -7.492   3.736 130.926  0.00  0.00    +0.000 C 
ATOM     17  C   UNL     1      -6.096   4.154 130.448  0.00  0.00    +0.000 C 
BRANCH  15  18
ATOM     18  N   UNL     1      -9.656   6.227 131.585  0.00  0.00    +0.000 N 
ATOM     19  C   UNL     1      -8.713   6.843 130.721  0.00  0.00    +0.000 C 
ATOM     20  O   UNL     1      -7.538   7.207 130.968  0.00  0.00    +0.000 OA
ATOM     21  O   UNL     1      -9.055   6.734 129.448  0.00  0.00    +0.000 OA
ATOM     22  C   UNL     1      -9.627   7.972 129.306  0.00  0.00    +0.000 C 
ATOM     23  C   UNL     1     -10.995   7.470 129.474  0.00  0.00    +0.000 A 
ATOM     24  C   UNL     1     -11.879   7.982 128.357  0.00  0.00    +0.000 A 
ATOM     25  C   UNL     1     -13.177   8.374 128.458  0.00  0.00    +0.000 A 
ATOM     26  F   UNL     1     -13.887   8.792 127.387  0.00  0.00    +0.000 F 
ATOM     27  C   UNL     1     -13.577   8.337 129.762  0.00  0.00    +0.000 A 
ATOM     28  C   UNL     1     -12.619   7.632 130.927  0.00  0.00    +0.000 A 
ATOM     29  C   UNL     1     -11.190   6.903 130.763  0.00  0.00    +0.000 A 
ENDBRANCH  15  18
ENDBRANCH   5  10
BRANCH   1  30
ATOM     30  C   UNL     1      -5.322   3.470 125.026  0.00  0.00    +0.000 C 
BRANCH  30  33
ATOM     31  O   UNL     1      -8.967   3.246 125.206  0.00  0.00    +0.000 OA
ATOM     32  C   UNL     1      -7.798   2.911 125.433  0.00  0.00    +0.000 C 
ATOM     33  N   UNL     1      -6.764   3.709 124.916  0.00  0.00    +0.000 N 
ATOM     34  H   UNL     1      -7.109   4.522 124.418  0.00  0.00    +0.000 HD
BRANCH  32  35
ATOM     35  C   UNL     1      -7.488   1.614 126.256  0.00  0.00    +0.000 C 
BRANCH  35  36
ATOM     36  N   UNL     1      -7.011   0.432 125.478  0.00  0.00    +0.000 N 
ATOM     37  C   UNL     1      -7.841  -0.163 124.528  0.00  0.00    +0.000 A 
ATOM     38  C   UNL     1      -7.567  -1.372 124.000  0.00  0.00    +0.000 A 
ATOM     39  C   UNL     1      -6.279  -1.983 124.277  0.00  0.00    +0.000 A 
ATOM     40  C   UNL     1      -5.386  -1.357 125.051  0.00  0.00    +0.000 A 
ATOM     41  C   UNL     1      -5.781  -0.140 125.816  0.00  0.00    +0.000 A 
ATOM     42  O   UNL     1      -5.022   0.289 126.679  0.00  0.00    +0.000 OA
BRANCH  38  43
ATOM     43  C   UNL     1      -8.518  -2.141 123.125  0.00  0.00    +0.000 C 
ATOM     44  F   UNL     1      -8.190  -2.040 121.810  0.00  0.00    +0.000 F 
ATOM     45  F   UNL     1      -8.514  -3.467 123.423  0.00  0.00    +0.000 F 
ATOM     46  F   UNL     1      -9.801  -1.715 123.243  0.00  0.00    +0.000 F 
ENDBRANCH  38  43
ENDBRANCH  35  36
ENDBRANCH  32  35
ENDBRANCH  30  33
ENDBRANCH   1  30
TORSDOF 7
ENDMDL
MODEL 5
REMARK VINA RESULT:     -11.6      3.815      8.688
REMARK  Name = CHEMBL283039
REMARK  7 active torsions:
REMARK  status: ('A' for Active; 'I' for Inactive)
REMARK    1  A    between atoms: C_2  and  C_3
REMARK    2  A    between atoms: C_3  and  N_4
REMARK    3  A    between atoms: C_6  and  C_7
REMARK    4  A    between atoms: N_15  and  C_16
REMARK    5  A    between atoms: C_16  and  C_17
REMARK    6  A    between atoms: C_21  and  C_22
REMARK    7  A    between atoms: C_27  and  N_28
REMARK                            x       y       z     vdW  Elec       q    Type
REMARK                         _______ _______ _______ _____ _____    ______ ____
ROOT
ATOM      1  C   UNL     1      -5.945  -0.866 127.641  0.00  0.00    +0.000 A 
ATOM      2  C   UNL     1      -7.114  -1.610 127.475  0.00  0.00    +0.000 A 
ATOM      3  C   UNL     1      -7.408  -2.105 128.770  0.00  0.00    +0.000 A 
ATOM      4  C   UNL     1      -7.743  -1.442 129.986  0.00  0.00    +0.000 A 
ATOM      5  C   UNL     1      -7.520  -1.965 131.279  0.00  0.00    +0.000 A 
ATOM      6  C   UNL     1      -7.028  -3.261 131.334  0.00  0.00    +0.000 A 
ATOM      7  C   UNL     1      -6.411  -3.773 130.158  0.00  0.00    +0.000 A 
ATOM      8  C   UNL     1      -6.282  -2.881 129.024  0.00  0.00    +0.000 A 
ATOM      9  O   UNL     1      -5.283  -1.671 128.709  0.00  0.00    +0.000 OA
ENDROOT
BRANCH   5  10
ATOM     10  C   UNL     1      -7.633  -1.093 132.516  0.00  0.00    +0.000 C 
ATOM     11  O   UNL     1      -7.354  -1.586 133.608  0.00  0.00    +0.000 OA
ATOM     12  N   UNL     1      -7.990   0.278 132.339  0.00  0.00    +0.000 N 
ATOM     13  C   UNL     1      -7.111   1.406 132.701  0.00  0.00    +0.000 C 
ATOM     14  C   UNL     1      -7.913   2.603 133.285  0.00  0.00    +0.000 C 
ATOM     15  C   UNL     1      -9.137   3.299 132.142  0.00  0.00    +0.000 C 
ATOM     16  C   UNL     1      -9.984   1.803 132.095  0.00  0.00    +0.000 C 
ATOM     17  C   UNL     1      -9.134   0.662 131.522  0.00  0.00    +0.000 C 
BRANCH  15  18
ATOM     18  N   UNL     1      -9.089   4.925 131.215  0.00  0.00    +0.000 N 
ATOM     19  C   UNL     1      -8.407   4.150 130.239  0.00  0.00    +0.000 C 
ATOM     20  O   UNL     1      -7.376   3.447 130.371  0.00  0.00    +0.000 OA
ATOM     21  O   UNL     1      -9.144   3.944 129.160  0.00  0.00    +0.000 OA
ATOM     22  C   UNL     1      -8.613   4.941 128.383  0.00  0.00    +0.000 C 
ATOM     23  C   UNL     1      -9.707   5.879 128.664  0.00  0.00    +0.000 A 
ATOM     24  C   UNL     1     -10.241   6.458 127.372  0.00  0.00    +0.000 A 
ATOM     25  C   UNL     1     -10.661   7.734 127.162  0.00  0.00    +0.000 A 
ATOM     26  F   UNL     1     -11.148   8.144 125.970  0.00  0.00    +0.000 F 
ATOM     27  C   UNL     1     -10.446   8.487 128.279  0.00  0.00    +0.000 A 
ATOM     28  C   UNL     1      -9.994   7.773 129.713  0.00  0.00    +0.000 A 
ATOM     29  C   UNL     1      -9.769   6.212 130.045  0.00  0.00    +0.000 A 
ENDBRANCH  15  18
ENDBRANCH   5  10
BRANCH   1  30
ATOM     30  C   UNL     1      -5.320   0.017 126.491  0.00  0.00    +0.000 C 
BRANCH  30  33
ATOM     31  O   UNL     1      -4.444   3.561 126.677  0.00  0.00    +0.000 OA
ATOM     32  C   UNL     1      -5.189   2.584 126.540  0.00  0.00    +0.000 C 
ATOM     33  N   UNL     1      -4.632   1.300 126.661  0.00  0.00    +0.000 N 
ATOM     34  H   UNL     1      -3.644   1.322 126.887  0.00  0.00    +0.000 HD
BRANCH  32  35
ATOM     35  C   UNL     1      -6.710   2.781 126.215  0.00  0.00    +0.000 C 
BRANCH  35  36
ATOM     36  N   UNL     1      -7.083   2.796 124.770  0.00  0.00    +0.000 N 
ATOM     37  C   UNL     1      -6.138   3.145 123.805  0.00  0.00    +0.000 A 
ATOM     38  C   UNL     1      -6.488   3.431 122.535  0.00  0.00    +0.000 A 
ATOM     39  C   UNL     1      -7.852   3.179 122.110  0.00  0.00    +0.000 A 
ATOM     40  C   UNL     1      -8.748   2.680 122.971  0.00  0.00    +0.000 A 
ATOM     41  C   UNL     1      -8.421   2.588 124.422  0.00  0.00    +0.000 A 
ATOM     42  O   UNL     1      -9.321   2.336 125.216  0.00  0.00    +0.000 OA
BRANCH  38  43
ATOM     43  C   UNL     1      -5.543   3.996 121.511  0.00  0.00    +0.000 C 
ATOM     44  F   UNL     1      -6.197   4.706 120.556  0.00  0.00    +0.000 F 
ATOM     45  F   UNL     1      -4.641   4.843 122.074  0.00  0.00    +0.000 F 
ATOM     46  F   UNL     1      -4.831   3.036 120.867  0.00  0.00    +0.000 F 
ENDBRANCH  38  43
ENDBRANCH  35  36
ENDBRANCH  32  35
ENDBRANCH  30  33
ENDBRANCH   1  30
TORSDOF 7
ENDMDL
MODEL 6
REMARK VINA RESULT:     -11.5      2.180      8.498
REMARK  Name = CHEMBL283039
REMARK  7 active torsions:
REMARK  status: ('A' for Active; 'I' for Inactive)
REMARK    1  A    between atoms: C_2  and  C_3
REMARK    2  A    between atoms: C_3  and  N_4
REMARK    3  A    between atoms: C_6  and  C_7
REMARK    4  A    between atoms: N_15  and  C_16
REMARK    5  A    between atoms: C_16  and  C_17
REMARK    6  A    between atoms: C_21  and  C_22
REMARK    7  A    between atoms: C_27  and  N_28
REMARK                            x       y       z     vdW  Elec       q    Type
REMARK                         _______ _______ _______ _____ _____    ______ ____
ROOT
ATOM      1  C   UNL     1      -4.249   3.704 126.699  0.00  0.00    +0.000 A 
ATOM      2  C   UNL     1      -2.892   3.396 126.803  0.00  0.00    +0.000 A 
ATOM      3  C   UNL     1      -2.470   4.042 127.992  0.00  0.00    +0.000 A 
ATOM      4  C   UNL     1      -2.839   3.853 129.355  0.00  0.00    +0.000 A 
ATOM      5  C   UNL     1      -2.755   4.844 130.358  0.00  0.00    +0.000 A 
ATOM      6  C   UNL     1      -2.174   6.045 129.979  0.00  0.00    +0.000 A 
ATOM      7  C   UNL     1      -2.112   6.326 128.585  0.00  0.00    +0.000 A 
ATOM      8  C   UNL     1      -2.720   5.373 127.680  0.00  0.00    +0.000 A 
ATOM      9  O   UNL     1      -4.243   5.074 127.288  0.00  0.00    +0.000 OA
ENDROOT
BRANCH   5  10
ATOM     10  C   UNL     1      -3.430   4.666 131.706  0.00  0.00    +0.000 C 
ATOM     11  O   UNL     1      -2.740   4.323 132.665  0.00  0.00    +0.000 OA
ATOM     12  N   UNL     1      -4.820   4.974 131.805  0.00  0.00    +0.000 N 
ATOM     13  C   UNL     1      -5.362   6.045 132.664  0.00  0.00    +0.000 C 
ATOM     14  C   UNL     1      -6.717   5.642 133.310  0.00  0.00    +0.000 C 
ATOM     15  C   UNL     1      -8.028   5.283 132.110  0.00  0.00    +0.000 C 
ATOM     16  C   UNL     1      -7.112   3.982 131.456  0.00  0.00    +0.000 C 
ATOM     17  C   UNL     1      -5.782   4.445 130.848  0.00  0.00    +0.000 C 
BRANCH  15  18
ATOM     18  N   UNL     1      -9.541   6.299 131.683  0.00  0.00    +0.000 N 
ATOM     19  C   UNL     1      -8.650   6.927 130.773  0.00  0.00    +0.000 C 
ATOM     20  O   UNL     1      -7.545   7.475 131.004  0.00  0.00    +0.000 OA
ATOM     21  O   UNL     1      -8.919   6.619 129.515  0.00  0.00    +0.000 OA
ATOM     22  C   UNL     1      -9.641   7.741 129.202  0.00  0.00    +0.000 C 
ATOM     23  C   UNL     1     -10.938   7.083 129.395  0.00  0.00    +0.000 A 
ATOM     24  C   UNL     1     -11.832   7.330 128.199  0.00  0.00    +0.000 A 
ATOM     25  C   UNL     1     -13.172   7.552 128.214  0.00  0.00    +0.000 A 
ATOM     26  F   UNL     1     -13.884   7.737 127.079  0.00  0.00    +0.000 F 
ATOM     27  C   UNL     1     -13.621   7.621 129.500  0.00  0.00    +0.000 A 
ATOM     28  C   UNL     1     -12.631   7.199 130.771  0.00  0.00    +0.000 A 
ATOM     29  C   UNL     1     -11.114   6.656 130.740  0.00  0.00    +0.000 A 
ENDBRANCH  15  18
ENDBRANCH   5  10
BRANCH   1  30
ATOM     30  C   UNL     1      -5.192   3.065 125.607  0.00  0.00    +0.000 C 
BRANCH  30  33
ATOM     31  O   UNL     1      -8.725   2.150 125.401  0.00  0.00    +0.000 OA
ATOM     32  C   UNL     1      -7.504   1.961 125.385  0.00  0.00    +0.000 C 
ATOM     33  N   UNL     1      -6.658   3.057 125.624  0.00  0.00    +0.000 N 
ATOM     34  H   UNL     1      -7.169   3.911 125.821  0.00  0.00    +0.000 HD
BRANCH  32  35
ATOM     35  C   UNL     1      -6.921   0.538 125.082  0.00  0.00    +0.000 C 
BRANCH  35  36
ATOM     36  N   UNL     1      -7.741  -0.625 125.533  0.00  0.00    +0.000 N 
ATOM     37  C   UNL     1      -7.729  -1.013 126.873  0.00  0.00    +0.000 A 
ATOM     38  C   UNL     1      -8.231  -2.197 127.276  0.00  0.00    +0.000 A 
ATOM     39  C   UNL     1      -8.977  -3.002 126.326  0.00  0.00    +0.000 A 
ATOM     40  C   UNL     1      -9.154  -2.577 125.070  0.00  0.00    +0.000 A 
ATOM     41  C   UNL     1      -8.405  -1.389 124.570  0.00  0.00    +0.000 A 
ATOM     42  O   UNL     1      -8.415  -1.148 123.367  0.00  0.00    +0.000 OA
BRANCH  38  43
ATOM     43  C   UNL     1      -8.072  -2.746 128.667  0.00  0.00    +0.000 C 
ATOM     44  F   UNL     1      -6.853  -3.317 128.849  0.00  0.00    +0.000 F 
ATOM     45  F   UNL     1      -8.188  -1.772 129.607  0.00  0.00    +0.000 F 
ATOM     46  F   UNL     1      -8.996  -3.694 128.966  0.00  0.00    +0.000 F 
ENDBRANCH  38  43
ENDBRANCH  35  36
ENDBRANCH  32  35
ENDBRANCH  30  33
ENDBRANCH   1  30
TORSDOF 7
ENDMDL
MODEL 7
REMARK VINA RESULT:     -11.5      4.560      6.387
REMARK  Name = CHEMBL283039
REMARK  7 active torsions:
REMARK  status: ('A' for Active; 'I' for Inactive)
REMARK    1  A    between atoms: C_2  and  C_3
REMARK    2  A    between atoms: C_3  and  N_4
REMARK    3  A    between atoms: C_6  and  C_7
REMARK    4  A    between atoms: N_15  and  C_16
REMARK    5  A    between atoms: C_16  and  C_17
REMARK    6  A    between atoms: C_21  and  C_22
REMARK    7  A    between atoms: C_27  and  N_28
REMARK                            x       y       z     vdW  Elec       q    Type
REMARK                         _______ _______ _______ _____ _____    ______ ____
ROOT
ATOM      1  C   UNL     1      -3.683   4.630 127.796  0.00  0.00    +0.000 A 
ATOM      2  C   UNL     1      -2.639   5.483 128.154  0.00  0.00    +0.000 A 
ATOM      3  C   UNL     1      -2.908   5.831 129.501  0.00  0.00    +0.000 A 
ATOM      4  C   UNL     1      -2.964   5.046 130.690  0.00  0.00    +0.000 A 
ATOM      5  C   UNL     1      -3.712   5.378 131.841  0.00  0.00    +0.000 A 
ATOM      6  C   UNL     1      -4.349   6.610 131.819  0.00  0.00    +0.000 A 
ATOM      7  C   UNL     1      -4.548   7.216 130.546  0.00  0.00    +0.000 A 
ATOM      8  C   UNL     1      -4.136   6.470 129.375  0.00  0.00    +0.000 A 
ATOM      9  O   UNL     1      -4.787   5.231 128.598  0.00  0.00    +0.000 OA
ENDROOT
BRANCH   5  10
ATOM     10  C   UNL     1      -3.955   4.366 132.946  0.00  0.00    +0.000 C 
ATOM     11  O   UNL     1      -3.634   4.666 134.095  0.00  0.00    +0.000 OA
ATOM     12  N   UNL     1      -4.608   3.144 132.604  0.00  0.00    +0.000 N 
ATOM     13  C   UNL     1      -5.917   2.735 133.148  0.00  0.00    +0.000 C 
ATOM     14  C   UNL     1      -5.984   1.205 133.413  0.00  0.00    +0.000 C 
ATOM     15  C   UNL     1      -5.746   0.189 131.930  0.00  0.00    +0.000 C 
ATOM     16  C   UNL     1      -4.163   0.827 131.714  0.00  0.00    +0.000 C 
ATOM     17  C   UNL     1      -4.166   2.341 131.472  0.00  0.00    +0.000 C 
BRANCH  15  18
ATOM     18  N   UNL     1      -7.008  -0.812 130.976  0.00  0.00    +0.000 N 
ATOM     19  C   UNL     1      -7.072   0.356 130.171  0.00  0.00    +0.000 C 
ATOM     20  O   UNL     1      -7.308   1.539 130.516  0.00  0.00    +0.000 OA
ATOM     21  O   UNL     1      -6.525   0.173 128.980  0.00  0.00    +0.000 OA
ATOM     22  C   UNL     1      -7.681  -0.072 128.284  0.00  0.00    +0.000 C 
ATOM     23  C   UNL     1      -7.515  -1.530 128.325  0.00  0.00    +0.000 A 
ATOM     24  C   UNL     1      -7.679  -2.112 126.938  0.00  0.00    +0.000 A 
ATOM     25  C   UNL     1      -8.283  -3.285 126.612  0.00  0.00    +0.000 A 
ATOM     26  F   UNL     1      -8.354  -3.728 125.336  0.00  0.00    +0.000 F 
ATOM     27  C   UNL     1      -8.830  -3.855 127.724  0.00  0.00    +0.000 A 
ATOM     28  C   UNL     1      -8.498  -3.253 129.240  0.00  0.00    +0.000 A 
ATOM     29  C   UNL     1      -7.543  -2.023 129.658  0.00  0.00    +0.000 A 
ENDBRANCH  15  18
ENDBRANCH   5  10
BRANCH   1  30
ATOM     30  C   UNL     1      -3.723   3.853 126.423  0.00  0.00    +0.000 C 
BRANCH  30  33
ATOM     31  O   UNL     1      -5.037   0.473 125.955  0.00  0.00    +0.000 OA
ATOM     32  C   UNL     1      -5.085   1.706 126.040  0.00  0.00    +0.000 C 
ATOM     33  N   UNL     1      -3.885   2.406 126.249  0.00  0.00    +0.000 N 
ATOM     34  H   UNL     1      -3.076   1.797 126.277  0.00  0.00    +0.000 HD
BRANCH  32  35
ATOM     35  C   UNL     1      -6.457   2.458 125.941  0.00  0.00    +0.000 C 
BRANCH  35  36
ATOM     36  N   UNL     1      -7.064   2.553 124.580  0.00  0.00    +0.000 N 
ATOM     37  C   UNL     1      -6.266   2.852 123.476  0.00  0.00    +0.000 A 
ATOM     38  C   UNL     1      -6.797   3.208 122.289  0.00  0.00    +0.000 A 
ATOM     39  C   UNL     1      -8.230   3.088 122.098  0.00  0.00    +0.000 A 
ATOM     40  C   UNL     1      -9.011   2.639 123.088  0.00  0.00    +0.000 A 
ATOM     41  C   UNL     1      -8.454   2.471 124.461  0.00  0.00    +0.000 A 
ATOM     42  O   UNL     1      -9.228   2.271 125.392  0.00  0.00    +0.000 OA
BRANCH  38  43
ATOM     43  C   UNL     1      -5.990   3.724 121.130  0.00  0.00    +0.000 C 
ATOM     44  F   UNL     1      -5.162   4.736 121.500  0.00  0.00    +0.000 F 
ATOM     45  F   UNL     1      -5.201   2.754 120.596  0.00  0.00    +0.000 F 
ATOM     46  F   UNL     1      -6.764   4.200 120.122  0.00  0.00    +0.000 F 
ENDBRANCH  38  43
ENDBRANCH  35  36
ENDBRANCH  32  35
ENDBRANCH  30  33
ENDBRANCH   1  30
TORSDOF 7
ENDMDL
MODEL 8
REMARK VINA RESULT:     -11.4      4.965      6.805
REMARK  Name = CHEMBL283039
REMARK  7 active torsions:
REMARK  status: ('A' for Active; 'I' for Inactive)
REMARK    1  A    between atoms: C_2  and  C_3
REMARK    2  A    between atoms: C_3  and  N_4
REMARK    3  A    between atoms: C_6  and  C_7
REMARK    4  A    between atoms: N_15  and  C_16
REMARK    5  A    between atoms: C_16  and  C_17
REMARK    6  A    between atoms: C_21  and  C_22
REMARK    7  A    between atoms: C_27  and  N_28
REMARK                            x       y       z     vdW  Elec       q    Type
REMARK                         _______ _______ _______ _____ _____    ______ ____
ROOT
ATOM      1  C   UNL     1      -3.611   4.584 127.709  0.00  0.00    +0.000 A 
ATOM      2  C   UNL     1      -2.634   5.513 128.066  0.00  0.00    +0.000 A 
ATOM      3  C   UNL     1      -2.908   5.814 129.424  0.00  0.00    +0.000 A 
ATOM      4  C   UNL     1      -2.880   5.006 130.598  0.00  0.00    +0.000 A 
ATOM      5  C   UNL     1      -3.633   5.255 131.767  0.00  0.00    +0.000 A 
ATOM      6  C   UNL     1      -4.367   6.432 131.778  0.00  0.00    +0.000 A 
ATOM      7  C   UNL     1      -4.636   7.042 130.520  0.00  0.00    +0.000 A 
ATOM      8  C   UNL     1      -4.185   6.353 129.329  0.00  0.00    +0.000 A 
ATOM      9  O   UNL     1      -4.747   5.080 128.539  0.00  0.00    +0.000 OA
ENDROOT
BRANCH   5  10
ATOM     10  C   UNL     1      -3.774   4.208 132.857  0.00  0.00    +0.000 C 
ATOM     11  O   UNL     1      -3.363   4.477 133.984  0.00  0.00    +0.000 OA
ATOM     12  N   UNL     1      -4.441   2.989 132.531  0.00  0.00    +0.000 N 
ATOM     13  C   UNL     1      -5.697   2.547 133.167  0.00  0.00    +0.000 C 
ATOM     14  C   UNL     1      -5.727   1.009 133.389  0.00  0.00    +0.000 C 
ATOM     15  C   UNL     1      -5.601   0.041 131.861  0.00  0.00    +0.000 C 
ATOM     16  C   UNL     1      -4.047   0.705 131.536  0.00  0.00    +0.000 C 
ATOM     17  C   UNL     1      -4.085   2.226 131.342  0.00  0.00    +0.000 C 
BRANCH  15  18
ATOM     18  N   UNL     1      -6.926  -0.947 130.982  0.00  0.00    +0.000 N 
ATOM     19  C   UNL     1      -7.053   0.237 130.208  0.00  0.00    +0.000 C 
ATOM     20  O   UNL     1      -7.267   1.412 130.594  0.00  0.00    +0.000 OA
ATOM     21  O   UNL     1      -6.595   0.081 128.976  0.00  0.00    +0.000 OA
ATOM     22  C   UNL     1      -7.799  -0.155 128.363  0.00  0.00    +0.000 C 
ATOM     23  C   UNL     1      -7.625  -1.613 128.362  0.00  0.00    +0.000 A 
ATOM     24  C   UNL     1      -7.890  -2.168 126.978  0.00  0.00    +0.000 A 
ATOM     25  C   UNL     1      -8.513  -3.336 126.674  0.00  0.00    +0.000 A 
ATOM     26  F   UNL     1      -8.676  -3.754 125.398  0.00  0.00    +0.000 F 
ATOM     27  C   UNL     1      -8.974  -3.932 127.811  0.00  0.00    +0.000 A 
ATOM     28  C   UNL     1      -8.532  -3.359 129.311  0.00  0.00    +0.000 A 
ATOM     29  C   UNL     1      -7.553  -2.133 129.683  0.00  0.00    +0.000 A 
ENDBRANCH  15  18
ENDBRANCH   5  10
BRANCH   1  30
ATOM     30  C   UNL     1      -3.612   3.831 126.321  0.00  0.00    +0.000 C 
BRANCH  30  33
ATOM     31  O   UNL     1      -6.343   3.672 123.896  0.00  0.00    +0.000 OA
ATOM     32  C   UNL     1      -5.706   3.355 124.907  0.00  0.00    +0.000 C 
ATOM     33  N   UNL     1      -4.534   4.069 125.206  0.00  0.00    +0.000 N 
ATOM     34  H   UNL     1      -4.352   4.816 124.546  0.00  0.00    +0.000 HD
BRANCH  32  35
ATOM     35  C   UNL     1      -6.188   2.170 125.814  0.00  0.00    +0.000 C 
BRANCH  35  36
ATOM     36  N   UNL     1      -7.157   1.216 125.199  0.00  0.00    +0.000 N 
ATOM     37  C   UNL     1      -6.697   0.076 124.539  0.00  0.00    +0.000 A 
ATOM     38  C   UNL     1      -7.501  -0.663 123.750  0.00  0.00    +0.000 A 
ATOM     39  C   UNL     1      -8.925  -0.383 123.739  0.00  0.00    +0.000 A 
ATOM     40  C   UNL     1      -9.427   0.601 124.495  0.00  0.00    +0.000 A 
ATOM     41  C   UNL     1      -8.513   1.558 125.180  0.00  0.00    +0.000 A 
ATOM     42  O   UNL     1      -8.987   2.571 125.685  0.00  0.00    +0.000 OA
BRANCH  38  43
ATOM     43  C   UNL     1      -7.014  -1.781 122.869  0.00  0.00    +0.000 C 
ATOM     44  F   UNL     1      -6.556  -2.834 123.595  0.00  0.00    +0.000 F 
ATOM     45  F   UNL     1      -8.006  -2.262 122.074  0.00  0.00    +0.000 F 
ATOM     46  F   UNL     1      -6.002  -1.400 122.049  0.00  0.00    +0.000 F 
ENDBRANCH  38  43
ENDBRANCH  35  36
ENDBRANCH  32  35
ENDBRANCH  30  33
ENDBRANCH   1  30
TORSDOF 7
ENDMDL
MODEL 9
REMARK VINA RESULT:     -11.4      3.568      8.808
REMARK  Name = CHEMBL283039
REMARK  7 active torsions:
REMARK  status: ('A' for Active; 'I' for Inactive)
REMARK    1  A    between atoms: C_2  and  C_3
REMARK    2  A    between atoms: C_3  and  N_4
REMARK    3  A    between atoms: C_6  and  C_7
REMARK    4  A    between atoms: N_15  and  C_16
REMARK    5  A    between atoms: C_16  and  C_17
REMARK    6  A    between atoms: C_21  and  C_22
REMARK    7  A    between atoms: C_27  and  N_28
REMARK                            x       y       z     vdW  Elec       q    Type
REMARK                         _______ _______ _______ _____ _____    ______ ____
ROOT
ATOM      1  C   UNL     1      -6.991  -2.423 127.684  0.00  0.00    +0.000 A 
ATOM      2  C   UNL     1      -8.215  -2.701 128.292  0.00  0.00    +0.000 A 
ATOM      3  C   UNL     1      -8.004  -2.417 129.665  0.00  0.00    +0.000 A 
ATOM      4  C   UNL     1      -7.693  -1.204 130.345  0.00  0.00    +0.000 A 
ATOM      5  C   UNL     1      -7.025  -1.125 131.587  0.00  0.00    +0.000 A 
ATOM      6  C   UNL     1      -6.752  -2.333 132.209  0.00  0.00    +0.000 A 
ATOM      7  C   UNL     1      -6.772  -3.503 131.397  0.00  0.00    +0.000 A 
ATOM      8  C   UNL     1      -7.005  -3.331 129.978  0.00  0.00    +0.000 A 
ATOM      9  O   UNL     1      -6.066  -2.829 128.782  0.00  0.00    +0.000 OA
ENDROOT
BRANCH   5  10
ATOM     10  C   UNL     1      -6.475   0.191 132.107  0.00  0.00    +0.000 C 
ATOM     11  O   UNL     1      -5.332   0.210 132.559  0.00  0.00    +0.000 OA
ATOM     12  N   UNL     1      -7.291   1.355 131.979  0.00  0.00    +0.000 N 
ATOM     13  C   UNL     1      -6.919   2.532 131.171  0.00  0.00    +0.000 C 
ATOM     14  C   UNL     1      -7.360   3.862 131.842  0.00  0.00    +0.000 C 
ATOM     15  C   UNL     1      -9.151   4.003 132.091  0.00  0.00    +0.000 C 
ATOM     16  C   UNL     1      -9.144   2.627 133.124  0.00  0.00    +0.000 C 
ATOM     17  C   UNL     1      -8.685   1.353 132.405  0.00  0.00    +0.000 C 
BRANCH  15  18
ATOM     18  N   UNL     1     -10.384   5.079 131.181  0.00  0.00    +0.000 N 
ATOM     19  C   UNL     1      -9.357   6.053 131.295  0.00  0.00    +0.000 C 
ATOM     20  O   UNL     1      -8.773   6.465 132.326  0.00  0.00    +0.000 OA
ATOM     21  O   UNL     1      -8.783   6.312 130.132  0.00  0.00    +0.000 OA
ATOM     22  C   UNL     1      -9.489   7.448 129.829  0.00  0.00    +0.000 C 
ATOM     23  C   UNL     1     -10.428   6.749 128.944  0.00  0.00    +0.000 A 
ATOM     24  C   UNL     1     -10.533   7.474 127.619  0.00  0.00    +0.000 A 
ATOM     25  C   UNL     1     -11.654   7.645 126.870  0.00  0.00    +0.000 A 
ATOM     26  F   UNL     1     -11.634   8.290 125.682  0.00  0.00    +0.000 F 
ATOM     27  C   UNL     1     -12.739   7.145 127.529  0.00  0.00    +0.000 A 
ATOM     28  C   UNL     1     -12.551   6.233 128.909  0.00  0.00    +0.000 A 
ATOM     29  C   UNL     1     -11.192   5.781 129.651  0.00  0.00    +0.000 A 
ENDBRANCH  15  18
ENDBRANCH   5  10
BRANCH   1  30
ATOM     30  C   UNL     1      -6.787  -2.439 126.119  0.00  0.00    +0.000 C 
BRANCH  30  33
ATOM     31  O   UNL     1      -9.690  -2.444 123.895  0.00  0.00    +0.000 OA
ATOM     32  C   UNL     1      -8.907  -1.985 124.735  0.00  0.00    +0.000 C 
ATOM     33  N   UNL     1      -7.805  -2.769 125.115  0.00  0.00    +0.000 N 
ATOM     34  H   UNL     1      -7.758  -3.649 124.614  0.00  0.00    +0.000 HD
BRANCH  32  35
ATOM     35  C   UNL     1      -9.157  -0.575 125.371  0.00  0.00    +0.000 C 
BRANCH  35  36
ATOM     36  N   UNL     1      -8.663   0.601 124.594  0.00  0.00    +0.000 N 
ATOM     37  C   UNL     1      -7.457   1.212 124.938  0.00  0.00    +0.000 A 
ATOM     38  C   UNL     1      -7.105   2.418 124.449  0.00  0.00    +0.000 A 
ATOM     39  C   UNL     1      -7.905   3.006 123.390  0.00  0.00    +0.000 A 
ATOM     40  C   UNL     1      -8.979   2.363 122.916  0.00  0.00    +0.000 A 
ATOM     41  C   UNL     1      -9.494   1.152 123.614  0.00  0.00    +0.000 A 
ATOM     42  O   UNL     1     -10.593   0.708 123.296  0.00  0.00    +0.000 OA
BRANCH  38  43
ATOM     43  C   UNL     1      -5.917   3.204 124.931  0.00  0.00    +0.000 C 
ATOM     44  F   UNL     1      -6.248   4.056 125.935  0.00  0.00    +0.000 F 
ATOM     45  F   UNL     1      -4.942   2.392 125.418  0.00  0.00    +0.000 F 
ATOM     46  F   UNL     1      -5.352   3.954 123.951  0.00  0.00    +0.000 F 
ENDBRANCH  38  43
ENDBRANCH  35  36
ENDBRANCH  32  35
ENDBRANCH  30  33
ENDBRANCH   1  30
TORSDOF 7
ENDMDL
