MODEL 1
REMARK VINA RESULT:      -8.9      0.000      0.000
REMARK  Name = CHEMBL2037502
REMARK  11 active torsions:
REMARK  status: ('A' for Active; 'I' for Inactive)
REMARK    1  A    between atoms: CD1_1  and  CG1_2
REMARK    2  A    between atoms: CG1_2  and  CB_3
REMARK    3  A    between atoms: CB_3  and  CG2_4
REMARK    4  A    between atoms: CB_3  and  CA_5
REMARK    5  A    between atoms: C_9  and  C_10
REMARK    6  A    between atoms: N_21  and  C_22
REMARK    7  A    between atoms: C_22  and  C_23
REMARK    8  A    between atoms: C_22  and  C_28
REMARK    9  A    between atoms: N_25  and  C_26
REMARK   10  A    between atoms: N_25  and  C_27
REMARK   11  A    between atoms: C_31  and  C_32
REMARK                            x       y       z     vdW  Elec       q    Type
REMARK                         _______ _______ _______ _____ _____    ______ ____
ROOT
ATOM      1  CA  ILE A   2      -8.651   2.052 129.469  0.00  0.00    +0.000 C 
ATOM      2  C   ILE A   2      -7.939   0.938 128.689  0.00  0.00    +0.000 C 
ATOM      3  O   ILE A   2      -7.924  -0.247 128.850  0.00  0.00    +0.000 OA
ATOM      4  N   UNK A   1      -7.196   1.457 127.706  0.00  0.00    +0.000 N 
ATOM      5  C   UNK A   1      -7.667   2.605 127.006  0.00  0.00    +0.000 C 
ATOM      6  C   UNK A   1      -7.608   3.783 127.948  0.00  0.00    +0.000 C 
ATOM      7  O   UNK A   1      -7.336   4.869 127.461  0.00  0.00    +0.000 OA
ATOM      8  N   ILE A   2      -7.966   3.487 129.284  0.00  0.00    +0.000 N 
ATOM      9  H   UNK A   1      -6.630   0.728 127.307  0.00  0.00    +0.000 HD
ENDROOT
BRANCH   5  10
ATOM     10  C   UNK A   1      -6.831   2.858 125.753  0.00  0.00    +0.000 C 
ATOM     11  C   UNK A   1      -7.796   3.428 124.698  0.00  0.00    +0.000 C 
ATOM     12  C   UNK A   1      -8.237   2.170 123.995  0.00  0.00    +0.000 A 
ATOM     13  C   UNK A   1      -9.469   1.932 123.403  0.00  0.00    +0.000 A 
ATOM     14  C   UNK A   1      -9.768   0.631 122.992  0.00  0.00    +0.000 A 
ATOM     15  C   UNK A   1      -8.854  -0.417 123.195  0.00  0.00    +0.000 A 
ATOM     16  C   UNK A   1      -7.644  -0.190 123.853  0.00  0.00    +0.000 A 
ATOM     17  C   UNK A   1      -7.353   1.105 124.255  0.00  0.00    +0.000 A 
ATOM     18  C   UNK A   1      -6.232   1.558 125.145  0.00  0.00    +0.000 C 
ENDBRANCH   5  10
BRANCH   1  19
ATOM     19  CB  ILE A   2      -8.608   1.553 130.889  0.00  0.00    +0.000 C 
ATOM     20  CG2 ILE A   2      -7.143   1.445 131.386  0.00  0.00    +0.000 C 
BRANCH  19  22
ATOM     21  CD1 ILE A   2      -9.270   2.619 133.126  0.00  0.00    +0.000 C 
ATOM     22  CG1 ILE A   2      -9.810   1.834 131.882  0.00  0.00    +0.000 C 
ENDBRANCH  19  22
ENDBRANCH   1  19
BRANCH   8  23
ATOM     23  C   UNK A   0      -7.753   4.578 130.430  0.00  0.00    +0.000 C 
BRANCH  23  24
ATOM     24  C   UNK A   0      -9.042   5.473 130.636  0.00  0.00    +0.000 A 
ATOM     25  C   UNK A   0      -9.457   5.903 131.914  0.00  0.00    +0.000 A 
ATOM     26  C   UNK A   0     -10.747   6.425 132.112  0.00  0.00    +0.000 A 
ATOM     27  C   UNK A   0     -11.596   6.653 131.023  0.00  0.00    +0.000 A 
ATOM     28  C   UNK A   0     -12.947   7.264 131.123  0.00  0.00    +0.000 C 
ATOM     29  N   UNK A   0     -11.181   6.324 129.751  0.00  0.00    +0.000 N 
ATOM     30  O   UNK A   0     -11.910   6.538 128.727  0.00  0.00    +0.000 OA
ATOM     31  C   UNK A   0      -9.939   5.738 129.588  0.00  0.00    +0.000 A 
ENDBRANCH  23  24
BRANCH  23  32
ATOM     32  C   UNK A   0      -6.382   5.596 130.338  0.00  0.00    +0.000 C 
ATOM     33  O   UNK A   0      -6.501   6.827 130.291  0.00  0.00    +0.000 OA
ATOM     34  N   UNK A   0      -5.058   5.140 130.233  0.00  0.00    +0.000 N 
ATOM     35  C   UNK A   0      -4.667   3.772 130.262  0.00  0.00    +0.000 C 
ATOM     36  C   UNK A   0      -4.034   6.021 129.651  0.00  0.00    +0.000 C 
ENDBRANCH  23  32
ENDBRANCH   8  23
TORSDOF 6
ENDMDL
MODEL 2
REMARK VINA RESULT:      -8.7      2.211      7.606
REMARK  Name = CHEMBL2037502
REMARK  11 active torsions:
REMARK  status: ('A' for Active; 'I' for Inactive)
REMARK    1  A    between atoms: CD1_1  and  CG1_2
REMARK    2  A    between atoms: CG1_2  and  CB_3
REMARK    3  A    between atoms: CB_3  and  CG2_4
REMARK    4  A    between atoms: CB_3  and  CA_5
REMARK    5  A    between atoms: C_9  and  C_10
REMARK    6  A    between atoms: N_21  and  C_22
REMARK    7  A    between atoms: C_22  and  C_23
REMARK    8  A    between atoms: C_22  and  C_28
REMARK    9  A    between atoms: N_25  and  C_26
REMARK   10  A    between atoms: N_25  and  C_27
REMARK   11  A    between atoms: C_31  and  C_32
REMARK                            x       y       z     vdW  Elec       q    Type
REMARK                         _______ _______ _______ _____ _____    ______ ____
ROOT
ATOM      1  CA  ILE A   2      -7.549   2.589 126.517  0.00  0.00    +0.000 C 
ATOM      2  C   ILE A   2      -7.618   3.999 127.120  0.00  0.00    +0.000 C 
ATOM      3  O   ILE A   2      -7.515   5.077 126.611  0.00  0.00    +0.000 OA
ATOM      4  N   UNK A   1      -7.778   3.933 128.446  0.00  0.00    +0.000 N 
ATOM      5  C   UNK A   1      -8.584   2.898 129.001  0.00  0.00    +0.000 C 
ATOM      6  C   UNK A   1      -7.853   1.589 128.819  0.00  0.00    +0.000 C 
ATOM      7  O   UNK A   1      -7.985   0.754 129.701  0.00  0.00    +0.000 OA
ATOM      8  N   ILE A   2      -7.168   1.464 127.589  0.00  0.00    +0.000 N 
ATOM      9  H   UNK A   1      -7.673   4.856 128.831  0.00  0.00    +0.000 HD
ENDROOT
BRANCH   5  10
ATOM     10  C   UNK A   1      -8.873   3.168 130.476  0.00  0.00    +0.000 C 
ATOM     11  C   UNK A   1     -10.402   3.301 130.599  0.00  0.00    +0.000 C 
ATOM     12  C   UNK A   1     -10.581   4.788 130.423  0.00  0.00    +0.000 A 
ATOM     13  C   UNK A   1     -11.667   5.437 129.855  0.00  0.00    +0.000 A 
ATOM     14  C   UNK A   1     -11.556   6.803 129.583  0.00  0.00    +0.000 A 
ATOM     15  C   UNK A   1     -10.366   7.498 129.855  0.00  0.00    +0.000 A 
ATOM     16  C   UNK A   1      -9.251   6.829 130.362  0.00  0.00    +0.000 A 
ATOM     17  C   UNK A   1      -9.369   5.474 130.633  0.00  0.00    +0.000 A 
ATOM     18  C   UNK A   1      -8.272   4.510 130.982  0.00  0.00    +0.000 C 
ENDBRANCH   5  10
BRANCH   1  19
ATOM     19  CB  ILE A   2      -6.524   2.738 125.423  0.00  0.00    +0.000 C 
ATOM     20  CG2 ILE A   2      -5.104   2.902 126.024  0.00  0.00    +0.000 C 
BRANCH  19  22
ATOM     21  CD1 ILE A   2      -8.239   1.573 123.912  0.00  0.00    +0.000 C 
ATOM     22  CG1 ILE A   2      -6.760   2.085 123.999  0.00  0.00    +0.000 C 
ENDBRANCH  19  22
ENDBRANCH   1  19
BRANCH   8  23
ATOM     23  C   UNK A   0      -6.186   0.229 127.342  0.00  0.00    +0.000 C 
BRANCH  23  24
ATOM     24  C   UNK A   0      -6.826  -0.846 126.372  0.00  0.00    +0.000 A 
ATOM     25  C   UNK A   0      -6.132  -1.351 125.253  0.00  0.00    +0.000 A 
ATOM     26  C   UNK A   0      -6.810  -2.056 124.244  0.00  0.00    +0.000 A 
ATOM     27  C   UNK A   0      -8.162  -2.387 124.396  0.00  0.00    +0.000 A 
ATOM     28  C   UNK A   0      -8.945  -3.187 123.419  0.00  0.00    +0.000 C 
ATOM     29  N   UNK A   0      -8.844  -1.982 125.521  0.00  0.00    +0.000 N 
ATOM     30  O   UNK A   0     -10.068  -2.282 125.713  0.00  0.00    +0.000 OA
ATOM     31  C   UNK A   0      -8.177  -1.221 126.465  0.00  0.00    +0.000 A 
ENDBRANCH  23  24
BRANCH  23  32
ATOM     32  C   UNK A   0      -5.533  -0.575 128.703  0.00  0.00    +0.000 C 
ATOM     33  O   UNK A   0      -5.847  -1.742 128.968  0.00  0.00    +0.000 OA
ATOM     34  N   UNK A   0      -4.678   0.022 129.645  0.00  0.00    +0.000 N 
ATOM     35  C   UNK A   0      -4.180   1.351 129.559  0.00  0.00    +0.000 C 
ATOM     36  C   UNK A   0      -4.592  -0.542 131.000  0.00  0.00    +0.000 C 
ENDBRANCH  23  32
ENDBRANCH   8  23
TORSDOF 6
ENDMDL
MODEL 3
REMARK VINA RESULT:      -8.4      2.882      4.341
REMARK  Name = CHEMBL2037502
REMARK  11 active torsions:
REMARK  status: ('A' for Active; 'I' for Inactive)
REMARK    1  A    between atoms: CD1_1  and  CG1_2
REMARK    2  A    between atoms: CG1_2  and  CB_3
REMARK    3  A    between atoms: CB_3  and  CG2_4
REMARK    4  A    between atoms: CB_3  and  CA_5
REMARK    5  A    between atoms: C_9  and  C_10
REMARK    6  A    between atoms: N_21  and  C_22
REMARK    7  A    between atoms: C_22  and  C_23
REMARK    8  A    between atoms: C_22  and  C_28
REMARK    9  A    between atoms: N_25  and  C_26
REMARK   10  A    between atoms: N_25  and  C_27
REMARK   11  A    between atoms: C_31  and  C_32
REMARK                            x       y       z     vdW  Elec       q    Type
REMARK                         _______ _______ _______ _____ _____    ______ ____
ROOT
ATOM      1  CA  ILE A   2      -7.129   1.533 131.649  0.00  0.00    +0.000 C 
ATOM      2  C   ILE A   2      -6.451   0.156 131.665  0.00  0.00    +0.000 C 
ATOM      3  O   ILE A   2      -6.044  -0.508 132.572  0.00  0.00    +0.000 OA
ATOM      4  N   UNK A   1      -6.279  -0.293 130.418  0.00  0.00    +0.000 N 
ATOM      5  C   UNK A   1      -7.270  -0.017 129.432  0.00  0.00    +0.000 C 
ATOM      6  C   UNK A   1      -7.222   1.460 129.123  0.00  0.00    +0.000 C 
ATOM      7  O   UNK A   1      -7.457   1.793 127.972  0.00  0.00    +0.000 OA
ATOM      8  N   ILE A   2      -6.990   2.288 130.245  0.00  0.00    +0.000 N 
ATOM      9  H   UNK A   1      -5.706  -1.120 130.447  0.00  0.00    +0.000 HD
ENDROOT
BRANCH   5  10
ATOM     10  C   UNK A   1      -7.033  -0.852 128.176  0.00  0.00    +0.000 C 
ATOM     11  C   UNK A   1      -7.723  -2.207 128.421  0.00  0.00    +0.000 C 
ATOM     12  C   UNK A   1      -6.591  -3.008 129.013  0.00  0.00    +0.000 A 
ATOM     13  C   UNK A   1      -6.689  -4.027 129.948  0.00  0.00    +0.000 A 
ATOM     14  C   UNK A   1      -5.515  -4.503 130.537  0.00  0.00    +0.000 A 
ATOM     15  C   UNK A   1      -4.267  -3.947 130.208  0.00  0.00    +0.000 A 
ATOM     16  C   UNK A   1      -4.177  -2.876 129.318  0.00  0.00    +0.000 A 
ATOM     17  C   UNK A   1      -5.347  -2.411 128.735  0.00  0.00    +0.000 A 
ATOM     18  C   UNK A   1      -5.531  -1.163 127.921  0.00  0.00    +0.000 C 
ENDBRANCH   5  10
BRANCH   1  19
ATOM     19  CB  ILE A   2      -6.453   2.258 132.783  0.00  0.00    +0.000 C 
ATOM     20  CG2 ILE A   2      -4.978   2.575 132.425  0.00  0.00    +0.000 C 
BRANCH  19  22
ATOM     21  CD1 ILE A   2      -8.813   3.007 133.452  0.00  0.00    +0.000 C 
ATOM     22  CG1 ILE A   2      -7.288   3.169 133.774  0.00  0.00    +0.000 C 
ENDBRANCH  19  22
ENDBRANCH   1  19
BRANCH   8  23
ATOM     23  C   UNK A   0      -6.708   3.847 130.044  0.00  0.00    +0.000 C 
BRANCH  23  24
ATOM     24  C   UNK A   0      -7.999   4.719 130.328  0.00  0.00    +0.000 A 
ATOM     25  C   UNK A   0      -7.953   5.887 131.117  0.00  0.00    +0.000 A 
ATOM     26  C   UNK A   0      -9.134   6.468 131.609  0.00  0.00    +0.000 A 
ATOM     27  C   UNK A   0     -10.385   5.978 131.214  0.00  0.00    +0.000 A 
ATOM     28  C   UNK A   0     -11.686   6.567 131.623  0.00  0.00    +0.000 C 
ATOM     29  N   UNK A   0     -10.458   4.891 130.371  0.00  0.00    +0.000 N 
ATOM     30  O   UNK A   0     -11.575   4.427 129.965  0.00  0.00    +0.000 OA
ATOM     31  C   UNK A   0      -9.284   4.286 129.963  0.00  0.00    +0.000 A 
ENDBRANCH  23  24
BRANCH  23  32
ATOM     32  C   UNK A   0      -6.006   4.363 128.573  0.00  0.00    +0.000 C 
ATOM     33  O   UNK A   0      -6.694   4.871 127.678  0.00  0.00    +0.000 OA
ATOM     34  N   UNK A   0      -4.653   4.190 128.233  0.00  0.00    +0.000 N 
ATOM     35  C   UNK A   0      -3.667   3.630 129.092  0.00  0.00    +0.000 C 
ATOM     36  C   UNK A   0      -4.261   4.176 126.817  0.00  0.00    +0.000 C 
ENDBRANCH  23  32
ENDBRANCH   8  23
TORSDOF 6
ENDMDL
MODEL 4
REMARK VINA RESULT:      -8.4      2.633      6.917
REMARK  Name = CHEMBL2037502
REMARK  11 active torsions:
REMARK  status: ('A' for Active; 'I' for Inactive)
REMARK    1  A    between atoms: CD1_1  and  CG1_2
REMARK    2  A    between atoms: CG1_2  and  CB_3
REMARK    3  A    between atoms: CB_3  and  CG2_4
REMARK    4  A    between atoms: CB_3  and  CA_5
REMARK    5  A    between atoms: C_9  and  C_10
REMARK    6  A    between atoms: N_21  and  C_22
REMARK    7  A    between atoms: C_22  and  C_23
REMARK    8  A    between atoms: C_22  and  C_28
REMARK    9  A    between atoms: N_25  and  C_26
REMARK   10  A    between atoms: N_25  and  C_27
REMARK   11  A    between atoms: C_31  and  C_32
REMARK                            x       y       z     vdW  Elec       q    Type
REMARK                         _______ _______ _______ _____ _____    ______ ____
ROOT
ATOM      1  CA  ILE A   2      -8.103   2.711 129.338  0.00  0.00    +0.000 C 
ATOM      2  C   ILE A   2      -8.224   4.012 128.532  0.00  0.00    +0.000 C 
ATOM      3  O   ILE A   2      -8.217   4.208 127.352  0.00  0.00    +0.000 OA
ATOM      4  N   UNK A   1      -8.302   5.064 129.354  0.00  0.00    +0.000 N 
ATOM      5  C   UNK A   1      -9.010   4.938 130.584  0.00  0.00    +0.000 C 
ATOM      6  C   UNK A   1      -8.212   4.032 131.491  0.00  0.00    +0.000 C 
ATOM      7  O   UNK A   1      -8.241   4.281 132.686  0.00  0.00    +0.000 OA
ATOM      8  N   ILE A   2      -7.593   2.943 130.836  0.00  0.00    +0.000 N 
ATOM      9  H   UNK A   1      -8.233   5.906 128.809  0.00  0.00    +0.000 HD
ENDROOT
BRANCH   5  10
ATOM     10  C   UNK A   1      -9.230   6.307 131.225  0.00  0.00    +0.000 C 
ATOM     11  C   UNK A   1     -10.727   6.385 131.575  0.00  0.00    +0.000 C 
ATOM     12  C   UNK A   1     -11.286   7.021 130.328  0.00  0.00    +0.000 A 
ATOM     13  C   UNK A   1     -12.544   6.821 129.781  0.00  0.00    +0.000 A 
ATOM     14  C   UNK A   1     -12.803   7.330 128.505  0.00  0.00    +0.000 A 
ATOM     15  C   UNK A   1     -11.805   8.007 127.784  0.00  0.00    +0.000 A 
ATOM     16  C   UNK A   1     -10.518   8.147 128.308  0.00  0.00    +0.000 A 
ATOM     17  C   UNK A   1     -10.271   7.642 129.575  0.00  0.00    +0.000 A 
ATOM     18  C   UNK A   1      -8.942   7.489 130.257  0.00  0.00    +0.000 C 
ENDBRANCH   5  10
BRANCH   1  19
ATOM     19  CB  ILE A   2      -7.155   1.885 128.509  0.00  0.00    +0.000 C 
ATOM     20  CG2 ILE A   2      -7.923   0.780 127.738  0.00  0.00    +0.000 C 
BRANCH  19  22
ATOM     21  CD1 ILE A   2      -5.541   1.948 126.516  0.00  0.00    +0.000 C 
ATOM     22  CG1 ILE A   2      -5.809   2.511 127.954  0.00  0.00    +0.000 C 
ENDBRANCH  19  22
ENDBRANCH   1  19
BRANCH   8  23
ATOM     23  C   UNK A   0      -6.553   2.023 131.625  0.00  0.00    +0.000 C 
BRANCH  23  24
ATOM     24  C   UNK A   0      -5.118   2.689 131.701  0.00  0.00    +0.000 A 
ATOM     25  C   UNK A   0      -4.207   2.386 132.734  0.00  0.00    +0.000 A 
ATOM     26  C   UNK A   0      -3.083   3.197 132.961  0.00  0.00    +0.000 A 
ATOM     27  C   UNK A   0      -2.773   4.243 132.085  0.00  0.00    +0.000 A 
ATOM     28  C   UNK A   0      -1.572   5.110 132.201  0.00  0.00    +0.000 C 
ATOM     29  N   UNK A   0      -3.599   4.507 131.015  0.00  0.00    +0.000 N 
ATOM     30  O   UNK A   0      -3.342   5.432 130.176  0.00  0.00    +0.000 OA
ATOM     31  C   UNK A   0      -4.743   3.745 130.855  0.00  0.00    +0.000 A 
ENDBRANCH  23  24
BRANCH  23  32
ATOM     32  C   UNK A   0      -6.378   0.392 131.139  0.00  0.00    +0.000 C 
ATOM     33  O   UNK A   0      -5.339  -0.007 130.599  0.00  0.00    +0.000 OA
ATOM     34  N   UNK A   0      -7.389  -0.579 131.235  0.00  0.00    +0.000 N 
ATOM     35  C   UNK A   0      -8.670  -0.361 131.815  0.00  0.00    +0.000 C 
ATOM     36  C   UNK A   0      -7.347  -1.755 130.354  0.00  0.00    +0.000 C 
ENDBRANCH  23  32
ENDBRANCH   8  23
TORSDOF 6
ENDMDL
MODEL 5
REMARK VINA RESULT:      -8.3      3.626      4.740
REMARK  Name = CHEMBL2037502
REMARK  11 active torsions:
REMARK  status: ('A' for Active; 'I' for Inactive)
REMARK    1  A    between atoms: CD1_1  and  CG1_2
REMARK    2  A    between atoms: CG1_2  and  CB_3
REMARK    3  A    between atoms: CB_3  and  CG2_4
REMARK    4  A    between atoms: CB_3  and  CA_5
REMARK    5  A    between atoms: C_9  and  C_10
REMARK    6  A    between atoms: N_21  and  C_22
REMARK    7  A    between atoms: C_22  and  C_23
REMARK    8  A    between atoms: C_22  and  C_28
REMARK    9  A    between atoms: N_25  and  C_26
REMARK   10  A    between atoms: N_25  and  C_27
REMARK   11  A    between atoms: C_31  and  C_32
REMARK                            x       y       z     vdW  Elec       q    Type
REMARK                         _______ _______ _______ _____ _____    ______ ____
ROOT
ATOM      1  CA  ILE A   2      -6.469   2.253 132.658  0.00  0.00    +0.000 C 
ATOM      2  C   ILE A   2      -5.566   1.098 133.112  0.00  0.00    +0.000 C 
ATOM      3  O   ILE A   2      -5.449   0.565 134.177  0.00  0.00    +0.000 OA
ATOM      4  N   UNK A   1      -4.773   0.703 132.111  0.00  0.00    +0.000 N 
ATOM      5  C   UNK A   1      -5.276   0.710 130.778  0.00  0.00    +0.000 C 
ATOM      6  C   UNK A   1      -5.443   2.148 130.349  0.00  0.00    +0.000 C 
ATOM      7  O   UNK A   1      -5.228   2.405 129.174  0.00  0.00    +0.000 OA
ATOM      8  N   ILE A   2      -5.916   3.013 131.363  0.00  0.00    +0.000 N 
ATOM      9  H   UNK A   1      -4.095   0.053 132.471  0.00  0.00    +0.000 HD
ENDROOT
BRANCH   5  10
ATOM     10  C   UNK A   1      -4.334  -0.040 129.838  0.00  0.00    +0.000 C 
ATOM     11  C   UNK A   1      -5.221  -0.662 128.744  0.00  0.00    +0.000 C 
ATOM     12  C   UNK A   1      -5.507  -2.019 129.335  0.00  0.00    +0.000 A 
ATOM     13  C   UNK A   1      -6.654  -2.779 129.163  0.00  0.00    +0.000 A 
ATOM     14  C   UNK A   1      -6.826  -3.912 129.963  0.00  0.00    +0.000 A 
ATOM     15  C   UNK A   1      -5.873  -4.258 130.936  0.00  0.00    +0.000 A 
ATOM     16  C   UNK A   1      -4.754  -3.454 131.155  0.00  0.00    +0.000 A 
ATOM     17  C   UNK A   1      -4.588  -2.333 130.354  0.00  0.00    +0.000 A 
ATOM     18  C   UNK A   1      -3.595  -1.221 130.529  0.00  0.00    +0.000 C 
ENDBRANCH   5  10
BRANCH   1  19
ATOM     19  CB  ILE A   2      -6.536   3.132 133.878  0.00  0.00    +0.000 C 
ATOM     20  CG2 ILE A   2      -5.151   3.764 134.173  0.00  0.00    +0.000 C 
BRANCH  19  22
ATOM     21  CD1 ILE A   2      -9.079   3.155 133.541  0.00  0.00    +0.000 C 
ATOM     22  CG1 ILE A   2      -7.888   3.853 134.284  0.00  0.00    +0.000 C 
ENDBRANCH  19  22
ENDBRANCH   1  19
BRANCH   8  23
ATOM     23  C   UNK A   0      -5.944   4.591 131.119  0.00  0.00    +0.000 C 
BRANCH  23  24
ATOM     24  C   UNK A   0      -7.413   5.118 130.850  0.00  0.00    +0.000 A 
ATOM     25  C   UNK A   0      -7.853   6.375 131.315  0.00  0.00    +0.000 A 
ATOM     26  C   UNK A   0      -9.222   6.693 131.340  0.00  0.00    +0.000 A 
ATOM     27  C   UNK A   0     -10.163   5.822 130.779  0.00  0.00    +0.000 A 
ATOM     28  C   UNK A   0     -11.620   6.100 130.695  0.00  0.00    +0.000 C 
ATOM     29  N   UNK A   0      -9.750   4.625 130.237  0.00  0.00    +0.000 N 
ATOM     30  O   UNK A   0     -10.569   3.813 129.693  0.00  0.00    +0.000 OA
ATOM     31  C   UNK A   0      -8.408   4.297 130.295  0.00  0.00    +0.000 A 
ENDBRANCH  23  24
BRANCH  23  32
ATOM     32  C   UNK A   0      -4.897   5.250 129.939  0.00  0.00    +0.000 C 
ATOM     33  O   UNK A   0      -5.331   5.661 128.856  0.00  0.00    +0.000 OA
ATOM     34  N   UNK A   0      -3.498   5.309 130.061  0.00  0.00    +0.000 N 
ATOM     35  C   UNK A   0      -2.766   4.897 131.210  0.00  0.00    +0.000 C 
ATOM     36  C   UNK A   0      -2.671   5.394 128.849  0.00  0.00    +0.000 C 
ENDBRANCH  23  32
ENDBRANCH   8  23
TORSDOF 6
ENDMDL
MODEL 6
REMARK VINA RESULT:      -8.2      2.706      7.040
REMARK  Name = CHEMBL2037502
REMARK  11 active torsions:
REMARK  status: ('A' for Active; 'I' for Inactive)
REMARK    1  A    between atoms: CD1_1  and  CG1_2
REMARK    2  A    between atoms: CG1_2  and  CB_3
REMARK    3  A    between atoms: CB_3  and  CG2_4
REMARK    4  A    between atoms: CB_3  and  CA_5
REMARK    5  A    between atoms: C_9  and  C_10
REMARK    6  A    between atoms: N_21  and  C_22
REMARK    7  A    between atoms: C_22  and  C_23
REMARK    8  A    between atoms: C_22  and  C_28
REMARK    9  A    between atoms: N_25  and  C_26
REMARK   10  A    between atoms: N_25  and  C_27
REMARK   11  A    between atoms: C_31  and  C_32
REMARK                            x       y       z     vdW  Elec       q    Type
REMARK                         _______ _______ _______ _____ _____    ______ ____
ROOT
ATOM      1  CA  ILE A   2      -7.954   2.855 128.720  0.00  0.00    +0.000 C 
ATOM      2  C   ILE A   2      -8.195   4.263 128.157  0.00  0.00    +0.000 C 
ATOM      3  O   ILE A   2      -8.086   4.694 127.047  0.00  0.00    +0.000 OA
ATOM      4  N   UNK A   1      -8.537   5.106 129.138  0.00  0.00    +0.000 N 
ATOM      5  C   UNK A   1      -9.349   4.636 130.210  0.00  0.00    +0.000 C 
ATOM      6  C   UNK A   1      -8.522   3.685 131.041  0.00  0.00    +0.000 C 
ATOM      7  O   UNK A   1      -8.726   3.679 132.245  0.00  0.00    +0.000 OA
ATOM      8  N   ILE A   2      -7.662   2.847 130.294  0.00  0.00    +0.000 N 
ATOM      9  H   UNK A   1      -8.545   6.042 128.772  0.00  0.00    +0.000 HD
ENDROOT
BRANCH   5  10
ATOM     10  C   UNK A   1      -9.861   5.803 131.053  0.00  0.00    +0.000 C 
ATOM     11  C   UNK A   1     -11.398   5.742 130.985  0.00  0.00    +0.000 C 
ATOM     12  C   UNK A   1     -11.675   6.639 129.806  0.00  0.00    +0.000 A 
ATOM     13  C   UNK A   1     -12.722   6.532 128.903  0.00  0.00    +0.000 A 
ATOM     14  C   UNK A   1     -12.690   7.324 127.752  0.00  0.00    +0.000 A 
ATOM     15  C   UNK A   1     -11.611   8.188 127.502  0.00  0.00    +0.000 A 
ATOM     16  C   UNK A   1     -10.524   8.244 128.376  0.00  0.00    +0.000 A 
ATOM     17  C   UNK A   1     -10.565   7.457 129.519  0.00  0.00    +0.000 A 
ATOM     18  C   UNK A   1      -9.450   7.192 130.488  0.00  0.00    +0.000 C 
ENDBRANCH   5  10
BRANCH   1  19
ATOM     19  CB  ILE A   2      -6.796   2.355 127.899  0.00  0.00    +0.000 C 
ATOM     20  CG2 ILE A   2      -7.291   1.401 126.781  0.00  0.00    +0.000 C 
BRANCH  19  22
ATOM     21  CD1 ILE A   2      -4.245   2.371 128.172  0.00  0.00    +0.000 C 
ATOM     22  CG1 ILE A   2      -5.483   3.227 127.734  0.00  0.00    +0.000 C 
ENDBRANCH  19  22
ENDBRANCH   1  19
BRANCH   8  23
ATOM     23  C   UNK A   0      -6.581   1.940 131.041  0.00  0.00    +0.000 C 
BRANCH  23  24
ATOM     24  C   UNK A   0      -6.663   0.428 130.578  0.00  0.00    +0.000 A 
ATOM     25  C   UNK A   0      -7.893  -0.252 130.458  0.00  0.00    +0.000 A 
ATOM     26  C   UNK A   0      -7.932  -1.653 130.350  0.00  0.00    +0.000 A 
ATOM     27  C   UNK A   0      -6.748  -2.388 130.223  0.00  0.00    +0.000 A 
ATOM     28  C   UNK A   0      -6.689  -3.861 130.034  0.00  0.00    +0.000 C 
ATOM     29  N   UNK A   0      -5.533  -1.740 130.248  0.00  0.00    +0.000 N 
ATOM     30  O   UNK A   0      -4.431  -2.366 130.110  0.00  0.00    +0.000 OA
ATOM     31  C   UNK A   0      -5.515  -0.369 130.435  0.00  0.00    +0.000 A 
ENDBRANCH  23  24
BRANCH  23  32
ATOM     32  C   UNK A   0      -6.518   1.991 132.749  0.00  0.00    +0.000 C 
ATOM     33  O   UNK A   0      -7.245   1.264 133.439  0.00  0.00    +0.000 OA
ATOM     34  N   UNK A   0      -5.724   2.883 133.489  0.00  0.00    +0.000 N 
ATOM     35  C   UNK A   0      -4.810   3.816 132.924  0.00  0.00    +0.000 C 
ATOM     36  C   UNK A   0      -6.104   3.212 134.871  0.00  0.00    +0.000 C 
ENDBRANCH  23  32
ENDBRANCH   8  23
TORSDOF 6
ENDMDL
MODEL 7
REMARK VINA RESULT:      -8.1      1.336      1.689
REMARK  Name = CHEMBL2037502
REMARK  11 active torsions:
REMARK  status: ('A' for Active; 'I' for Inactive)
REMARK    1  A    between atoms: CD1_1  and  CG1_2
REMARK    2  A    between atoms: CG1_2  and  CB_3
REMARK    3  A    between atoms: CB_3  and  CG2_4
REMARK    4  A    between atoms: CB_3  and  CA_5
REMARK    5  A    between atoms: C_9  and  C_10
REMARK    6  A    between atoms: N_21  and  C_22
REMARK    7  A    between atoms: C_22  and  C_23
REMARK    8  A    between atoms: C_22  and  C_28
REMARK    9  A    between atoms: N_25  and  C_26
REMARK   10  A    between atoms: N_25  and  C_27
REMARK   11  A    between atoms: C_31  and  C_32
REMARK                            x       y       z     vdW  Elec       q    Type
REMARK                         _______ _______ _______ _____ _____    ______ ____
ROOT
ATOM      1  CA  ILE A   2      -8.293   1.332 129.577  0.00  0.00    +0.000 C 
ATOM      2  C   ILE A   2      -7.824  -0.012 129.003  0.00  0.00    +0.000 C 
ATOM      3  O   ILE A   2      -8.074  -1.135 129.329  0.00  0.00    +0.000 OA
ATOM      4  N   UNK A   1      -6.959   0.184 128.002  0.00  0.00    +0.000 N 
ATOM      5  C   UNK A   1      -7.147   1.289 127.122  0.00  0.00    +0.000 C 
ATOM      6  C   UNK A   1      -6.855   2.554 127.893  0.00  0.00    +0.000 C 
ATOM      7  O   UNK A   1      -6.338   3.472 127.275  0.00  0.00    +0.000 OA
ATOM      8  N   ILE A   2      -7.304   2.543 129.234  0.00  0.00    +0.000 N 
ATOM      9  H   UNK A   1      -6.558  -0.701 127.742  0.00  0.00    +0.000 HD
ENDROOT
BRANCH   5  10
ATOM     10  C   UNK A   1      -6.243   1.167 125.897  0.00  0.00    +0.000 C 
ATOM     11  C   UNK A   1      -7.167   1.254 124.668  0.00  0.00    +0.000 C 
ATOM     12  C   UNK A   1      -7.473  -0.202 124.429  0.00  0.00    +0.000 A 
ATOM     13  C   UNK A   1      -8.641  -0.735 123.905  0.00  0.00    +0.000 A 
ATOM     14  C   UNK A   1      -8.822  -2.120 123.960  0.00  0.00    +0.000 A 
ATOM     15  C   UNK A   1      -7.858  -2.950 124.555  0.00  0.00    +0.000 A 
ATOM     16  C   UNK A   1      -6.715  -2.406 125.144  0.00  0.00    +0.000 A 
ATOM     17  C   UNK A   1      -6.540  -1.031 125.082  0.00  0.00    +0.000 A 
ATOM     18  C   UNK A   1      -5.517  -0.205 125.806  0.00  0.00    +0.000 C 
ENDBRANCH   5  10
BRANCH   1  19
ATOM     19  CB  ILE A   2      -8.399   1.052 131.053  0.00  0.00    +0.000 C 
ATOM     20  CG2 ILE A   2      -6.993   0.819 131.666  0.00  0.00    +0.000 C 
BRANCH  19  22
ATOM     21  CD1 ILE A   2      -9.010   2.460 133.108  0.00  0.00    +0.000 C 
ATOM     22  CG1 ILE A   2      -9.596   1.644 131.905  0.00  0.00    +0.000 C 
ENDBRANCH  19  22
ENDBRANCH   1  19
BRANCH   8  23
ATOM     23  C   UNK A   0      -6.886   3.721 130.227  0.00  0.00    +0.000 C 
BRANCH  23  24
ATOM     24  C   UNK A   0      -8.095   4.701 130.518  0.00  0.00    +0.000 A 
ATOM     25  C   UNK A   0      -8.105   5.566 131.632  0.00  0.00    +0.000 A 
ATOM     26  C   UNK A   0      -9.293   6.193 132.044  0.00  0.00    +0.000 A 
ATOM     27  C   UNK A   0     -10.459   6.077 131.280  0.00  0.00    +0.000 A 
ATOM     28  C   UNK A   0     -11.742   6.757 131.595  0.00  0.00    +0.000 C 
ATOM     29  N   UNK A   0     -10.455   5.309 130.137  0.00  0.00    +0.000 N 
ATOM     30  O   UNK A   0     -11.486   5.196 129.396  0.00  0.00    +0.000 OA
ATOM     31  C   UNK A   0      -9.296   4.637 129.793  0.00  0.00    +0.000 A 
ENDBRANCH  23  24
BRANCH  23  32
ATOM     32  C   UNK A   0      -5.501   4.650 129.849  0.00  0.00    +0.000 C 
ATOM     33  O   UNK A   0      -5.604   5.792 129.382  0.00  0.00    +0.000 OA
ATOM     34  N   UNK A   0      -4.179   4.188 129.958  0.00  0.00    +0.000 N 
ATOM     35  C   UNK A   0      -3.806   2.912 130.464  0.00  0.00    +0.000 C 
ATOM     36  C   UNK A   0      -3.125   4.821 129.152  0.00  0.00    +0.000 C 
ENDBRANCH  23  32
ENDBRANCH   8  23
TORSDOF 6
ENDMDL
MODEL 8
REMARK VINA RESULT:      -8.0      3.494      5.780
REMARK  Name = CHEMBL2037502
REMARK  11 active torsions:
REMARK  status: ('A' for Active; 'I' for Inactive)
REMARK    1  A    between atoms: CD1_1  and  CG1_2
REMARK    2  A    between atoms: CG1_2  and  CB_3
REMARK    3  A    between atoms: CB_3  and  CG2_4
REMARK    4  A    between atoms: CB_3  and  CA_5
REMARK    5  A    between atoms: C_9  and  C_10
REMARK    6  A    between atoms: N_21  and  C_22
REMARK    7  A    between atoms: C_22  and  C_23
REMARK    8  A    between atoms: C_22  and  C_28
REMARK    9  A    between atoms: N_25  and  C_26
REMARK   10  A    between atoms: N_25  and  C_27
REMARK   11  A    between atoms: C_31  and  C_32
REMARK                            x       y       z     vdW  Elec       q    Type
REMARK                         _______ _______ _______ _____ _____    ______ ____
ROOT
ATOM      1  CA  ILE A   2      -6.145  -0.139 129.245  0.00  0.00    +0.000 C 
ATOM      2  C   ILE A   2      -6.669   0.552 127.978  0.00  0.00    +0.000 C 
ATOM      3  O   ILE A   2      -6.360   1.586 127.463  0.00  0.00    +0.000 OA
ATOM      4  N   UNK A   1      -7.665  -0.158 127.437  0.00  0.00    +0.000 N 
ATOM      5  C   UNK A   1      -7.615  -1.581 127.484  0.00  0.00    +0.000 C 
ATOM      6  C   UNK A   1      -7.818  -2.008 128.918  0.00  0.00    +0.000 C 
ATOM      7  O   UNK A   1      -8.428  -3.049 129.105  0.00  0.00    +0.000 OA
ATOM      8  N   ILE A   2      -7.189  -1.176 129.874  0.00  0.00    +0.000 N 
ATOM      9  H   UNK A   1      -8.085   0.383 126.701  0.00  0.00    +0.000 HD
ENDROOT
BRANCH   5  10
ATOM     10  C   UNK A   1      -8.676  -2.191 126.571  0.00  0.00    +0.000 C 
ATOM     11  C   UNK A   1      -8.065  -3.486 126.005  0.00  0.00    +0.000 C 
ATOM     12  C   UNK A   1      -7.441  -2.981 124.729  0.00  0.00    +0.000 A 
ATOM     13  C   UNK A   1      -6.299  -3.467 124.109  0.00  0.00    +0.000 A 
ATOM     14  C   UNK A   1      -5.753  -2.732 123.053  0.00  0.00    +0.000 A 
ATOM     15  C   UNK A   1      -6.331  -1.518 122.645  0.00  0.00    +0.000 A 
ATOM     16  C   UNK A   1      -7.439  -0.996 123.315  0.00  0.00    +0.000 A 
ATOM     17  C   UNK A   1      -7.977  -1.732 124.360  0.00  0.00    +0.000 A 
ATOM     18  C   UNK A   1      -9.019  -1.294 125.348  0.00  0.00    +0.000 C 
ENDBRANCH   5  10
BRANCH   1  19
ATOM     19  CB  ILE A   2      -5.835   1.017 130.158  0.00  0.00    +0.000 C 
ATOM     20  CG2 ILE A   2      -4.364   0.948 130.646  0.00  0.00    +0.000 C 
BRANCH  19  22
ATOM     21  CD1 ILE A   2      -5.795   3.511 130.757  0.00  0.00    +0.000 C 
ATOM     22  CG1 ILE A   2      -6.603   2.395 130.011  0.00  0.00    +0.000 C 
ENDBRANCH  19  22
ENDBRANCH   1  19
BRANCH   8  23
ATOM     23  C   UNK A   0      -7.485  -1.381 131.430  0.00  0.00    +0.000 C 
BRANCH  23  24
ATOM     24  C   UNK A   0      -8.058  -0.065 132.097  0.00  0.00    +0.000 A 
ATOM     25  C   UNK A   0      -9.297   0.490 131.713  0.00  0.00    +0.000 A 
ATOM     26  C   UNK A   0      -9.643   1.801 132.083  0.00  0.00    +0.000 A 
ATOM     27  C   UNK A   0      -8.825   2.532 132.952  0.00  0.00    +0.000 A 
ATOM     28  C   UNK A   0      -9.140   3.894 133.455  0.00  0.00    +0.000 C 
ATOM     29  N   UNK A   0      -7.651   1.980 133.415  0.00  0.00    +0.000 N 
ATOM     30  O   UNK A   0      -6.889   2.599 134.228  0.00  0.00    +0.000 OA
ATOM     31  C   UNK A   0      -7.291   0.719 132.974  0.00  0.00    +0.000 A 
ENDBRANCH  23  24
BRANCH  23  32
ATOM     32  C   UNK A   0      -6.237  -2.003 132.419  0.00  0.00    +0.000 C 
ATOM     33  O   UNK A   0      -5.046  -1.835 132.129  0.00  0.00    +0.000 OA
ATOM     34  N   UNK A   0      -6.447  -2.794 133.561  0.00  0.00    +0.000 N 
ATOM     35  C   UNK A   0      -7.724  -3.126 134.094  0.00  0.00    +0.000 C 
ATOM     36  C   UNK A   0      -5.377  -3.688 134.027  0.00  0.00    +0.000 C 
ENDBRANCH  23  32
ENDBRANCH   8  23
TORSDOF 6
ENDMDL
MODEL 9
REMARK VINA RESULT:      -8.0      3.104      7.715
REMARK  Name = CHEMBL2037502
REMARK  11 active torsions:
REMARK  status: ('A' for Active; 'I' for Inactive)
REMARK    1  A    between atoms: CD1_1  and  CG1_2
REMARK    2  A    between atoms: CG1_2  and  CB_3
REMARK    3  A    between atoms: CB_3  and  CG2_4
REMARK    4  A    between atoms: CB_3  and  CA_5
REMARK    5  A    between atoms: C_9  and  C_10
REMARK    6  A    between atoms: N_21  and  C_22
REMARK    7  A    between atoms: C_22  and  C_23
REMARK    8  A    between atoms: C_22  and  C_28
REMARK    9  A    between atoms: N_25  and  C_26
REMARK   10  A    between atoms: N_25  and  C_27
REMARK   11  A    between atoms: C_31  and  C_32
REMARK                            x       y       z     vdW  Elec       q    Type
REMARK                         _______ _______ _______ _____ _____    ______ ____
ROOT
ATOM      1  CA  ILE A   2      -6.634   1.829 129.730  0.00  0.00    +0.000 C 
ATOM      2  C   ILE A   2      -6.540   3.358 129.817  0.00  0.00    +0.000 C 
ATOM      3  O   ILE A   2      -7.006   4.130 130.603  0.00  0.00    +0.000 OA
ATOM      4  N   UNK A   1      -5.843   3.843 128.784  0.00  0.00    +0.000 N 
ATOM      5  C   UNK A   1      -4.731   3.105 128.284  0.00  0.00    +0.000 C 
ATOM      6  C   UNK A   1      -5.262   1.865 127.606  0.00  0.00    +0.000 C 
ATOM      7  O   UNK A   1      -4.655   1.467 126.623  0.00  0.00    +0.000 OA
ATOM      8  N   ILE A   2      -6.364   1.264 128.257  0.00  0.00    +0.000 N 
ATOM      9  H   UNK A   1      -5.920   4.846 128.783  0.00  0.00    +0.000 HD
ENDROOT
BRANCH   5  10
ATOM     10  C   UNK A   1      -3.908   3.953 127.317  0.00  0.00    +0.000 C 
ATOM     11  C   UNK A   1      -2.501   4.065 127.932  0.00  0.00    +0.000 C 
ATOM     12  C   UNK A   1      -2.633   5.335 128.734  0.00  0.00    +0.000 A 
ATOM     13  C   UNK A   1      -1.984   5.645 129.920  0.00  0.00    +0.000 A 
ATOM     14  C   UNK A   1      -2.397   6.777 130.627  0.00  0.00    +0.000 A 
ATOM     15  C   UNK A   1      -3.461   7.568 130.162  0.00  0.00    +0.000 A 
ATOM     16  C   UNK A   1      -4.158   7.216 129.005  0.00  0.00    +0.000 A 
ATOM     17  C   UNK A   1      -3.740   6.093 128.307  0.00  0.00    +0.000 A 
ATOM     18  C   UNK A   1      -4.442   5.407 127.171  0.00  0.00    +0.000 C 
ENDBRANCH   5  10
BRANCH   1  19
ATOM     19  CB  ILE A   2      -8.026   1.545 130.228  0.00  0.00    +0.000 C 
ATOM     20  CG2 ILE A   2      -9.083   2.137 129.261  0.00  0.00    +0.000 C 
BRANCH  19  22
ATOM     21  CD1 ILE A   2      -6.978  -0.259 131.722  0.00  0.00    +0.000 C 
ATOM     22  CG1 ILE A   2      -8.324   0.264 131.111  0.00  0.00    +0.000 C 
ENDBRANCH  19  22
ENDBRANCH   1  19
BRANCH   8  23
ATOM     23  C   UNK A   0      -7.159   0.073 127.550  0.00  0.00    +0.000 C 
BRANCH  23  24
ATOM     24  C   UNK A   0      -6.791  -1.333 128.178  0.00  0.00    +0.000 A 
ATOM     25  C   UNK A   0      -7.779  -2.275 128.533  0.00  0.00    +0.000 A 
ATOM     26  C   UNK A   0      -7.466  -3.368 129.359  0.00  0.00    +0.000 A 
ATOM     27  C   UNK A   0      -6.141  -3.618 129.735  0.00  0.00    +0.000 A 
ATOM     28  C   UNK A   0      -5.703  -4.783 130.545  0.00  0.00    +0.000 C 
ATOM     29  N   UNK A   0      -5.142  -2.762 129.328  0.00  0.00    +0.000 N 
ATOM     30  O   UNK A   0      -3.918  -2.965 129.624  0.00  0.00    +0.000 OA
ATOM     31  C   UNK A   0      -5.483  -1.648 128.582  0.00  0.00    +0.000 A 
ENDBRANCH  23  24
BRANCH  23  32
ATOM     32  C   UNK A   0      -7.093  -0.050 125.846  0.00  0.00    +0.000 C 
ATOM     33  O   UNK A   0      -6.437  -0.942 125.293  0.00  0.00    +0.000 OA
ATOM     34  N   UNK A   0      -7.689   0.862 124.959  0.00  0.00    +0.000 N 
ATOM     35  C   UNK A   0      -8.489   1.971 125.353  0.00  0.00    +0.000 C 
ATOM     36  C   UNK A   0      -7.167   0.984 123.590  0.00  0.00    +0.000 C 
ENDBRANCH  23  32
ENDBRANCH   8  23
TORSDOF 6
ENDMDL
