MODEL 1
REMARK VINA RESULT:      -9.2      0.000      0.000
REMARK  Name = CHEMBL514287
REMARK  10 active torsions:
REMARK  status: ('A' for Active; 'I' for Inactive)
REMARK    1  A    between atoms: C_1  and  O_2
REMARK    2  A    between atoms: O_2  and  C_3
REMARK    3  A    between atoms: C_6  and  S_7
REMARK    4  A    between atoms: S_7  and  N_10
REMARK    5  A    between atoms: N_10  and  C_11
REMARK    6  A    between atoms: N_10  and  C_23
REMARK    7  A    between atoms: C_11  and  C_12
REMARK    8  A    between atoms: C_15  and  C_16
REMARK    9  A    between atoms: C_26  and  O_27
REMARK   10  A    between atoms: O_27  and  C_28
REMARK                            x       y       z     vdW  Elec       q    Type
REMARK                         _______ _______ _______ _____ _____    ______ ____
ROOT
ATOM      1  N   UNL     1      -8.743   2.368 123.713  0.00  0.00    +0.000 N 
ENDROOT
BRANCH   1   2
ATOM      2  C   UNL     1      -8.228   2.863 122.399  0.00  0.00    +0.000 A 
ATOM      3  C   UNL     1      -9.013   3.306 121.340  0.00  0.00    +0.000 A 
ATOM      4  C   UNL     1      -8.413   3.938 120.228  0.00  0.00    +0.000 A 
ATOM      5  C   UNL     1      -7.041   4.168 120.207  0.00  0.00    +0.000 A 
ATOM      6  N   UNL     1      -6.255   3.795 121.228  0.00  0.00    +0.000 NA
ATOM      7  C   UNL     1      -6.855   3.153 122.265  0.00  0.00    +0.000 A 
BRANCH   5   8
ATOM      8  O   UNL     1      -6.349   4.778 119.200  0.00  0.00    +0.000 OA
ATOM      9  C   UNL     1      -5.249   5.587 119.590  0.00  0.00    +0.000 C 
ENDBRANCH   5   8
ENDBRANCH   1   2
BRANCH   1  10
ATOM     10  S   UNL     1      -8.177   3.157 125.177  0.00  0.00    +0.000 S 
ATOM     11  O   UNL     1      -8.588   2.218 126.242  0.00  0.00    +0.000 OA
ATOM     12  O   UNL     1      -8.722   4.477 125.167  0.00  0.00    +0.000 OA
BRANCH  10  16
ATOM     13  C   UNL     1      -3.772   3.976 126.928  0.00  0.00    +0.000 A 
ATOM     14  C   UNL     1      -4.082   2.744 126.422  0.00  0.00    +0.000 A 
ATOM     15  C   UNL     1      -5.398   2.449 125.782  0.00  0.00    +0.000 A 
ATOM     16  C   UNL     1      -6.372   3.421 125.496  0.00  0.00    +0.000 A 
ATOM     17  C   UNL     1      -5.861   4.637 125.664  0.00  0.00    +0.000 A 
ATOM     18  C   UNL     1      -4.762   4.812 126.592  0.00  0.00    +0.000 A 
BRANCH  13  20
ATOM     19  C   UNL     1      -2.518   5.742 128.175  0.00  0.00    +0.000 C 
ATOM     20  O   UNL     1      -2.626   4.418 127.542  0.00  0.00    +0.000 OA
ENDBRANCH  13  20
ENDBRANCH  10  16
ENDBRANCH   1  10
BRANCH   1  21
ATOM     21  C   UNL     1      -9.421   1.057 123.479  0.00  0.00    +0.000 C 
BRANCH  21  22
ATOM     22  C   UNL     1      -8.795  -0.199 123.867  0.00  0.00    +0.000 A 
ATOM     23  N   UNL     1      -7.590  -0.582 123.449  0.00  0.00    +0.000 NA
ATOM     24  O   UNL     1      -7.404  -1.776 124.205  0.00  0.00    +0.000 OA
ATOM     25  C   UNL     1      -8.457  -1.846 125.179  0.00  0.00    +0.000 A 
ATOM     26  N   UNL     1      -9.409  -1.014 124.823  0.00  0.00    +0.000 NA
BRANCH  25  27
ATOM     27  C   UNL     1      -8.210  -2.674 126.531  0.00  0.00    +0.000 A 
ATOM     28  C   UNL     1      -9.030  -3.632 127.321  0.00  0.00    +0.000 A 
ATOM     29  C   UNL     1      -8.740  -3.969 128.687  0.00  0.00    +0.000 A 
ATOM     30  C   UNL     1      -7.587  -3.469 129.264  0.00  0.00    +0.000 A 
ATOM     31  C   UNL     1      -6.828  -2.548 128.543  0.00  0.00    +0.000 A 
ATOM     32  C   UNL     1      -7.152  -2.148 127.237  0.00  0.00    +0.000 A 
ENDBRANCH  25  27
ENDBRANCH  21  22
ENDBRANCH   1  21
TORSDOF 8
ENDMDL
MODEL 2
REMARK VINA RESULT:      -9.0      4.326      7.888
REMARK  Name = CHEMBL514287
REMARK  10 active torsions:
REMARK  status: ('A' for Active; 'I' for Inactive)
REMARK    1  A    between atoms: C_1  and  O_2
REMARK    2  A    between atoms: O_2  and  C_3
REMARK    3  A    between atoms: C_6  and  S_7
REMARK    4  A    between atoms: S_7  and  N_10
REMARK    5  A    between atoms: N_10  and  C_11
REMARK    6  A    between atoms: N_10  and  C_23
REMARK    7  A    between atoms: C_11  and  C_12
REMARK    8  A    between atoms: C_15  and  C_16
REMARK    9  A    between atoms: C_26  and  O_27
REMARK   10  A    between atoms: O_27  and  C_28
REMARK                            x       y       z     vdW  Elec       q    Type
REMARK                         _______ _______ _______ _____ _____    ______ ____
ROOT
ATOM      1  N   UNL     1      -7.972   2.948 127.009  0.00  0.00    +0.000 N 
ENDROOT
BRANCH   1   2
ATOM      2  C   UNL     1      -8.059   1.518 126.581  0.00  0.00    +0.000 A 
ATOM      3  C   UNL     1      -9.204   0.886 126.107  0.00  0.00    +0.000 A 
ATOM      4  C   UNL     1      -9.118  -0.407 125.543  0.00  0.00    +0.000 A 
ATOM      5  C   UNL     1      -7.884  -1.035 125.411  0.00  0.00    +0.000 A 
ATOM      6  N   UNL     1      -6.752  -0.441 125.817  0.00  0.00    +0.000 NA
ATOM      7  C   UNL     1      -6.870   0.784 126.392  0.00  0.00    +0.000 A 
BRANCH   5   8
ATOM      8  O   UNL     1      -7.672  -2.272 124.874  0.00  0.00    +0.000 OA
ATOM      9  C   UNL     1      -8.284  -3.364 125.544  0.00  0.00    +0.000 C 
ENDBRANCH   5   8
ENDBRANCH   1   2
BRANCH   1  10
ATOM     10  S   UNL     1      -7.613   4.161 125.790  0.00  0.00    +0.000 S 
ATOM     11  O   UNL     1      -6.435   4.856 126.347  0.00  0.00    +0.000 OA
ATOM     12  O   UNL     1      -8.818   4.896 125.578  0.00  0.00    +0.000 OA
BRANCH  10  16
ATOM     13  C   UNL     1      -6.663   3.743 121.092  0.00  0.00    +0.000 A 
ATOM     14  C   UNL     1      -5.637   3.928 121.977  0.00  0.00    +0.000 A 
ATOM     15  C   UNL     1      -5.852   3.975 123.453  0.00  0.00    +0.000 A 
ATOM     16  C   UNL     1      -7.075   3.683 124.083  0.00  0.00    +0.000 A 
ATOM     17  C   UNL     1      -7.919   3.148 123.206  0.00  0.00    +0.000 A 
ATOM     18  C   UNL     1      -7.766   3.469 121.802  0.00  0.00    +0.000 A 
BRANCH  13  20
ATOM     19  C   UNL     1      -7.573   4.442 118.871  0.00  0.00    +0.000 C 
ATOM     20  O   UNL     1      -6.648   3.674 119.721  0.00  0.00    +0.000 OA
ENDBRANCH  13  20
ENDBRANCH  10  16
ENDBRANCH   1  10
BRANCH   1  21
ATOM     21  C   UNL     1      -7.911   2.980 128.502  0.00  0.00    +0.000 C 
BRANCH  21  22
ATOM     22  C   UNL     1      -8.190   4.200 129.246  0.00  0.00    +0.000 A 
ATOM     23  N   UNL     1      -7.263   5.104 129.555  0.00  0.00    +0.000 NA
ATOM     24  O   UNL     1      -8.061   6.127 130.142  0.00  0.00    +0.000 OA
ATOM     25  C   UNL     1      -9.439   5.800 129.903  0.00  0.00    +0.000 A 
ATOM     26  N   UNL     1      -9.511   4.534 129.562  0.00  0.00    +0.000 NA
BRANCH  25  27
ATOM     27  C   UNL     1     -10.523   6.981 129.869  0.00  0.00    +0.000 A 
ATOM     28  C   UNL     1     -11.764   7.268 130.638  0.00  0.00    +0.000 A 
ATOM     29  C   UNL     1     -12.766   8.195 130.190  0.00  0.00    +0.000 A 
ATOM     30  C   UNL     1     -12.521   8.937 129.048  0.00  0.00    +0.000 A 
ATOM     31  C   UNL     1     -11.376   8.655 128.305  0.00  0.00    +0.000 A 
ATOM     32  C   UNL     1     -10.434   7.690 128.692  0.00  0.00    +0.000 A 
ENDBRANCH  25  27
ENDBRANCH  21  22
ENDBRANCH   1  21
TORSDOF 8
ENDMDL
MODEL 3
REMARK VINA RESULT:      -8.9      1.987      2.494
REMARK  Name = CHEMBL514287
REMARK  10 active torsions:
REMARK  status: ('A' for Active; 'I' for Inactive)
REMARK    1  A    between atoms: C_1  and  O_2
REMARK    2  A    between atoms: O_2  and  C_3
REMARK    3  A    between atoms: C_6  and  S_7
REMARK    4  A    between atoms: S_7  and  N_10
REMARK    5  A    between atoms: N_10  and  C_11
REMARK    6  A    between atoms: N_10  and  C_23
REMARK    7  A    between atoms: C_11  and  C_12
REMARK    8  A    between atoms: C_15  and  C_16
REMARK    9  A    between atoms: C_26  and  O_27
REMARK   10  A    between atoms: O_27  and  C_28
REMARK                            x       y       z     vdW  Elec       q    Type
REMARK                         _______ _______ _______ _____ _____    ______ ____
ROOT
ATOM      1  N   UNL     1      -8.894   2.518 123.562  0.00  0.00    +0.000 N 
ENDROOT
BRANCH   1   2
ATOM      2  C   UNL     1      -8.204   2.928 122.300  0.00  0.00    +0.000 A 
ATOM      3  C   UNL     1      -8.816   3.522 121.202  0.00  0.00    +0.000 A 
ATOM      4  C   UNL     1      -8.032   4.047 120.150  0.00  0.00    +0.000 A 
ATOM      5  C   UNL     1      -6.643   4.021 120.230  0.00  0.00    +0.000 A 
ATOM      6  N   UNL     1      -6.015   3.495 121.292  0.00  0.00    +0.000 NA
ATOM      7  C   UNL     1      -6.795   2.961 122.268  0.00  0.00    +0.000 A 
BRANCH   5   8
ATOM      8  O   UNL     1      -5.781   4.507 119.288  0.00  0.00    +0.000 OA
ATOM      9  C   UNL     1      -6.248   5.598 118.510  0.00  0.00    +0.000 C 
ENDBRANCH   5   8
ENDBRANCH   1   2
BRANCH   1  10
ATOM     10  S   UNL     1      -8.233   3.080 125.090  0.00  0.00    +0.000 S 
ATOM     11  O   UNL     1      -8.946   2.253 126.085  0.00  0.00    +0.000 OA
ATOM     12  O   UNL     1      -8.404   4.497 125.113  0.00  0.00    +0.000 OA
BRANCH  10  16
ATOM     13  C   UNL     1      -3.807   3.001 126.973  0.00  0.00    +0.000 A 
ATOM     14  C   UNL     1      -4.530   1.844 126.893  0.00  0.00    +0.000 A 
ATOM     15  C   UNL     1      -5.871   1.780 126.240  0.00  0.00    +0.000 A 
ATOM     16  C   UNL     1      -6.447   2.838 125.516  0.00  0.00    +0.000 A 
ATOM     17  C   UNL     1      -5.543   3.792 125.312  0.00  0.00    +0.000 A 
ATOM     18  C   UNL     1      -4.446   3.928 126.248  0.00  0.00    +0.000 A 
BRANCH  13  20
ATOM     19  C   UNL     1      -1.313   2.913 126.847  0.00  0.00    +0.000 C 
ATOM     20  O   UNL     1      -2.575   3.238 127.531  0.00  0.00    +0.000 OA
ENDBRANCH  13  20
ENDBRANCH  10  16
ENDBRANCH   1  10
BRANCH   1  21
ATOM     21  C   UNL     1      -9.857   1.425 123.228  0.00  0.00    +0.000 C 
BRANCH  21  22
ATOM     22  C   UNL     1      -9.470   0.024 123.307  0.00  0.00    +0.000 A 
ATOM     23  N   UNL     1      -9.963  -0.922 122.511  0.00  0.00    +0.000 NA
ATOM     24  O   UNL     1      -9.179  -2.046 122.903  0.00  0.00    +0.000 OA
ATOM     25  C   UNL     1      -8.126  -1.570 123.754  0.00  0.00    +0.000 A 
ATOM     26  N   UNL     1      -8.440  -0.364 124.169  0.00  0.00    +0.000 NA
BRANCH  25  27
ATOM     27  C   UNL     1      -6.766  -2.415 123.855  0.00  0.00    +0.000 A 
ATOM     28  C   UNL     1      -5.419  -2.284 123.236  0.00  0.00    +0.000 A 
ATOM     29  C   UNL     1      -4.470  -3.362 123.194  0.00  0.00    +0.000 A 
ATOM     30  C   UNL     1      -4.773  -4.541 123.851  0.00  0.00    +0.000 A 
ATOM     31  C   UNL     1      -6.043  -4.683 124.408  0.00  0.00    +0.000 A 
ATOM     32  C   UNL     1      -7.008  -3.665 124.379  0.00  0.00    +0.000 A 
ENDBRANCH  25  27
ENDBRANCH  21  22
ENDBRANCH   1  21
TORSDOF 8
ENDMDL
MODEL 4
REMARK VINA RESULT:      -8.5      2.382      3.007
REMARK  Name = CHEMBL514287
REMARK  10 active torsions:
REMARK  status: ('A' for Active; 'I' for Inactive)
REMARK    1  A    between atoms: C_1  and  O_2
REMARK    2  A    between atoms: O_2  and  C_3
REMARK    3  A    between atoms: C_6  and  S_7
REMARK    4  A    between atoms: S_7  and  N_10
REMARK    5  A    between atoms: N_10  and  C_11
REMARK    6  A    between atoms: N_10  and  C_23
REMARK    7  A    between atoms: C_11  and  C_12
REMARK    8  A    between atoms: C_15  and  C_16
REMARK    9  A    between atoms: C_26  and  O_27
REMARK   10  A    between atoms: O_27  and  C_28
REMARK                            x       y       z     vdW  Elec       q    Type
REMARK                         _______ _______ _______ _____ _____    ______ ____
ROOT
ATOM      1  N   UNL     1      -7.995   2.224 123.660  0.00  0.00    +0.000 N 
ENDROOT
BRANCH   1   2
ATOM      2  C   UNL     1      -7.590   2.996 122.445  0.00  0.00    +0.000 A 
ATOM      3  C   UNL     1      -6.292   3.106 121.955  0.00  0.00    +0.000 A 
ATOM      4  C   UNL     1      -6.059   3.692 120.691  0.00  0.00    +0.000 A 
ATOM      5  C   UNL     1      -7.127   4.117 119.906  0.00  0.00    +0.000 A 
ATOM      6  N   UNL     1      -8.394   3.989 120.325  0.00  0.00    +0.000 NA
ATOM      7  C   UNL     1      -8.585   3.459 121.561  0.00  0.00    +0.000 A 
BRANCH   5   8
ATOM      8  O   UNL     1      -7.030   4.684 118.668  0.00  0.00    +0.000 OA
ATOM      9  C   UNL     1      -5.981   5.623 118.485  0.00  0.00    +0.000 C 
ENDBRANCH   5   8
ENDBRANCH   1   2
BRANCH   1  10
ATOM     10  S   UNL     1      -7.057   2.435 125.130  0.00  0.00    +0.000 S 
ATOM     11  O   UNL     1      -6.308   3.682 124.872  0.00  0.00    +0.000 OA
ATOM     12  O   UNL     1      -6.335   1.220 125.331  0.00  0.00    +0.000 OA
BRANCH  10  16
ATOM     13  C   UNL     1      -8.390   2.810 129.737  0.00  0.00    +0.000 A 
ATOM     14  C   UNL     1      -8.132   3.940 129.012  0.00  0.00    +0.000 A 
ATOM     15  C   UNL     1      -7.802   3.901 127.557  0.00  0.00    +0.000 A 
ATOM     16  C   UNL     1      -7.876   2.743 126.762  0.00  0.00    +0.000 A 
ATOM     17  C   UNL     1      -8.491   1.773 127.433  0.00  0.00    +0.000 A 
ATOM     18  C   UNL     1      -8.441   1.783 128.880  0.00  0.00    +0.000 A 
BRANCH  13  20
ATOM     19  C   UNL     1      -9.166   3.781 131.905  0.00  0.00    +0.000 C 
ATOM     20  O   UNL     1      -8.706   2.664 131.065  0.00  0.00    +0.000 OA
ENDBRANCH  13  20
ENDBRANCH  10  16
ENDBRANCH   1  10
BRANCH   1  21
ATOM     21  C   UNL     1      -8.970   1.174 123.235  0.00  0.00    +0.000 C 
BRANCH  21  22
ATOM     22  C   UNL     1      -8.845  -0.204 123.689  0.00  0.00    +0.000 A 
ATOM     23  N   UNL     1      -8.131  -1.128 123.050  0.00  0.00    +0.000 NA
ATOM     24  O   UNL     1      -8.227  -2.224 123.955  0.00  0.00    +0.000 OA
ATOM     25  C   UNL     1      -8.818  -1.738 125.170  0.00  0.00    +0.000 A 
ATOM     26  N   UNL     1      -9.388  -0.581 124.921  0.00  0.00    +0.000 NA
BRANCH  25  27
ATOM     27  C   UNL     1      -8.509  -2.505 126.545  0.00  0.00    +0.000 A 
ATOM     28  C   UNL     1      -9.036  -3.744 127.178  0.00  0.00    +0.000 A 
ATOM     29  C   UNL     1      -8.871  -4.040 128.575  0.00  0.00    +0.000 A 
ATOM     30  C   UNL     1      -8.095  -3.193 129.346  0.00  0.00    +0.000 A 
ATOM     31  C   UNL     1      -7.622  -2.016 128.769  0.00  0.00    +0.000 A 
ATOM     32  C   UNL     1      -7.851  -1.677 127.426  0.00  0.00    +0.000 A 
ENDBRANCH  25  27
ENDBRANCH  21  22
ENDBRANCH   1  21
TORSDOF 8
ENDMDL
MODEL 5
REMARK VINA RESULT:      -8.4      6.379      9.641
REMARK  Name = CHEMBL514287
REMARK  10 active torsions:
REMARK  status: ('A' for Active; 'I' for Inactive)
REMARK    1  A    between atoms: C_1  and  O_2
REMARK    2  A    between atoms: O_2  and  C_3
REMARK    3  A    between atoms: C_6  and  S_7
REMARK    4  A    between atoms: S_7  and  N_10
REMARK    5  A    between atoms: N_10  and  C_11
REMARK    6  A    between atoms: N_10  and  C_23
REMARK    7  A    between atoms: C_11  and  C_12
REMARK    8  A    between atoms: C_15  and  C_16
REMARK    9  A    between atoms: C_26  and  O_27
REMARK   10  A    between atoms: O_27  and  C_28
REMARK                            x       y       z     vdW  Elec       q    Type
REMARK                         _______ _______ _______ _____ _____    ______ ____
ROOT
ATOM      1  N   UNL     1      -9.743   5.673 130.773  0.00  0.00    +0.000 N 
ENDROOT
BRANCH   1   2
ATOM      2  C   UNL     1     -10.818   6.606 130.316  0.00  0.00    +0.000 A 
ATOM      3  C   UNL     1     -11.970   6.920 131.030  0.00  0.00    +0.000 A 
ATOM      4  C   UNL     1     -12.814   7.965 130.590  0.00  0.00    +0.000 A 
ATOM      5  C   UNL     1     -12.473   8.719 129.472  0.00  0.00    +0.000 A 
ATOM      6  N   UNL     1     -11.349   8.474 128.781  0.00  0.00    +0.000 NA
ATOM      7  C   UNL     1     -10.579   7.438 129.204  0.00  0.00    +0.000 A 
BRANCH   5   8
ATOM      8  O   UNL     1     -13.197   9.757 128.959  0.00  0.00    +0.000 OA
ATOM      9  C   UNL     1     -13.489  10.823 129.850  0.00  0.00    +0.000 C 
ENDBRANCH   5   8
ENDBRANCH   1   2
BRANCH   1  10
ATOM     10  S   UNL     1      -9.772   4.018 130.184  0.00  0.00    +0.000 S 
ATOM     11  O   UNL     1      -8.947   4.085 128.960  0.00  0.00    +0.000 OA
ATOM     12  O   UNL     1     -11.146   3.648 130.076  0.00  0.00    +0.000 OA
BRANCH  10  16
ATOM     13  C   UNL     1      -8.040  -0.117 131.929  0.00  0.00    +0.000 A 
ATOM     14  C   UNL     1      -7.183   0.908 131.638  0.00  0.00    +0.000 A 
ATOM     15  C   UNL     1      -7.660   2.246 131.180  0.00  0.00    +0.000 A 
ATOM     16  C   UNL     1      -9.011   2.636 131.152  0.00  0.00    +0.000 A 
ATOM     17  C   UNL     1      -9.753   1.739 131.797  0.00  0.00    +0.000 A 
ATOM     18  C   UNL     1      -9.286   0.371 131.876  0.00  0.00    +0.000 A 
BRANCH  13  20
ATOM     19  C   UNL     1      -7.262  -2.446 131.465  0.00  0.00    +0.000 C 
ATOM     20  O   UNL     1      -7.778  -1.395 132.356  0.00  0.00    +0.000 OA
ENDBRANCH  13  20
ENDBRANCH  10  16
ENDBRANCH   1  10
BRANCH   1  21
ATOM     21  C   UNL     1      -9.029   6.317 131.918  0.00  0.00    +0.000 C 
BRANCH  21  22
ATOM     22  C   UNL     1      -7.575   6.346 131.984  0.00  0.00    +0.000 A 
ATOM     23  N   UNL     1      -6.873   5.842 132.997  0.00  0.00    +0.000 NA
ATOM     24  O   UNL     1      -5.542   6.003 132.515  0.00  0.00    +0.000 OA
ATOM     25  C   UNL     1      -5.619   6.391 131.134  0.00  0.00    +0.000 A 
ATOM     26  N   UNL     1      -6.840   6.809 130.889  0.00  0.00    +0.000 NA
BRANCH  25  27
ATOM     27  C   UNL     1      -4.386   6.058 130.164  0.00  0.00    +0.000 A 
ATOM     28  C   UNL     1      -3.082   6.718 129.885  0.00  0.00    +0.000 A 
ATOM     29  C   UNL     1      -2.297   6.436 128.715  0.00  0.00    +0.000 A 
ATOM     30  C   UNL     1      -2.713   5.429 127.862  0.00  0.00    +0.000 A 
ATOM     31  C   UNL     1      -3.947   4.826 128.099  0.00  0.00    +0.000 A 
ATOM     32  C   UNL     1      -4.761   5.155 129.194  0.00  0.00    +0.000 A 
ENDBRANCH  25  27
ENDBRANCH  21  22
ENDBRANCH   1  21
TORSDOF 8
ENDMDL
MODEL 6
REMARK VINA RESULT:      -8.4      4.551      7.243
REMARK  Name = CHEMBL514287
REMARK  10 active torsions:
REMARK  status: ('A' for Active; 'I' for Inactive)
REMARK    1  A    between atoms: C_1  and  O_2
REMARK    2  A    between atoms: O_2  and  C_3
REMARK    3  A    between atoms: C_6  and  S_7
REMARK    4  A    between atoms: S_7  and  N_10
REMARK    5  A    between atoms: N_10  and  C_11
REMARK    6  A    between atoms: N_10  and  C_23
REMARK    7  A    between atoms: C_11  and  C_12
REMARK    8  A    between atoms: C_15  and  C_16
REMARK    9  A    between atoms: C_26  and  O_27
REMARK   10  A    between atoms: O_27  and  C_28
REMARK                            x       y       z     vdW  Elec       q    Type
REMARK                         _______ _______ _______ _____ _____    ______ ____
ROOT
ATOM      1  N   UNL     1      -6.198   3.947 127.340  0.00  0.00    +0.000 N 
ENDROOT
BRANCH   1   2
ATOM      2  C   UNL     1      -6.915   3.301 126.198  0.00  0.00    +0.000 A 
ATOM      3  C   UNL     1      -7.008   1.931 125.975  0.00  0.00    +0.000 A 
ATOM      4  C   UNL     1      -7.878   1.432 124.980  0.00  0.00    +0.000 A 
ATOM      5  C   UNL     1      -8.685   2.301 124.253  0.00  0.00    +0.000 A 
ATOM      6  N   UNL     1      -8.656   3.625 124.467  0.00  0.00    +0.000 NA
ATOM      7  C   UNL     1      -7.780   4.079 125.402  0.00  0.00    +0.000 A 
BRANCH   5   8
ATOM      8  O   UNL     1      -9.571   1.940 123.278  0.00  0.00    +0.000 OA
ATOM      9  C   UNL     1      -9.695   0.549 123.023  0.00  0.00    +0.000 C 
ENDBRANCH   5   8
ENDBRANCH   1   2
BRANCH   1  10
ATOM     10  S   UNL     1      -4.585   4.582 127.056  0.00  0.00    +0.000 S 
ATOM     11  O   UNL     1      -4.847   5.940 126.537  0.00  0.00    +0.000 OA
ATOM     12  O   UNL     1      -3.915   3.636 126.222  0.00  0.00    +0.000 OA
BRANCH  10  16
ATOM     13  C   UNL     1      -2.060   6.103 130.858  0.00  0.00    +0.000 A 
ATOM     14  C   UNL     1      -2.736   4.917 130.925  0.00  0.00    +0.000 A 
ATOM     15  C   UNL     1      -3.464   4.342 129.755  0.00  0.00    +0.000 A 
ATOM     16  C   UNL     1      -3.400   4.866 128.451  0.00  0.00    +0.000 A 
ATOM     17  C   UNL     1      -2.437   5.780 128.378  0.00  0.00    +0.000 A 
ATOM     18  C   UNL     1      -2.061   6.498 129.578  0.00  0.00    +0.000 A 
BRANCH  13  20
ATOM     19  C   UNL     1      -1.904   7.887 132.601  0.00  0.00    +0.000 C 
ATOM     20  O   UNL     1      -1.346   6.769 131.822  0.00  0.00    +0.000 OA
ENDBRANCH  13  20
ENDBRANCH  10  16
ENDBRANCH   1  10
BRANCH   1  21
ATOM     21  C   UNL     1      -6.939   3.618 128.596  0.00  0.00    +0.000 C 
BRANCH  21  22
ATOM     22  C   UNL     1      -7.739   4.619 129.288  0.00  0.00    +0.000 A 
ATOM     23  N   UNL     1      -7.222   5.689 129.888  0.00  0.00    +0.000 NA
ATOM     24  O   UNL     1      -8.404   6.385 130.274  0.00  0.00    +0.000 OA
ATOM     25  C   UNL     1      -9.519   5.738 129.643  0.00  0.00    +0.000 A 
ATOM     26  N   UNL     1      -9.134   4.550 129.235  0.00  0.00    +0.000 NA
BRANCH  25  27
ATOM     27  C   UNL     1     -10.851   6.586 129.361  0.00  0.00    +0.000 A 
ATOM     28  C   UNL     1     -12.306   6.276 129.415  0.00  0.00    +0.000 A 
ATOM     29  C   UNL     1     -13.303   7.087 128.773  0.00  0.00    +0.000 A 
ATOM     30  C   UNL     1     -12.911   8.268 128.169  0.00  0.00    +0.000 A 
ATOM     31  C   UNL     1     -11.549   8.553 128.088  0.00  0.00    +0.000 A 
ATOM     32  C   UNL     1     -10.561   7.722 128.639  0.00  0.00    +0.000 A 
ENDBRANCH  25  27
ENDBRANCH  21  22
ENDBRANCH   1  21
TORSDOF 8
ENDMDL
MODEL 7
REMARK VINA RESULT:      -8.3      2.103      6.181
REMARK  Name = CHEMBL514287
REMARK  10 active torsions:
REMARK  status: ('A' for Active; 'I' for Inactive)
REMARK    1  A    between atoms: C_1  and  O_2
REMARK    2  A    between atoms: O_2  and  C_3
REMARK    3  A    between atoms: C_6  and  S_7
REMARK    4  A    between atoms: S_7  and  N_10
REMARK    5  A    between atoms: N_10  and  C_11
REMARK    6  A    between atoms: N_10  and  C_23
REMARK    7  A    between atoms: C_11  and  C_12
REMARK    8  A    between atoms: C_15  and  C_16
REMARK    9  A    between atoms: C_26  and  O_27
REMARK   10  A    between atoms: O_27  and  C_28
REMARK                            x       y       z     vdW  Elec       q    Type
REMARK                         _______ _______ _______ _____ _____    ______ ____
ROOT
ATOM      1  N   UNL     1      -7.483   2.105 123.939  0.00  0.00    +0.000 N 
ENDROOT
BRANCH   1   2
ATOM      2  C   UNL     1      -7.248   2.925 122.711  0.00  0.00    +0.000 A 
ATOM      3  C   UNL     1      -6.004   3.210 122.158  0.00  0.00    +0.000 A 
ATOM      4  C   UNL     1      -5.917   3.823 120.888  0.00  0.00    +0.000 A 
ATOM      5  C   UNL     1      -7.071   4.099 120.160  0.00  0.00    +0.000 A 
ATOM      6  N   UNL     1      -8.286   3.801 120.641  0.00  0.00    +0.000 NA
ATOM      7  C   UNL     1      -8.341   3.249 121.882  0.00  0.00    +0.000 A 
BRANCH   5   8
ATOM      8  O   UNL     1      -7.115   4.675 118.923  0.00  0.00    +0.000 OA
ATOM      9  C   UNL     1      -6.050   5.556 118.599  0.00  0.00    +0.000 C 
ENDBRANCH   5   8
ENDBRANCH   1   2
BRANCH   1  10
ATOM     10  S   UNL     1      -7.790   0.386 123.743  0.00  0.00    +0.000 S 
ATOM     11  O   UNL     1      -6.753  -0.030 122.776  0.00  0.00    +0.000 OA
ATOM     12  O   UNL     1      -9.166   0.254 123.387  0.00  0.00    +0.000 OA
BRANCH  10  16
ATOM     13  C   UNL     1      -6.519  -2.089 127.668  0.00  0.00    +0.000 A 
ATOM     14  C   UNL     1      -7.750  -1.497 127.609  0.00  0.00    +0.000 A 
ATOM     15  C   UNL     1      -8.243  -0.792 126.389  0.00  0.00    +0.000 A 
ATOM     16  C   UNL     1      -7.577  -0.798 125.151  0.00  0.00    +0.000 A 
ATOM     17  C   UNL     1      -6.594  -1.694 125.171  0.00  0.00    +0.000 A 
ATOM     18  C   UNL     1      -5.987  -2.040 126.440  0.00  0.00    +0.000 A 
BRANCH  13  20
ATOM     19  C   UNL     1      -4.452  -2.814 128.872  0.00  0.00    +0.000 C 
ATOM     20  O   UNL     1      -5.913  -2.770 128.694  0.00  0.00    +0.000 OA
ENDBRANCH  13  20
ENDBRANCH  10  16
ENDBRANCH   1  10
BRANCH   1  21
ATOM     21  C   UNL     1      -7.712   3.040 125.083  0.00  0.00    +0.000 C 
BRANCH  21  22
ATOM     22  C   UNL     1      -6.683   3.974 125.514  0.00  0.00    +0.000 A 
ATOM     23  N   UNL     1      -6.835   5.297 125.498  0.00  0.00    +0.000 NA
ATOM     24  O   UNL     1      -5.628   5.719 126.127  0.00  0.00    +0.000 OA
ATOM     25  C   UNL     1      -4.980   4.554 126.661  0.00  0.00    +0.000 A 
ATOM     26  N   UNL     1      -5.507   3.491 126.096  0.00  0.00    +0.000 NA
BRANCH  25  27
ATOM     27  C   UNL     1      -3.986   4.721 127.908  0.00  0.00    +0.000 A 
ATOM     28  C   UNL     1      -3.969   4.185 129.296  0.00  0.00    +0.000 A 
ATOM     29  C   UNL     1      -3.172   4.758 130.346  0.00  0.00    +0.000 A 
ATOM     30  C   UNL     1      -2.299   5.784 130.034  0.00  0.00    +0.000 A 
ATOM     31  C   UNL     1      -2.328   6.311 128.744  0.00  0.00    +0.000 A 
ATOM     32  C   UNL     1      -3.165   5.813 127.734  0.00  0.00    +0.000 A 
ENDBRANCH  25  27
ENDBRANCH  21  22
ENDBRANCH   1  21
TORSDOF 8
ENDMDL
MODEL 8
REMARK VINA RESULT:      -8.2      4.806      8.475
REMARK  Name = CHEMBL514287
REMARK  10 active torsions:
REMARK  status: ('A' for Active; 'I' for Inactive)
REMARK    1  A    between atoms: C_1  and  O_2
REMARK    2  A    between atoms: O_2  and  C_3
REMARK    3  A    between atoms: C_6  and  S_7
REMARK    4  A    between atoms: S_7  and  N_10
REMARK    5  A    between atoms: N_10  and  C_11
REMARK    6  A    between atoms: N_10  and  C_23
REMARK    7  A    between atoms: C_11  and  C_12
REMARK    8  A    between atoms: C_15  and  C_16
REMARK    9  A    between atoms: C_26  and  O_27
REMARK   10  A    between atoms: O_27  and  C_28
REMARK                            x       y       z     vdW  Elec       q    Type
REMARK                         _______ _______ _______ _____ _____    ______ ____
ROOT
ATOM      1  N   UNL     1      -5.891   2.989 128.372  0.00  0.00    +0.000 N 
ENDROOT
BRANCH   1   2
ATOM      2  C   UNL     1      -4.775   3.840 128.887  0.00  0.00    +0.000 A 
ATOM      3  C   UNL     1      -4.446   5.108 128.419  0.00  0.00    +0.000 A 
ATOM      4  C   UNL     1      -3.504   5.898 129.115  0.00  0.00    +0.000 A 
ATOM      5  C   UNL     1      -2.939   5.436 130.300  0.00  0.00    +0.000 A 
ATOM      6  N   UNL     1      -3.263   4.237 130.806  0.00  0.00    +0.000 NA
ATOM      7  C   UNL     1      -4.140   3.484 130.093  0.00  0.00    +0.000 A 
BRANCH   5   8
ATOM      8  O   UNL     1      -2.031   6.110 131.066  0.00  0.00    +0.000 OA
ATOM      9  C   UNL     1      -2.468   7.339 131.626  0.00  0.00    +0.000 C 
ENDBRANCH   5   8
ENDBRANCH   1   2
BRANCH   1  10
ATOM     10  S   UNL     1      -5.652   2.134 126.855  0.00  0.00    +0.000 S 
ATOM     11  O   UNL     1      -6.569   0.981 126.974  0.00  0.00    +0.000 OA
ATOM     12  O   UNL     1      -4.249   1.896 126.738  0.00  0.00    +0.000 OA
BRANCH  10  16
ATOM     13  C   UNL     1      -5.928   3.922 122.398  0.00  0.00    +0.000 A 
ATOM     14  C   UNL     1      -6.665   2.820 122.733  0.00  0.00    +0.000 A 
ATOM     15  C   UNL     1      -6.696   2.268 124.119  0.00  0.00    +0.000 A 
ATOM     16  C   UNL     1      -6.113   2.898 125.233  0.00  0.00    +0.000 A 
ATOM     17  C   UNL     1      -5.746   4.136 124.912  0.00  0.00    +0.000 A 
ATOM     18  C   UNL     1      -5.431   4.436 123.530  0.00  0.00    +0.000 A 
BRANCH  13  20
ATOM     19  C   UNL     1      -6.605   4.228 120.012  0.00  0.00    +0.000 C 
ATOM     20  O   UNL     1      -5.785   4.557 121.189  0.00  0.00    +0.000 OA
ENDBRANCH  13  20
ENDBRANCH  10  16
ENDBRANCH   1  10
BRANCH   1  21
ATOM     21  C   UNL     1      -7.122   3.317 129.153  0.00  0.00    +0.000 C 
BRANCH  21  22
ATOM     22  C   UNL     1      -7.943   4.473 128.821  0.00  0.00    +0.000 A 
ATOM     23  N   UNL     1      -8.505   4.659 127.629  0.00  0.00    +0.000 NA
ATOM     24  O   UNL     1      -9.283   5.828 127.872  0.00  0.00    +0.000 OA
ATOM     25  C   UNL     1      -9.267   6.079 129.286  0.00  0.00    +0.000 A 
ATOM     26  N   UNL     1      -8.282   5.393 129.818  0.00  0.00    +0.000 NA
BRANCH  25  27
ATOM     27  C   UNL     1     -10.484   6.891 129.944  0.00  0.00    +0.000 A 
ATOM     28  C   UNL     1     -11.424   6.616 131.065  0.00  0.00    +0.000 A 
ATOM     29  C   UNL     1     -12.660   7.327 131.242  0.00  0.00    +0.000 A 
ATOM     30  C   UNL     1     -12.942   8.388 130.400  0.00  0.00    +0.000 A 
ATOM     31  C   UNL     1     -12.083   8.634 129.331  0.00  0.00    +0.000 A 
ATOM     32  C   UNL     1     -10.916   7.889 129.101  0.00  0.00    +0.000 A 
ENDBRANCH  25  27
ENDBRANCH  21  22
ENDBRANCH   1  21
TORSDOF 8
ENDMDL
MODEL 9
REMARK VINA RESULT:      -8.1      5.576      7.922
REMARK  Name = CHEMBL514287
REMARK  10 active torsions:
REMARK  status: ('A' for Active; 'I' for Inactive)
REMARK    1  A    between atoms: C_1  and  O_2
REMARK    2  A    between atoms: O_2  and  C_3
REMARK    3  A    between atoms: C_6  and  S_7
REMARK    4  A    between atoms: S_7  and  N_10
REMARK    5  A    between atoms: N_10  and  C_11
REMARK    6  A    between atoms: N_10  and  C_23
REMARK    7  A    between atoms: C_11  and  C_12
REMARK    8  A    between atoms: C_15  and  C_16
REMARK    9  A    between atoms: C_26  and  O_27
REMARK   10  A    between atoms: O_27  and  C_28
REMARK                            x       y       z     vdW  Elec       q    Type
REMARK                         _______ _______ _______ _____ _____    ______ ____
ROOT
ATOM      1  N   UNL     1      -7.933   3.999 131.412  0.00  0.00    +0.000 N 
ENDROOT
BRANCH   1   2
ATOM      2  C   UNL     1      -9.164   4.838 131.279  0.00  0.00    +0.000 A 
ATOM      3  C   UNL     1     -10.154   4.671 130.315  0.00  0.00    +0.000 A 
ATOM      4  C   UNL     1     -11.366   5.391 130.412  0.00  0.00    +0.000 A 
ATOM      5  C   UNL     1     -11.598   6.233 131.495  0.00  0.00    +0.000 A 
ATOM      6  N   UNL     1     -10.686   6.388 132.466  0.00  0.00    +0.000 NA
ATOM      7  C   UNL     1      -9.515   5.714 132.326  0.00  0.00    +0.000 A 
BRANCH   5   8
ATOM      8  O   UNL     1     -12.729   6.969 131.705  0.00  0.00    +0.000 OA
ATOM      9  C   UNL     1     -12.962   8.039 130.801  0.00  0.00    +0.000 C 
ENDBRANCH   5   8
ENDBRANCH   1   2
BRANCH   1  10
ATOM     10  S   UNL     1      -6.804   3.962 130.066  0.00  0.00    +0.000 S 
ATOM     11  O   UNL     1      -5.586   3.383 130.669  0.00  0.00    +0.000 OA
ATOM     12  O   UNL     1      -6.756   5.286 129.536  0.00  0.00    +0.000 OA
BRANCH  10  16
ATOM     13  C   UNL     1      -8.486   1.586 126.235  0.00  0.00    +0.000 A 
ATOM     14  C   UNL     1      -7.481   2.500 126.078  0.00  0.00    +0.000 A 
ATOM     15  C   UNL     1      -6.852   3.206 127.233  0.00  0.00    +0.000 A 
ATOM     16  C   UNL     1      -7.108   2.897 128.581  0.00  0.00    +0.000 A 
ATOM     17  C   UNL     1      -7.796   1.761 128.662  0.00  0.00    +0.000 A 
ATOM     18  C   UNL     1      -8.635   1.370 127.548  0.00  0.00    +0.000 A 
BRANCH  13  20
ATOM     19  C   UNL     1     -10.000   1.471 124.250  0.00  0.00    +0.000 C 
ATOM     20  O   UNL     1      -9.170   0.853 125.297  0.00  0.00    +0.000 OA
ENDBRANCH  13  20
ENDBRANCH  10  16
ENDBRANCH   1  10
BRANCH   1  21
ATOM     21  C   UNL     1      -8.108   3.108 132.599  0.00  0.00    +0.000 C 
BRANCH  21  22
ATOM     22  C   UNL     1      -8.581   1.739 132.455  0.00  0.00    +0.000 A 
ATOM     23  N   UNL     1      -9.779   1.421 131.968  0.00  0.00    +0.000 NA
ATOM     24  O   UNL     1      -9.687   0.000 131.916  0.00  0.00    +0.000 OA
ATOM     25  C   UNL     1      -8.321  -0.360 132.176  0.00  0.00    +0.000 A 
ATOM     26  N   UNL     1      -7.715   0.673 132.716  0.00  0.00    +0.000 NA
BRANCH  25  27
ATOM     27  C   UNL     1      -7.761  -1.748 131.602  0.00  0.00    +0.000 A 
ATOM     28  C   UNL     1      -6.846  -2.794 132.135  0.00  0.00    +0.000 A 
ATOM     29  C   UNL     1      -6.205  -3.772 131.301  0.00  0.00    +0.000 A 
ATOM     30  C   UNL     1      -6.534  -3.818 129.958  0.00  0.00    +0.000 A 
ATOM     31  C   UNL     1      -7.367  -2.826 129.444  0.00  0.00    +0.000 A 
ATOM     32  C   UNL     1      -7.930  -1.815 130.237  0.00  0.00    +0.000 A 
ENDBRANCH  25  27
ENDBRANCH  21  22
ENDBRANCH   1  21
TORSDOF 8
ENDMDL
