MODEL 1
REMARK VINA RESULT:     -10.6      0.000      0.000
REMARK  Name = CHEMBL302029
REMARK  7 active torsions:
REMARK  status: ('A' for Active; 'I' for Inactive)
REMARK    1  A    between atoms: C_1  and  O_2
REMARK    2  A    between atoms: O_2  and  C_3
REMARK    3  A    between atoms: C_5  and  O_6
REMARK    4  A    between atoms: O_6  and  C_7
REMARK    5  A    between atoms: N_10  and  C_11
REMARK    6  A    between atoms: C_26  and  C_27
REMARK    7  A    between atoms: C_32  and  N_33
REMARK                            x       y       z     vdW  Elec       q    Type
REMARK                         _______ _______ _______ _____ _____    ______ ____
ROOT
ATOM      1  C   UNL     1      -3.273   4.262 126.995  0.00  0.00    +0.000 A 
ATOM      2  C   UNL     1      -2.283   4.666 128.042  0.00  0.00    +0.000 A 
ATOM      3  C   UNL     1      -2.487   5.768 128.761  0.00  0.00    +0.000 A 
ATOM      4  C   UNL     1      -3.630   6.199 128.288  0.00  0.00    +0.000 A 
ATOM      5  F   UNL     1      -3.639   7.431 128.498  0.00  0.00    +0.000 F 
ATOM      6  C   UNL     1      -4.782   5.515 127.916  0.00  0.00    +0.000 A 
ATOM      7  C   UNL     1      -4.556   4.789 126.851  0.00  0.00    +0.000 A 
ENDROOT
BRANCH   7   8
ATOM      8  C   UNL     1      -5.708   4.663 125.836  0.00  0.00    +0.000 C 
ATOM      9  O   UNL     1      -6.353   5.543 125.273  0.00  0.00    +0.000 OA
ATOM     10  N   UNL     1      -6.141   3.403 125.748  0.00  0.00    +0.000 N 
ATOM     11  C   UNL     1      -6.114   2.598 124.544  0.00  0.00    +0.000 C 
ATOM     12  C   UNL     1      -7.474   1.970 124.351  0.00  0.00    +0.000 C 
ATOM     13  C   UNL     1      -7.985   1.331 125.666  0.00  0.00    +0.000 C 
ATOM     14  C   UNL     1      -8.044   2.364 126.796  0.00  0.00    +0.000 C 
ATOM     15  C   UNL     1      -6.703   2.948 126.975  0.00  0.00    +0.000 C 
BRANCH  13  16
ATOM     16  N   UNL     1      -7.256   0.045 125.973  0.00  0.00    +0.000 N 
ATOM     17  C   UNL     1      -6.916  -0.404 127.240  0.00  0.00    +0.000 C 
ATOM     18  O   UNL     1      -7.615  -0.437 128.259  0.00  0.00    +0.000 OA
ATOM     19  O   UNL     1      -5.643  -0.809 127.389  0.00  0.00    +0.000 OA
ATOM     20  C   UNL     1      -5.471  -2.019 126.699  0.00  0.00    +0.000 C 
ATOM     21  C   UNL     1      -5.888  -1.824 125.278  0.00  0.00    +0.000 A 
ATOM     22  C   UNL     1      -5.397  -2.698 124.319  0.00  0.00    +0.000 A 
ATOM     23  C   UNL     1      -5.776  -2.537 122.996  0.00  0.00    +0.000 A 
ATOM     24  C   UNL     1      -6.663  -1.523 122.639  0.00  0.00    +0.000 A 
ATOM     25  C   UNL     1      -7.167  -0.647 123.598  0.00  0.00    +0.000 A 
ATOM     26  C   UNL     1      -6.769  -0.780 124.924  0.00  0.00    +0.000 A 
ENDBRANCH  13  16
ENDBRANCH   7   8
BRANCH   1  28
ATOM     27  C   UNL     1      -1.554   2.970 126.575  0.00  0.00    +0.000 C 
ATOM     28  O   UNL     1      -2.902   3.241 126.212  0.00  0.00    +0.000 OA
ENDBRANCH   1  28
BRANCH   3  29
ATOM     29  O   UNL     1      -1.819   6.519 129.698  0.00  0.00    +0.000 OA
BRANCH  29  30
ATOM     30  C   UNL     1      -2.017   6.321 131.246  0.00  0.00    +0.000 C 
ATOM     31  C   UNL     1      -2.325   4.855 131.664  0.00  0.00    +0.000 C 
ATOM     32  C   UNL     1      -3.816   4.504 131.437  0.00  0.00    +0.000 C 
ATOM     33  N   UNL     1      -4.862   5.595 131.819  0.00  0.00    +0.000 NA
ATOM     34  C   UNL     1      -4.429   7.120 131.898  0.00  0.00    +0.000 C 
ATOM     35  C   UNL     1      -2.934   7.279 132.114  0.00  0.00    +0.000 C 
BRANCH  33  36
ATOM     36  C   UNL     1      -6.303   5.566 131.205  0.00  0.00    +0.000 C 
ATOM     37  C   UNL     1      -7.183   6.861 130.913  0.00  0.00    +0.000 C 
ATOM     38  C   UNL     1      -8.633   6.639 130.596  0.00  0.00    +0.000 C 
ATOM     39  C   UNL     1      -9.201   6.386 131.937  0.00  0.00    +0.000 C 
ATOM     40  C   UNL     1      -8.433   5.268 132.605  0.00  0.00    +0.000 A 
ATOM     41  N   UNL     1      -9.018   4.767 133.697  0.00  0.00    +0.000 NA
ATOM     42  C   UNL     1      -8.328   3.832 134.385  0.00  0.00    +0.000 A 
ATOM     43  C   UNL     1      -7.078   3.340 134.065  0.00  0.00    +0.000 A 
ATOM     44  C   UNL     1      -6.500   3.810 132.924  0.00  0.00    +0.000 A 
ATOM     45  C   UNL     1      -7.151   4.829 132.212  0.00  0.00    +0.000 A 
ENDBRANCH  33  36
ENDBRANCH  29  30
ENDBRANCH   3  29
TORSDOF 6
ENDMDL
MODEL 2
REMARK VINA RESULT:     -10.3      2.936      7.952
REMARK  Name = CHEMBL302029
REMARK  7 active torsions:
REMARK  status: ('A' for Active; 'I' for Inactive)
REMARK    1  A    between atoms: C_1  and  O_2
REMARK    2  A    between atoms: O_2  and  C_3
REMARK    3  A    between atoms: C_5  and  O_6
REMARK    4  A    between atoms: O_6  and  C_7
REMARK    5  A    between atoms: N_10  and  C_11
REMARK    6  A    between atoms: C_26  and  C_27
REMARK    7  A    between atoms: C_32  and  N_33
REMARK                            x       y       z     vdW  Elec       q    Type
REMARK                         _______ _______ _______ _____ _____    ______ ____
ROOT
ATOM      1  C   UNL     1      -3.221   3.958 127.776  0.00  0.00    +0.000 A 
ATOM      2  C   UNL     1      -4.128   2.890 127.255  0.00  0.00    +0.000 A 
ATOM      3  C   UNL     1      -5.132   2.443 128.008  0.00  0.00    +0.000 A 
ATOM      4  C   UNL     1      -5.012   3.173 129.089  0.00  0.00    +0.000 A 
ATOM      5  F   UNL     1      -5.531   2.503 130.007  0.00  0.00    +0.000 F 
ATOM      6  C   UNL     1      -4.703   4.519 129.254  0.00  0.00    +0.000 A 
ATOM      7  C   UNL     1      -3.464   4.747 128.900  0.00  0.00    +0.000 A 
ENDROOT
BRANCH   7   8
ATOM      8  C   UNL     1      -2.689   5.800 129.716  0.00  0.00    +0.000 C 
ATOM      9  O   UNL     1      -1.793   6.561 129.360  0.00  0.00    +0.000 OA
ATOM     10  N   UNL     1      -2.942   5.684 131.022  0.00  0.00    +0.000 N 
ATOM     11  C   UNL     1      -3.542   6.713 131.846  0.00  0.00    +0.000 C 
ATOM     12  C   UNL     1      -2.706   6.881 133.094  0.00  0.00    +0.000 C 
ATOM     13  C   UNL     1      -2.375   5.510 133.732  0.00  0.00    +0.000 C 
ATOM     14  C   UNL     1      -1.649   4.598 132.739  0.00  0.00    +0.000 C 
ATOM     15  C   UNL     1      -2.493   4.436 131.541  0.00  0.00    +0.000 C 
BRANCH  13  16
ATOM     16  N   UNL     1      -3.580   4.921 134.425  0.00  0.00    +0.000 N 
ATOM     17  C   UNL     1      -4.053   3.627 134.256  0.00  0.00    +0.000 C 
ATOM     18  O   UNL     1      -3.413   2.569 134.244  0.00  0.00    +0.000 OA
ATOM     19  O   UNL     1      -5.372   3.518 134.024  0.00  0.00    +0.000 OA
ATOM     20  C   UNL     1      -6.064   3.827 135.205  0.00  0.00    +0.000 C 
ATOM     21  C   UNL     1      -5.636   5.179 135.672  0.00  0.00    +0.000 A 
ATOM     22  C   UNL     1      -6.477   5.882 136.523  0.00  0.00    +0.000 A 
ATOM     23  C   UNL     1      -6.095   7.136 136.971  0.00  0.00    +0.000 A 
ATOM     24  C   UNL     1      -4.867   7.673 136.592  0.00  0.00    +0.000 A 
ATOM     25  C   UNL     1      -4.013   6.969 135.746  0.00  0.00    +0.000 A 
ATOM     26  C   UNL     1      -4.399   5.722 135.264  0.00  0.00    +0.000 A 
ENDBRANCH  13  16
ENDBRANCH   7   8
BRANCH   1  28
ATOM     27  C   UNL     1      -1.657   2.948 126.622  0.00  0.00    +0.000 C 
ATOM     28  O   UNL     1      -2.145   4.222 127.023  0.00  0.00    +0.000 OA
ENDBRANCH   1  28
BRANCH   3  29
ATOM     29  O   UNL     1      -6.086   1.455 127.964  0.00  0.00    +0.000 OA
BRANCH  29  30
ATOM     30  C   UNL     1      -7.595   1.744 127.620  0.00  0.00    +0.000 C 
ATOM     31  C   UNL     1      -7.813   2.999 126.729  0.00  0.00    +0.000 C 
ATOM     32  C   UNL     1      -7.764   4.301 127.565  0.00  0.00    +0.000 C 
ATOM     33  N   UNL     1      -8.470   4.274 128.954  0.00  0.00    +0.000 NA
ATOM     34  C   UNL     1      -8.726   2.891 129.690  0.00  0.00    +0.000 C 
ATOM     35  C   UNL     1      -8.734   1.721 128.722  0.00  0.00    +0.000 C 
BRANCH  33  36
ATOM     36  C   UNL     1      -8.087   5.312 130.063  0.00  0.00    +0.000 C 
ATOM     37  C   UNL     1      -7.411   4.933 131.454  0.00  0.00    +0.000 C 
ATOM     38  C   UNL     1      -7.375   6.004 132.505  0.00  0.00    +0.000 C 
ATOM     39  C   UNL     1      -8.762   5.975 133.014  0.00  0.00    +0.000 C 
ATOM     40  C   UNL     1      -9.724   6.136 131.860  0.00  0.00    +0.000 A 
ATOM     41  N   UNL     1     -10.985   6.399 132.218  0.00  0.00    +0.000 NA
ATOM     42  C   UNL     1     -11.902   6.457 131.228  0.00  0.00    +0.000 A 
ATOM     43  C   UNL     1     -11.661   6.275 129.880  0.00  0.00    +0.000 A 
ATOM     44  C   UNL     1     -10.369   6.058 129.505  0.00  0.00    +0.000 A 
ATOM     45  C   UNL     1      -9.392   5.926 130.504  0.00  0.00    +0.000 A 
ENDBRANCH  33  36
ENDBRANCH  29  30
ENDBRANCH   3  29
TORSDOF 6
ENDMDL
MODEL 3
REMARK VINA RESULT:     -10.3      2.891      6.059
REMARK  Name = CHEMBL302029
REMARK  7 active torsions:
REMARK  status: ('A' for Active; 'I' for Inactive)
REMARK    1  A    between atoms: C_1  and  O_2
REMARK    2  A    between atoms: O_2  and  C_3
REMARK    3  A    between atoms: C_5  and  O_6
REMARK    4  A    between atoms: O_6  and  C_7
REMARK    5  A    between atoms: N_10  and  C_11
REMARK    6  A    between atoms: C_26  and  C_27
REMARK    7  A    between atoms: C_32  and  N_33
REMARK                            x       y       z     vdW  Elec       q    Type
REMARK                         _______ _______ _______ _____ _____    ______ ____
ROOT
ATOM      1  C   UNL     1      -7.212   1.395 132.392  0.00  0.00    +0.000 A 
ATOM      2  C   UNL     1      -7.756   2.780 132.545  0.00  0.00    +0.000 A 
ATOM      3  C   UNL     1      -8.903   3.114 131.957  0.00  0.00    +0.000 A 
ATOM      4  C   UNL     1      -9.250   1.993 131.374  0.00  0.00    +0.000 A 
ATOM      5  F   UNL     1      -9.980   2.324 130.415  0.00  0.00    +0.000 F 
ATOM      6  C   UNL     1      -9.170   0.674 131.807  0.00  0.00    +0.000 A 
ATOM      7  C   UNL     1      -7.919   0.300 131.894  0.00  0.00    +0.000 A 
ENDROOT
BRANCH   7   8
ATOM      8  C   UNL     1      -7.599  -1.160 131.520  0.00  0.00    +0.000 C 
ATOM      9  O   UNL     1      -7.311  -2.108 132.246  0.00  0.00    +0.000 OA
ATOM     10  N   UNL     1      -7.445  -1.300 130.202  0.00  0.00    +0.000 N 
ATOM     11  C   UNL     1      -8.261  -2.146 129.355  0.00  0.00    +0.000 C 
ATOM     12  C   UNL     1      -7.351  -2.988 128.492  0.00  0.00    +0.000 C 
ATOM     13  C   UNL     1      -6.244  -2.123 127.840  0.00  0.00    +0.000 C 
ATOM     14  C   UNL     1      -5.420  -1.387 128.901  0.00  0.00    +0.000 C 
ATOM     15  C   UNL     1      -6.328  -0.561 129.717  0.00  0.00    +0.000 C 
BRANCH  13  16
ATOM     16  N   UNL     1      -6.796  -1.279 126.716  0.00  0.00    +0.000 N 
ATOM     17  C   UNL     1      -6.672   0.099 126.610  0.00  0.00    +0.000 C 
ATOM     18  O   UNL     1      -5.665   0.796 126.778  0.00  0.00    +0.000 OA
ATOM     19  O   UNL     1      -7.807   0.763 126.337  0.00  0.00    +0.000 OA
ATOM     20  C   UNL     1      -8.180   0.497 125.011  0.00  0.00    +0.000 C 
ATOM     21  C   UNL     1      -8.278  -0.983 124.829  0.00  0.00    +0.000 A 
ATOM     22  C   UNL     1      -9.049  -1.470 123.783  0.00  0.00    +0.000 A 
ATOM     23  C   UNL     1      -9.149  -2.839 123.595  0.00  0.00    +0.000 A 
ATOM     24  C   UNL     1      -8.461  -3.715 124.432  0.00  0.00    +0.000 A 
ATOM     25  C   UNL     1      -7.678  -3.232 125.478  0.00  0.00    +0.000 A 
ATOM     26  C   UNL     1      -7.595  -1.861 125.697  0.00  0.00    +0.000 A 
ENDBRANCH  13  16
ENDBRANCH   7   8
BRANCH   1  28
ATOM     27  C   UNL     1      -6.075   1.482 134.263  0.00  0.00    +0.000 C 
ATOM     28  O   UNL     1      -5.977   1.202 132.872  0.00  0.00    +0.000 OA
ENDBRANCH   1  28
BRANCH   3  29
ATOM     29  O   UNL     1      -9.666   4.239 131.763  0.00  0.00    +0.000 OA
BRANCH  29  30
ATOM     30  C   UNL     1      -9.203   5.433 130.847  0.00  0.00    +0.000 C 
ATOM     31  C   UNL     1      -8.813   5.010 129.403  0.00  0.00    +0.000 C 
ATOM     32  C   UNL     1      -7.379   4.428 129.353  0.00  0.00    +0.000 C 
ATOM     33  N   UNL     1      -6.295   5.150 130.208  0.00  0.00    +0.000 NA
ATOM     34  C   UNL     1      -6.724   6.044 131.448  0.00  0.00    +0.000 C 
ATOM     35  C   UNL     1      -8.161   6.522 131.337  0.00  0.00    +0.000 C 
BRANCH  33  36
ATOM     36  C   UNL     1      -4.980   4.405 130.622  0.00  0.00    +0.000 C 
ATOM     37  C   UNL     1      -4.376   4.398 132.096  0.00  0.00    +0.000 C 
ATOM     38  C   UNL     1      -2.976   3.881 132.252  0.00  0.00    +0.000 C 
ATOM     39  C   UNL     1      -2.174   5.030 131.780  0.00  0.00    +0.000 C 
ATOM     40  C   UNL     1      -2.639   5.433 130.399  0.00  0.00    +0.000 A 
ATOM     41  N   UNL     1      -1.820   6.272 129.759  0.00  0.00    +0.000 NA
ATOM     42  C   UNL     1      -2.236   6.738 128.562  0.00  0.00    +0.000 A 
ATOM     43  C   UNL     1      -3.425   6.427 127.933  0.00  0.00    +0.000 A 
ATOM     44  C   UNL     1      -4.240   5.531 128.558  0.00  0.00    +0.000 A 
ATOM     45  C   UNL     1      -3.880   5.069 129.833  0.00  0.00    +0.000 A 
ENDBRANCH  33  36
ENDBRANCH  29  30
ENDBRANCH   3  29
TORSDOF 6
ENDMDL
MODEL 4
REMARK VINA RESULT:     -10.2      2.661      4.188
REMARK  Name = CHEMBL302029
REMARK  7 active torsions:
REMARK  status: ('A' for Active; 'I' for Inactive)
REMARK    1  A    between atoms: C_1  and  O_2
REMARK    2  A    between atoms: O_2  and  C_3
REMARK    3  A    between atoms: C_5  and  O_6
REMARK    4  A    between atoms: O_6  and  C_7
REMARK    5  A    between atoms: N_10  and  C_11
REMARK    6  A    between atoms: C_26  and  C_27
REMARK    7  A    between atoms: C_32  and  N_33
REMARK                            x       y       z     vdW  Elec       q    Type
REMARK                         _______ _______ _______ _____ _____    ______ ____
ROOT
ATOM      1  C   UNL     1      -5.243   5.250 129.272  0.00  0.00    +0.000 A 
ATOM      2  C   UNL     1      -5.432   5.072 130.745  0.00  0.00    +0.000 A 
ATOM      3  C   UNL     1      -6.110   4.023 131.208  0.00  0.00    +0.000 A 
ATOM      4  C   UNL     1      -6.424   3.390 130.105  0.00  0.00    +0.000 A 
ATOM      5  F   UNL     1      -7.453   2.733 130.374  0.00  0.00    +0.000 F 
ATOM      6  C   UNL     1      -5.694   3.156 128.945  0.00  0.00    +0.000 A 
ATOM      7  C   UNL     1      -5.490   4.278 128.302  0.00  0.00    +0.000 A 
ENDROOT
BRANCH   7   8
ATOM      8  C   UNL     1      -5.504   4.212 126.763  0.00  0.00    +0.000 C 
ATOM      9  O   UNL     1      -5.144   5.051 125.942  0.00  0.00    +0.000 OA
ATOM     10  N   UNL     1      -6.191   3.153 126.329  0.00  0.00    +0.000 N 
ATOM     11  C   UNL     1      -5.641   2.077 125.531  0.00  0.00    +0.000 C 
ATOM     12  C   UNL     1      -6.555   1.833 124.353  0.00  0.00    +0.000 C 
ATOM     13  C   UNL     1      -8.034   1.749 124.803  0.00  0.00    +0.000 C 
ATOM     14  C   UNL     1      -8.462   3.023 125.538  0.00  0.00    +0.000 C 
ATOM     15  C   UNL     1      -7.566   3.228 126.691  0.00  0.00    +0.000 C 
BRANCH  13  16
ATOM     16  N   UNL     1      -8.322   0.443 125.504  0.00  0.00    +0.000 N 
ATOM     17  C   UNL     1      -8.225   0.225 126.871  0.00  0.00    +0.000 C 
ATOM     18  O   UNL     1      -8.643   0.932 127.794  0.00  0.00    +0.000 OA
ATOM     19  O   UNL     1      -7.544  -0.874 127.235  0.00  0.00    +0.000 OA
ATOM     20  C   UNL     1      -8.305  -2.007 126.909  0.00  0.00    +0.000 C 
ATOM     21  C   UNL     1      -8.647  -1.953 125.456  0.00  0.00    +0.000 A 
ATOM     22  C   UNL     1      -8.983  -3.135 124.811  0.00  0.00    +0.000 A 
ATOM     23  C   UNL     1      -9.307  -3.106 123.465  0.00  0.00    +0.000 A 
ATOM     24  C   UNL     1      -9.322  -1.896 122.773  0.00  0.00    +0.000 A 
ATOM     25  C   UNL     1      -8.996  -0.704 123.416  0.00  0.00    +0.000 A 
ATOM     26  C   UNL     1      -8.638  -0.725 124.760  0.00  0.00    +0.000 A 
ENDBRANCH  13  16
ENDBRANCH   7   8
BRANCH   1  28
ATOM     27  C   UNL     1      -3.301   6.245 129.084  0.00  0.00    +0.000 C 
ATOM     28  O   UNL     1      -4.700   6.415 128.895  0.00  0.00    +0.000 OA
ENDBRANCH   1  28
BRANCH   3  29
ATOM     29  O   UNL     1      -6.582   3.557 132.410  0.00  0.00    +0.000 OA
BRANCH  29  30
ATOM     30  C   UNL     1      -7.645   4.338 133.268  0.00  0.00    +0.000 C 
ATOM     31  C   UNL     1      -9.013   3.611 133.398  0.00  0.00    +0.000 C 
ATOM     32  C   UNL     1      -9.887   3.823 132.138  0.00  0.00    +0.000 C 
ATOM     33  N   UNL     1      -9.889   5.251 131.513  0.00  0.00    +0.000 NA
ATOM     34  C   UNL     1      -8.683   6.243 131.794  0.00  0.00    +0.000 C 
ATOM     35  C   UNL     1      -7.930   5.883 133.063  0.00  0.00    +0.000 C 
BRANCH  33  36
ATOM     36  C   UNL     1     -10.314   5.466 130.021  0.00  0.00    +0.000 C 
ATOM     37  C   UNL     1      -9.339   5.988 128.875  0.00  0.00    +0.000 C 
ATOM     38  C   UNL     1      -9.975   6.406 127.581  0.00  0.00    +0.000 C 
ATOM     39  C   UNL     1     -10.510   7.741 127.924  0.00  0.00    +0.000 C 
ATOM     40  C   UNL     1     -11.386   7.630 129.151  0.00  0.00    +0.000 A 
ATOM     41  N   UNL     1     -12.140   8.706 129.397  0.00  0.00    +0.000 NA
ATOM     42  C   UNL     1     -12.869   8.695 130.533  0.00  0.00    +0.000 A 
ATOM     43  C   UNL     1     -12.914   7.677 131.465  0.00  0.00    +0.000 A 
ATOM     44  C   UNL     1     -12.187   6.556 131.194  0.00  0.00    +0.000 A 
ATOM     45  C   UNL     1     -11.365   6.547 130.057  0.00  0.00    +0.000 A 
ENDBRANCH  33  36
ENDBRANCH  29  30
ENDBRANCH   3  29
TORSDOF 6
ENDMDL
MODEL 5
REMARK VINA RESULT:     -10.0      3.552      9.008
REMARK  Name = CHEMBL302029
REMARK  7 active torsions:
REMARK  status: ('A' for Active; 'I' for Inactive)
REMARK    1  A    between atoms: C_1  and  O_2
REMARK    2  A    between atoms: O_2  and  C_3
REMARK    3  A    between atoms: C_5  and  O_6
REMARK    4  A    between atoms: O_6  and  C_7
REMARK    5  A    between atoms: N_10  and  C_11
REMARK    6  A    between atoms: C_26  and  C_27
REMARK    7  A    between atoms: C_32  and  N_33
REMARK                            x       y       z     vdW  Elec       q    Type
REMARK                         _______ _______ _______ _____ _____    ______ ____
ROOT
ATOM      1  C   UNL     1      -5.379   1.521 131.630  0.00  0.00    +0.000 A 
ATOM      2  C   UNL     1      -4.935   0.229 131.021  0.00  0.00    +0.000 A 
ATOM      3  C   UNL     1      -4.697  -0.827 131.798  0.00  0.00    +0.000 A 
ATOM      4  C   UNL     1      -4.974  -0.359 132.990  0.00  0.00    +0.000 A 
ATOM      5  F   UNL     1      -4.308  -1.054 133.787  0.00  0.00    +0.000 F 
ATOM      6  C   UNL     1      -5.992   0.480 133.429  0.00  0.00    +0.000 A 
ATOM      7  C   UNL     1      -5.832   1.683 132.939  0.00  0.00    +0.000 A 
ENDROOT
BRANCH   7   8
ATOM      8  C   UNL     1      -6.225   2.864 133.847  0.00  0.00    +0.000 C 
ATOM      9  O   UNL     1      -5.973   3.055 135.034  0.00  0.00    +0.000 OA
ATOM     10  N   UNL     1      -7.121   3.655 133.253  0.00  0.00    +0.000 N 
ATOM     11  C   UNL     1      -6.916   5.056 132.943  0.00  0.00    +0.000 C 
ATOM     12  C   UNL     1      -8.110   5.840 133.436  0.00  0.00    +0.000 C 
ATOM     13  C   UNL     1      -9.436   5.165 133.006  0.00  0.00    +0.000 C 
ATOM     14  C   UNL     1      -9.514   3.723 133.516  0.00  0.00    +0.000 C 
ATOM     15  C   UNL     1      -8.348   2.977 133.008  0.00  0.00    +0.000 C 
BRANCH  13  16
ATOM     16  N   UNL     1      -9.705   5.370 131.535  0.00  0.00    +0.000 N 
ATOM     17  C   UNL     1      -8.945   4.848 130.498  0.00  0.00    +0.000 C 
ATOM     18  O   UNL     1      -8.511   3.698 130.364  0.00  0.00    +0.000 OA
ATOM     19  O   UNL     1      -8.594   5.722 129.540  0.00  0.00    +0.000 OA
ATOM     20  C   UNL     1      -9.735   6.060 128.796  0.00  0.00    +0.000 C 
ATOM     21  C   UNL     1     -10.784   6.566 129.732  0.00  0.00    +0.000 A 
ATOM     22  C   UNL     1     -11.795   7.368 129.220  0.00  0.00    +0.000 A 
ATOM     23  C   UNL     1     -12.780   7.844 130.070  0.00  0.00    +0.000 A 
ATOM     24  C   UNL     1     -12.768   7.497 131.420  0.00  0.00    +0.000 A 
ATOM     25  C   UNL     1     -11.762   6.686 131.938  0.00  0.00    +0.000 A 
ATOM     26  C   UNL     1     -10.750   6.227 131.101  0.00  0.00    +0.000 A 
ENDBRANCH  13  16
ENDBRANCH   7   8
BRANCH   1  28
ATOM     27  C   UNL     1      -4.107   3.090 130.782  0.00  0.00    +0.000 C 
ATOM     28  O   UNL     1      -5.429   2.567 130.795  0.00  0.00    +0.000 OA
ENDBRANCH   1  28
BRANCH   3  29
ATOM     29  O   UNL     1      -4.200  -2.101 131.672  0.00  0.00    +0.000 OA
BRANCH  29  30
ATOM     30  C   UNL     1      -4.982  -3.250 130.933  0.00  0.00    +0.000 C 
ATOM     31  C   UNL     1      -4.351  -3.676 129.577  0.00  0.00    +0.000 C 
ATOM     32  C   UNL     1      -4.737  -2.696 128.442  0.00  0.00    +0.000 C 
ATOM     33  N   UNL     1      -6.210  -2.186 128.422  0.00  0.00    +0.000 NA
ATOM     34  C   UNL     1      -7.081  -2.215 129.748  0.00  0.00    +0.000 C 
ATOM     35  C   UNL     1      -6.556  -3.225 130.754  0.00  0.00    +0.000 C 
BRANCH  33  36
ATOM     36  C   UNL     1      -6.586  -0.867 127.663  0.00  0.00    +0.000 C 
ATOM     37  C   UNL     1      -7.497   0.290 128.268  0.00  0.00    +0.000 C 
ATOM     38  C   UNL     1      -7.988   1.338 127.312  0.00  0.00    +0.000 C 
ATOM     39  C   UNL     1      -9.094   0.633 126.632  0.00  0.00    +0.000 C 
ATOM     40  C   UNL     1      -8.585  -0.673 126.065  0.00  0.00    +0.000 A 
ATOM     41  N   UNL     1      -9.413  -1.266 125.200  0.00  0.00    +0.000 NA
ATOM     42  C   UNL     1      -9.048  -2.481 124.738  0.00  0.00    +0.000 A 
ATOM     43  C   UNL     1      -7.897  -3.169 125.071  0.00  0.00    +0.000 A 
ATOM     44  C   UNL     1      -7.024  -2.546 125.912  0.00  0.00    +0.000 A 
ATOM     45  C   UNL     1      -7.391  -1.311 126.467  0.00  0.00    +0.000 A 
ENDBRANCH  33  36
ENDBRANCH  29  30
ENDBRANCH   3  29
TORSDOF 6
ENDMDL
MODEL 6
REMARK VINA RESULT:     -10.0      3.218      8.895
REMARK  Name = CHEMBL302029
REMARK  7 active torsions:
REMARK  status: ('A' for Active; 'I' for Inactive)
REMARK    1  A    between atoms: C_1  and  O_2
REMARK    2  A    between atoms: O_2  and  C_3
REMARK    3  A    between atoms: C_5  and  O_6
REMARK    4  A    between atoms: O_6  and  C_7
REMARK    5  A    between atoms: N_10  and  C_11
REMARK    6  A    between atoms: C_26  and  C_27
REMARK    7  A    between atoms: C_32  and  N_33
REMARK                            x       y       z     vdW  Elec       q    Type
REMARK                         _______ _______ _______ _____ _____    ______ ____
ROOT
ATOM      1  C   UNL     1      -4.431   0.301 132.069  0.00  0.00    +0.000 A 
ATOM      2  C   UNL     1      -4.985  -1.088 132.059  0.00  0.00    +0.000 A 
ATOM      3  C   UNL     1      -6.089  -1.361 131.366  0.00  0.00    +0.000 A 
ATOM      4  C   UNL     1      -6.372  -0.199 130.831  0.00  0.00    +0.000 A 
ATOM      5  F   UNL     1      -7.603  -0.216 130.619  0.00  0.00    +0.000 F 
ATOM      6  C   UNL     1      -5.551   0.777 130.275  0.00  0.00    +0.000 A 
ATOM      7  C   UNL     1      -4.808   1.327 131.202  0.00  0.00    +0.000 A 
ENDROOT
BRANCH   7   8
ATOM      8  C   UNL     1      -4.514   2.833 131.057  0.00  0.00    +0.000 C 
ATOM      9  O   UNL     1      -3.440   3.426 131.090  0.00  0.00    +0.000 OA
ATOM     10  N   UNL     1      -5.638   3.552 131.096  0.00  0.00    +0.000 N 
ATOM     11  C   UNL     1      -6.119   4.400 130.025  0.00  0.00    +0.000 C 
ATOM     12  C   UNL     1      -6.479   5.750 130.601  0.00  0.00    +0.000 C 
ATOM     13  C   UNL     1      -7.340   5.599 131.878  0.00  0.00    +0.000 C 
ATOM     14  C   UNL     1      -6.619   4.758 132.935  0.00  0.00    +0.000 C 
ATOM     15  C   UNL     1      -6.296   3.442 132.354  0.00  0.00    +0.000 C 
BRANCH  13  16
ATOM     16  N   UNL     1      -8.753   5.185 131.543  0.00  0.00    +0.000 N 
ATOM     17  C   UNL     1      -9.377   4.025 131.978  0.00  0.00    +0.000 C 
ATOM     18  O   UNL     1      -9.395   3.541 133.116  0.00  0.00    +0.000 OA
ATOM     19  O   UNL     1      -9.999   3.310 131.027  0.00  0.00    +0.000 OA
ATOM     20  C   UNL     1     -11.145   4.005 130.615  0.00  0.00    +0.000 C 
ATOM     21  C   UNL     1     -10.744   5.378 130.183  0.00  0.00    +0.000 A 
ATOM     22  C   UNL     1     -11.587   6.077 129.331  0.00  0.00    +0.000 A 
ATOM     23  C   UNL     1     -11.235   7.353 128.923  0.00  0.00    +0.000 A 
ATOM     24  C   UNL     1     -10.058   7.937 129.387  0.00  0.00    +0.000 A 
ATOM     25  C   UNL     1      -9.211   7.246 130.249  0.00  0.00    +0.000 A 
ATOM     26  C   UNL     1      -9.539   5.952 130.641  0.00  0.00    +0.000 A 
ENDBRANCH  13  16
ENDBRANCH   7   8
BRANCH   1  28
ATOM     27  C   UNL     1      -4.052   0.798 134.168  0.00  0.00    +0.000 C 
ATOM     28  O   UNL     1      -3.424   0.517 132.925  0.00  0.00    +0.000 OA
ENDBRANCH   1  28
BRANCH   3  29
ATOM     29  O   UNL     1      -6.948  -2.416 131.178  0.00  0.00    +0.000 OA
BRANCH  29  30
ATOM     30  C   UNL     1      -6.754  -3.478 130.033  0.00  0.00    +0.000 C 
ATOM     31  C   UNL     1      -5.283  -3.632 129.553  0.00  0.00    +0.000 C 
ATOM     32  C   UNL     1      -4.892  -2.507 128.563  0.00  0.00    +0.000 C 
ATOM     33  N   UNL     1      -5.957  -2.102 127.500  0.00  0.00    +0.000 NA
ATOM     34  C   UNL     1      -7.494  -2.408 127.756  0.00  0.00    +0.000 C 
ATOM     35  C   UNL     1      -7.693  -3.532 128.758  0.00  0.00    +0.000 C 
BRANCH  33  36
ATOM     36  C   UNL     1      -5.886  -0.706 126.793  0.00  0.00    +0.000 C 
ATOM     37  C   UNL     1      -7.006   0.420 126.912  0.00  0.00    +0.000 C 
ATOM     38  C   UNL     1      -6.917   1.570 125.951  0.00  0.00    +0.000 C 
ATOM     39  C   UNL     1      -7.455   0.972 124.712  0.00  0.00    +0.000 C 
ATOM     40  C   UNL     1      -6.690  -0.292 124.391  0.00  0.00    +0.000 A 
ATOM     41  N   UNL     1      -6.898  -0.771 123.160  0.00  0.00    +0.000 NA
ATOM     42  C   UNL     1      -6.313  -1.950 122.857  0.00  0.00    +0.000 A 
ATOM     43  C   UNL     1      -5.516  -2.706 123.694  0.00  0.00    +0.000 A 
ATOM     44  C   UNL     1      -5.260  -2.196 124.932  0.00  0.00    +0.000 A 
ATOM     45  C   UNL     1      -5.897  -1.007 125.315  0.00  0.00    +0.000 A 
ENDBRANCH  33  36
ENDBRANCH  29  30
ENDBRANCH   3  29
TORSDOF 6
ENDMDL
MODEL 7
REMARK VINA RESULT:      -9.9      3.754      9.792
REMARK  Name = CHEMBL302029
REMARK  7 active torsions:
REMARK  status: ('A' for Active; 'I' for Inactive)
REMARK    1  A    between atoms: C_1  and  O_2
REMARK    2  A    between atoms: O_2  and  C_3
REMARK    3  A    between atoms: C_5  and  O_6
REMARK    4  A    between atoms: O_6  and  C_7
REMARK    5  A    between atoms: N_10  and  C_11
REMARK    6  A    between atoms: C_26  and  C_27
REMARK    7  A    between atoms: C_32  and  N_33
REMARK                            x       y       z     vdW  Elec       q    Type
REMARK                         _______ _______ _______ _____ _____    ______ ____
ROOT
ATOM      1  C   UNL     1      -6.944  -0.412 133.426  0.00  0.00    +0.000 A 
ATOM      2  C   UNL     1      -7.344  -1.564 132.560  0.00  0.00    +0.000 A 
ATOM      3  C   UNL     1      -7.859  -1.342 131.352  0.00  0.00    +0.000 A 
ATOM      4  C   UNL     1      -7.838  -0.034 131.280  0.00  0.00    +0.000 A 
ATOM      5  F   UNL     1      -8.739   0.273 130.470  0.00  0.00    +0.000 F 
ATOM      6  C   UNL     1      -6.885   0.890 131.695  0.00  0.00    +0.000 A 
ATOM      7  C   UNL     1      -6.810   0.909 133.001  0.00  0.00    +0.000 A 
ENDROOT
BRANCH   7   8
ATOM      8  C   UNL     1      -6.543   2.275 133.664  0.00  0.00    +0.000 C 
ATOM      9  O   UNL     1      -5.979   2.532 134.723  0.00  0.00    +0.000 OA
ATOM     10  N   UNL     1      -7.210   3.252 133.045  0.00  0.00    +0.000 N 
ATOM     11  C   UNL     1      -6.597   4.393 132.396  0.00  0.00    +0.000 C 
ATOM     12  C   UNL     1      -7.291   5.649 132.869  0.00  0.00    +0.000 C 
ATOM     13  C   UNL     1      -8.831   5.492 132.809  0.00  0.00    +0.000 C 
ATOM     14  C   UNL     1      -9.297   4.294 133.642  0.00  0.00    +0.000 C 
ATOM     15  C   UNL     1      -8.620   3.081 133.149  0.00  0.00    +0.000 C 
BRANCH  13  16
ATOM     16  N   UNL     1      -9.334   5.555 131.387  0.00  0.00    +0.000 N 
ATOM     17  C   UNL     1      -8.673   5.053 130.276  0.00  0.00    +0.000 C 
ATOM     18  O   UNL     1      -8.119   3.956 130.140  0.00  0.00    +0.000 OA
ATOM     19  O   UNL     1      -8.579   5.890 129.230  0.00  0.00    +0.000 OA
ATOM     20  C   UNL     1      -9.850   6.036 128.652  0.00  0.00    +0.000 C 
ATOM     21  C   UNL     1     -10.808   6.481 129.708  0.00  0.00    +0.000 A 
ATOM     22  C   UNL     1     -11.977   7.118 129.315  0.00  0.00    +0.000 A 
ATOM     23  C   UNL     1     -12.880   7.534 130.279  0.00  0.00    +0.000 A 
ATOM     24  C   UNL     1     -12.629   7.291 131.627  0.00  0.00    +0.000 A 
ATOM     25  C   UNL     1     -11.463   6.644 132.029  0.00  0.00    +0.000 A 
ATOM     26  C   UNL     1     -10.533   6.249 131.072  0.00  0.00    +0.000 A 
ENDBRANCH  13  16
ENDBRANCH   7   8
BRANCH   1  28
ATOM     27  C   UNL     1      -6.408  -2.135 134.670  0.00  0.00    +0.000 C 
ATOM     28  O   UNL     1      -6.597  -0.726 134.681  0.00  0.00    +0.000 OA
ENDBRANCH   1  28
BRANCH   3  29
ATOM     29  O   UNL     1      -8.425  -2.064 130.330  0.00  0.00    +0.000 OA
BRANCH  29  30
ATOM     30  C   UNL     1      -7.633  -3.157 129.519  0.00  0.00    +0.000 C 
ATOM     31  C   UNL     1      -6.091  -2.954 129.520  0.00  0.00    +0.000 C 
ATOM     32  C   UNL     1      -5.662  -1.887 128.484  0.00  0.00    +0.000 C 
ATOM     33  N   UNL     1      -6.383  -1.916 127.102  0.00  0.00    +0.000 NA
ATOM     34  C   UNL     1      -7.808  -2.601 126.962  0.00  0.00    +0.000 C 
ATOM     35  C   UNL     1      -8.066  -3.613 128.065  0.00  0.00    +0.000 C 
BRANCH  33  36
ATOM     36  C   UNL     1      -6.400  -0.645 126.186  0.00  0.00    +0.000 C 
ATOM     37  C   UNL     1      -7.688   0.252 125.917  0.00  0.00    +0.000 C 
ATOM     38  C   UNL     1      -7.598   1.251 124.801  0.00  0.00    +0.000 C 
ATOM     39  C   UNL     1      -7.778   0.393 123.611  0.00  0.00    +0.000 C 
ATOM     40  C   UNL     1      -6.770  -0.734 123.648  0.00  0.00    +0.000 A 
ATOM     41  N   UNL     1      -6.650  -1.411 122.502  0.00  0.00    +0.000 NA
ATOM     42  C   UNL     1      -5.834  -2.487 122.511  0.00  0.00    +0.000 A 
ATOM     43  C   UNL     1      -5.107  -2.952 123.589  0.00  0.00    +0.000 A 
ATOM     44  C   UNL     1      -5.185  -2.234 124.745  0.00  0.00    +0.000 A 
ATOM     45  C   UNL     1      -6.070  -1.147 124.802  0.00  0.00    +0.000 A 
ENDBRANCH  33  36
ENDBRANCH  29  30
ENDBRANCH   3  29
TORSDOF 6
ENDMDL
MODEL 8
REMARK VINA RESULT:      -9.8      3.380      9.228
REMARK  Name = CHEMBL302029
REMARK  7 active torsions:
REMARK  status: ('A' for Active; 'I' for Inactive)
REMARK    1  A    between atoms: C_1  and  O_2
REMARK    2  A    between atoms: O_2  and  C_3
REMARK    3  A    between atoms: C_5  and  O_6
REMARK    4  A    between atoms: O_6  and  C_7
REMARK    5  A    between atoms: N_10  and  C_11
REMARK    6  A    between atoms: C_26  and  C_27
REMARK    7  A    between atoms: C_32  and  N_33
REMARK                            x       y       z     vdW  Elec       q    Type
REMARK                         _______ _______ _______ _____ _____    ______ ____
ROOT
ATOM      1  C   UNL     1      -6.260   0.193 132.766  0.00  0.00    +0.000 A 
ATOM      2  C   UNL     1      -5.918  -0.733 131.642  0.00  0.00    +0.000 A 
ATOM      3  C   UNL     1      -5.568  -0.239 130.455  0.00  0.00    +0.000 A 
ATOM      4  C   UNL     1      -5.621   1.053 130.668  0.00  0.00    +0.000 A 
ATOM      5  F   UNL     1      -5.827   1.571 129.550  0.00  0.00    +0.000 F 
ATOM      6  C   UNL     1      -5.232   1.816 131.764  0.00  0.00    +0.000 A 
ATOM      7  C   UNL     1      -6.004   1.564 132.790  0.00  0.00    +0.000 A 
ENDROOT
BRANCH   7   8
ATOM      8  C   UNL     1      -6.337   2.747 133.719  0.00  0.00    +0.000 C 
ATOM      9  O   UNL     1      -6.071   2.908 134.907  0.00  0.00    +0.000 OA
ATOM     10  N   UNL     1      -7.198   3.588 133.142  0.00  0.00    +0.000 N 
ATOM     11  C   UNL     1      -6.930   4.982 132.853  0.00  0.00    +0.000 C 
ATOM     12  C   UNL     1      -8.084   5.813 133.364  0.00  0.00    +0.000 C 
ATOM     13  C   UNL     1      -9.442   5.207 132.931  0.00  0.00    +0.000 C 
ATOM     14  C   UNL     1      -9.584   3.763 133.419  0.00  0.00    +0.000 C 
ATOM     15  C   UNL     1      -8.457   2.972 132.893  0.00  0.00    +0.000 C 
BRANCH  13  16
ATOM     16  N   UNL     1      -9.708   5.447 131.464  0.00  0.00    +0.000 N 
ATOM     17  C   UNL     1      -8.930   4.974 130.417  0.00  0.00    +0.000 C 
ATOM     18  O   UNL     1      -8.468   3.839 130.254  0.00  0.00    +0.000 OA
ATOM     19  O   UNL     1      -8.596   5.883 129.487  0.00  0.00    +0.000 OA
ATOM     20  C   UNL     1      -9.740   6.214 128.747  0.00  0.00    +0.000 C 
ATOM     21  C   UNL     1     -10.807   6.668 129.690  0.00  0.00    +0.000 A 
ATOM     22  C   UNL     1     -11.834   7.459 129.195  0.00  0.00    +0.000 A 
ATOM     23  C   UNL     1     -12.834   7.887 130.052  0.00  0.00    +0.000 A 
ATOM     24  C   UNL     1     -12.822   7.503 131.392  0.00  0.00    +0.000 A 
ATOM     25  C   UNL     1     -11.799   6.701 131.893  0.00  0.00    +0.000 A 
ATOM     26  C   UNL     1     -10.772   6.291 131.049  0.00  0.00    +0.000 A 
ENDBRANCH  13  16
ENDBRANCH   7   8
BRANCH   1  28
ATOM     27  C   UNL     1      -5.625  -0.822 134.601  0.00  0.00    +0.000 C 
ATOM     28  O   UNL     1      -6.760  -0.390 133.863  0.00  0.00    +0.000 OA
ENDBRANCH   1  28
BRANCH   3  29
ATOM     29  O   UNL     1      -5.293  -0.703 129.192  0.00  0.00    +0.000 OA
BRANCH  29  30
ATOM     30  C   UNL     1      -6.264  -1.661 128.407  0.00  0.00    +0.000 C 
ATOM     31  C   UNL     1      -5.602  -2.385 127.201  0.00  0.00    +0.000 C 
ATOM     32  C   UNL     1      -5.526  -1.462 125.961  0.00  0.00    +0.000 C 
ATOM     33  N   UNL     1      -6.771  -0.569 125.670  0.00  0.00    +0.000 NA
ATOM     34  C   UNL     1      -7.787  -0.216 126.836  0.00  0.00    +0.000 C 
ATOM     35  C   UNL     1      -7.722  -1.220 127.973  0.00  0.00    +0.000 C 
BRANCH  33  36
ATOM     36  C   UNL     1      -6.639   0.715 124.781  0.00  0.00    +0.000 C 
ATOM     37  C   UNL     1      -6.776   2.204 125.327  0.00  0.00    +0.000 C 
ATOM     38  C   UNL     1      -6.907   3.293 124.302  0.00  0.00    +0.000 C 
ATOM     39  C   UNL     1      -8.325   3.163 123.903  0.00  0.00    +0.000 C 
ATOM     40  C   UNL     1      -8.597   1.739 123.474  0.00  0.00    +0.000 A 
ATOM     41  N   UNL     1      -9.758   1.562 122.837  0.00  0.00    +0.000 NA
ATOM     42  C   UNL     1     -10.093   0.293 122.519  0.00  0.00    +0.000 A 
ATOM     43  C   UNL     1      -9.348  -0.839 122.784  0.00  0.00    +0.000 A 
ATOM     44  C   UNL     1      -8.139  -0.658 123.387  0.00  0.00    +0.000 A 
ATOM     45  C   UNL     1      -7.778   0.635 123.794  0.00  0.00    +0.000 A 
ENDBRANCH  33  36
ENDBRANCH  29  30
ENDBRANCH   3  29
TORSDOF 6
ENDMDL
MODEL 9
REMARK VINA RESULT:      -9.8      3.213      8.852
REMARK  Name = CHEMBL302029
REMARK  7 active torsions:
REMARK  status: ('A' for Active; 'I' for Inactive)
REMARK    1  A    between atoms: C_1  and  O_2
REMARK    2  A    between atoms: O_2  and  C_3
REMARK    3  A    between atoms: C_5  and  O_6
REMARK    4  A    between atoms: O_6  and  C_7
REMARK    5  A    between atoms: N_10  and  C_11
REMARK    6  A    between atoms: C_26  and  C_27
REMARK    7  A    between atoms: C_32  and  N_33
REMARK                            x       y       z     vdW  Elec       q    Type
REMARK                         _______ _______ _______ _____ _____    ______ ____
ROOT
ATOM      1  C   UNL     1      -5.821  -1.762 130.290  0.00  0.00    +0.000 A 
ATOM      2  C   UNL     1      -5.940  -2.210 128.867  0.00  0.00    +0.000 A 
ATOM      3  C   UNL     1      -7.129  -2.553 128.375  0.00  0.00    +0.000 A 
ATOM      4  C   UNL     1      -7.920  -2.355 129.400  0.00  0.00    +0.000 A 
ATOM      5  F   UNL     1      -8.899  -3.111 129.222  0.00  0.00    +0.000 F 
ATOM      6  C   UNL     1      -7.945  -1.342 130.353  0.00  0.00    +0.000 A 
ATOM      7  C   UNL     1      -6.886  -1.411 131.118  0.00  0.00    +0.000 A 
ENDROOT
BRANCH   7   8
ATOM      8  C   UNL     1      -7.075  -1.045 132.603  0.00  0.00    +0.000 C 
ATOM      9  O   UNL     1      -7.682  -1.645 133.486  0.00  0.00    +0.000 OA
ATOM     10  N   UNL     1      -6.660   0.199 132.851  0.00  0.00    +0.000 N 
ATOM     11  C   UNL     1      -5.596   0.552 133.769  0.00  0.00    +0.000 C 
ATOM     12  C   UNL     1      -6.085   1.658 134.675  0.00  0.00    +0.000 C 
ATOM     13  C   UNL     1      -6.774   2.781 133.861  0.00  0.00    +0.000 C 
ATOM     14  C   UNL     1      -7.940   2.231 133.036  0.00  0.00    +0.000 C 
ATOM     15  C   UNL     1      -7.433   1.167 132.150  0.00  0.00    +0.000 C 
BRANCH  13  16
ATOM     16  N   UNL     1      -5.763   3.619 133.116  0.00  0.00    +0.000 N 
ATOM     17  C   UNL     1      -4.394   3.395 133.090  0.00  0.00    +0.000 C 
ATOM     18  O   UNL     1      -3.792   2.329 132.917  0.00  0.00    +0.000 OA
ATOM     19  O   UNL     1      -3.626   4.470 133.335  0.00  0.00    +0.000 OA
ATOM     20  C   UNL     1      -3.703   5.340 132.238  0.00  0.00    +0.000 C 
ATOM     21  C   UNL     1      -5.139   5.661 131.980  0.00  0.00    +0.000 A 
ATOM     22  C   UNL     1      -5.442   6.817 131.274  0.00  0.00    +0.000 A 
ATOM     23  C   UNL     1      -6.768   7.129 131.021  0.00  0.00    +0.000 A 
ATOM     24  C   UNL     1      -7.784   6.277 131.448  0.00  0.00    +0.000 A 
ATOM     25  C   UNL     1      -7.487   5.110 132.149  0.00  0.00    +0.000 A 
ATOM     26  C   UNL     1      -6.161   4.802 132.437  0.00  0.00    +0.000 A 
ENDBRANCH  13  16
ENDBRANCH   7   8
BRANCH   1  28
ATOM     27  C   UNL     1      -4.170  -0.322 130.270  0.00  0.00    +0.000 C 
ATOM     28  O   UNL     1      -4.571  -1.602 130.743  0.00  0.00    +0.000 OA
ENDBRANCH   1  28
BRANCH   3  29
ATOM     29  O   UNL     1      -7.644  -3.091 127.220  0.00  0.00    +0.000 OA
BRANCH  29  30
ATOM     30  C   UNL     1      -7.954  -2.225 125.943  0.00  0.00    +0.000 C 
ATOM     31  C   UNL     1      -6.714  -1.950 125.046  0.00  0.00    +0.000 C 
ATOM     32  C   UNL     1      -5.854  -0.794 125.610  0.00  0.00    +0.000 C 
ATOM     33  N   UNL     1      -6.617   0.441 126.178  0.00  0.00    +0.000 NA
ATOM     34  C   UNL     1      -8.124   0.295 126.654  0.00  0.00    +0.000 C 
ATOM     35  C   UNL     1      -8.814  -0.895 126.009  0.00  0.00    +0.000 C 
BRANCH  33  36
ATOM     36  C   UNL     1      -5.918   1.416 127.186  0.00  0.00    +0.000 C 
ATOM     37  C   UNL     1      -6.509   1.813 128.610  0.00  0.00    +0.000 C 
ATOM     38  C   UNL     1      -5.860   2.967 129.316  0.00  0.00    +0.000 C 
ATOM     39  C   UNL     1      -6.436   4.124 128.600  0.00  0.00    +0.000 C 
ATOM     40  C   UNL     1      -6.197   3.966 127.116  0.00  0.00    +0.000 A 
ATOM     41  N   UNL     1      -6.426   5.067 126.394  0.00  0.00    +0.000 NA
ATOM     42  C   UNL     1      -6.320   4.952 125.053  0.00  0.00    +0.000 A 
ATOM     43  C   UNL     1      -5.993   3.807 124.355  0.00  0.00    +0.000 A 
ATOM     44  C   UNL     1      -5.708   2.694 125.089  0.00  0.00    +0.000 A 
ATOM     45  C   UNL     1      -5.867   2.748 126.482  0.00  0.00    +0.000 A 
ENDBRANCH  33  36
ENDBRANCH  29  30
ENDBRANCH   3  29
TORSDOF 6
ENDMDL
