MODEL 1
REMARK VINA RESULT:      -9.5      0.000      0.000
REMARK  Name = CHEMBL1779408
REMARK  15 active torsions:
REMARK  status: ('A' for Active; 'I' for Inactive)
REMARK    1  A    between atoms: C_1  and  O_2
REMARK    2  A    between atoms: O_2  and  C_3
REMARK    3  A    between atoms: C_6  and  S_7
REMARK    4  A    between atoms: S_7  and  N_10
REMARK    5  A    between atoms: C_13  and  C_14
REMARK    6  A    between atoms: C_13  and  N_28
REMARK    7  A    between atoms: C_16  and  C_17
REMARK    8  A    between atoms: C_17  and  N_18
REMARK    9  A    between atoms: C_25  and  O_26
REMARK   10  A    between atoms: O_26  and  C_27
REMARK   11  A    between atoms: C_32  and  C_33
REMARK   12  A    between atoms: N_35  and  C_36
REMARK   13  A    between atoms: N_35  and  C_37
REMARK   14  A    between atoms: C_45  and  O_46
REMARK   15  A    between atoms: O_46  and  C_47
REMARK                            x       y       z     vdW  Elec       q    Type
REMARK                         _______ _______ _______ _____ _____    ______ ____
ROOT
ATOM      1  N   UNL     1      -7.960   3.246 126.937  0.00  0.00    +0.000 N 
ATOM      2  C   UNL     1      -7.721   2.225 127.863  0.00  0.00    +0.000 C 
ATOM      3  O   UNL     1      -8.633   1.502 128.177  0.00  0.00    +0.000 OA
ATOM      4  C   UNL     1      -6.459   2.708 128.648  0.00  0.00    +0.000 C 
ATOM      5  C   UNL     1      -7.003   3.812 129.477  0.00  0.00    +0.000 A 
ATOM      6  C   UNL     1      -6.851   4.003 131.051  0.00  0.00    +0.000 A 
ATOM      7  C   UNL     1      -7.869   4.687 131.739  0.00  0.00    +0.000 A 
ATOM      8 CL   UNL     1      -8.630   3.927 133.230  0.00  0.00    +0.000 Cl
ATOM      9  C   UNL     1      -8.706   5.430 130.865  0.00  0.00    +0.000 A 
ATOM     10  C   UNL     1      -8.729   5.265 129.266  0.00  0.00    +0.000 A 
ATOM     11  C   UNL     1      -8.066   4.213 128.524  0.00  0.00    +0.000 A 
ENDROOT
BRANCH   4  12
ATOM     12  C   UNL     1      -6.227   1.487 129.439  0.00  0.00    +0.000 A 
ATOM     13  C   UNL     1      -5.320   0.549 128.932  0.00  0.00    +0.000 A 
ATOM     14  C   UNL     1      -5.097  -0.598 129.586  0.00  0.00    +0.000 A 
ATOM     15  C   UNL     1      -5.279  -0.387 130.919  0.00  0.00    +0.000 A 
ATOM     16  C   UNL     1      -6.396   0.286 131.384  0.00  0.00    +0.000 A 
ATOM     17  C   UNL     1      -7.041   1.134 130.545  0.00  0.00    +0.000 A 
BRANCH  17  18
ATOM     18  O   UNL     1      -8.255   1.521 131.064  0.00  0.00    +0.000 OA
ATOM     19  C   UNL     1      -9.269   0.769 131.707  0.00  0.00    +0.000 C 
ENDBRANCH  17  18
BRANCH  14  20
ATOM     20  C   UNL     1      -4.560  -1.798 128.864  0.00  0.00    +0.000 C 
BRANCH  20  21
ATOM     21  N   UNL     1      -5.484  -2.921 128.683  0.00  0.00    +0.000 NA
ATOM     22  C   UNL     1      -6.796  -2.526 128.134  0.00  0.00    +0.000 C 
ATOM     23  C   UNL     1      -7.765  -2.424 129.296  0.00  0.00    +0.000 C 
ATOM     24  C   UNL     1      -7.197  -3.418 130.311  0.00  0.00    +0.000 C 
ATOM     25  C   UNL     1      -5.719  -3.630 129.943  0.00  0.00    +0.000 C 
ENDBRANCH  20  21
ENDBRANCH  14  20
ENDBRANCH   4  12
BRANCH   4  26
ATOM     26  N   UNL     1      -5.428   3.476 127.824  0.00  0.00    +0.000 NA
ATOM     27  C   UNL     1      -4.935   3.009 126.479  0.00  0.00    +0.000 C 
ATOM     28  C   UNL     1      -3.605   2.312 126.717  0.00  0.00    +0.000 C 
ATOM     29  C   UNL     1      -3.040   3.184 127.792  0.00  0.00    +0.000 C 
ATOM     30  C   UNL     1      -4.210   3.916 128.457  0.00  0.00    +0.000 C 
BRANCH  30  31
ATOM     31  C   UNL     1      -4.199   5.489 128.373  0.00  0.00    +0.000 C 
ATOM     32  O   UNL     1      -4.537   6.091 127.349  0.00  0.00    +0.000 OA
ATOM     33  N   UNL     1      -3.824   6.196 129.500  0.00  0.00    +0.000 N 
ATOM     34  C   UNL     1      -3.464   5.604 130.737  0.00  0.00    +0.000 C 
ATOM     35  C   UNL     1      -3.842   7.634 129.545  0.00  0.00    +0.000 C 
ENDBRANCH  30  31
ENDBRANCH   4  26
BRANCH   1  36
ATOM     36  S   UNL     1      -8.460   1.668 125.514  0.00  0.00    +0.000 S 
ATOM     37  O   UNL     1      -7.922   2.285 124.272  0.00  0.00    +0.000 OA
ATOM     38  O   UNL     1      -9.838   1.291 125.576  0.00  0.00    +0.000 OA
BRANCH  36  42
ATOM     39  C   UNL     1      -6.172  -2.950 124.303  0.00  0.00    +0.000 A 
ATOM     40  C   UNL     1      -5.517  -1.836 124.801  0.00  0.00    +0.000 A 
ATOM     41  C   UNL     1      -6.235  -0.580 125.206  0.00  0.00    +0.000 A 
ATOM     42  C   UNL     1      -7.675  -0.339 125.086  0.00  0.00    +0.000 A 
ATOM     43  C   UNL     1      -8.255  -1.451 124.453  0.00  0.00    +0.000 A 
ATOM     44  C   UNL     1      -7.523  -2.745 124.157  0.00  0.00    +0.000 A 
BRANCH  39  46
ATOM     45  C   UNL     1      -4.174  -4.102 123.521  0.00  0.00    +0.000 C 
ATOM     46  O   UNL     1      -5.506  -4.129 124.075  0.00  0.00    +0.000 OA
ENDBRANCH  39  46
BRANCH  43  47
ATOM     47  O   UNL     1      -9.520  -1.324 123.989  0.00  0.00    +0.000 OA
ATOM     48  C   UNL     1      -9.566  -0.747 122.697  0.00  0.00    +0.000 C 
ENDBRANCH  43  47
ENDBRANCH  36  42
ENDBRANCH   1  36
TORSDOF 10
ENDMDL
MODEL 2
REMARK VINA RESULT:      -9.3      1.335      1.713
REMARK  Name = CHEMBL1779408
REMARK  15 active torsions:
REMARK  status: ('A' for Active; 'I' for Inactive)
REMARK    1  A    between atoms: C_1  and  O_2
REMARK    2  A    between atoms: O_2  and  C_3
REMARK    3  A    between atoms: C_6  and  S_7
REMARK    4  A    between atoms: S_7  and  N_10
REMARK    5  A    between atoms: C_13  and  C_14
REMARK    6  A    between atoms: C_13  and  N_28
REMARK    7  A    between atoms: C_16  and  C_17
REMARK    8  A    between atoms: C_17  and  N_18
REMARK    9  A    between atoms: C_25  and  O_26
REMARK   10  A    between atoms: O_26  and  C_27
REMARK   11  A    between atoms: C_32  and  C_33
REMARK   12  A    between atoms: N_35  and  C_36
REMARK   13  A    between atoms: N_35  and  C_37
REMARK   14  A    between atoms: C_45  and  O_46
REMARK   15  A    between atoms: O_46  and  C_47
REMARK                            x       y       z     vdW  Elec       q    Type
REMARK                         _______ _______ _______ _____ _____    ______ ____
ROOT
ATOM      1  N   UNL     1      -7.520   3.844 127.123  0.00  0.00    +0.000 N 
ATOM      2  C   UNL     1      -7.225   2.662 127.809  0.00  0.00    +0.000 C 
ATOM      3  O   UNL     1      -8.091   1.832 127.933  0.00  0.00    +0.000 OA
ATOM      4  C   UNL     1      -6.007   3.038 128.714  0.00  0.00    +0.000 C 
ATOM      5  C   UNL     1      -6.633   3.897 129.749  0.00  0.00    +0.000 A 
ATOM      6  C   UNL     1      -6.514   3.747 131.331  0.00  0.00    +0.000 A 
ATOM      7  C   UNL     1      -7.584   4.198 132.123  0.00  0.00    +0.000 A 
ATOM      8 CL   UNL     1      -8.311   3.084 133.392  0.00  0.00    +0.000 Cl
ATOM      9  C   UNL     1      -8.458   5.061 131.410  0.00  0.00    +0.000 A 
ATOM     10  C   UNL     1      -8.450   5.251 129.814  0.00  0.00    +0.000 A 
ATOM     11  C   UNL     1      -7.709   4.431 128.879  0.00  0.00    +0.000 A 
ENDROOT
BRANCH   4  12
ATOM     12  C   UNL     1      -5.704   1.690 129.226  0.00  0.00    +0.000 A 
ATOM     13  C   UNL     1      -6.612   0.666 128.933  0.00  0.00    +0.000 A 
ATOM     14  C   UNL     1      -6.412  -0.571 129.403  0.00  0.00    +0.000 A 
ATOM     15  C   UNL     1      -5.073  -0.782 129.532  0.00  0.00    +0.000 A 
ATOM     16  C   UNL     1      -4.263   0.161 130.142  0.00  0.00    +0.000 A 
ATOM     17  C   UNL     1      -4.677   1.452 130.174  0.00  0.00    +0.000 A 
BRANCH  17  18
ATOM     18  O   UNL     1      -3.899   2.205 131.023  0.00  0.00    +0.000 OA
ATOM     19  C   UNL     1      -3.559   2.009 132.384  0.00  0.00    +0.000 C 
ENDBRANCH  17  18
BRANCH  14  20
ATOM     20  C   UNL     1      -7.557  -1.530 129.546  0.00  0.00    +0.000 C 
BRANCH  20  21
ATOM     21  N   UNL     1      -7.422  -2.817 128.859  0.00  0.00    +0.000 NA
ATOM     22  C   UNL     1      -7.342  -2.698 127.389  0.00  0.00    +0.000 C 
ATOM     23  C   UNL     1      -8.721  -2.989 126.831  0.00  0.00    +0.000 C 
ATOM     24  C   UNL     1      -9.328  -3.928 127.876  0.00  0.00    +0.000 C 
ATOM     25  C   UNL     1      -8.535  -3.715 129.177  0.00  0.00    +0.000 C 
ENDBRANCH  20  21
ENDBRANCH  14  20
ENDBRANCH   4  12
BRANCH   4  26
ATOM     26  N   UNL     1      -5.019   4.030 128.106  0.00  0.00    +0.000 NA
ATOM     27  C   UNL     1      -4.399   3.846 126.745  0.00  0.00    +0.000 C 
ATOM     28  C   UNL     1      -3.017   3.253 126.970  0.00  0.00    +0.000 C 
ATOM     29  C   UNL     1      -2.616   3.985 128.212  0.00  0.00    +0.000 C 
ATOM     30  C   UNL     1      -3.897   4.476 128.893  0.00  0.00    +0.000 C 
BRANCH  30  31
ATOM     31  C   UNL     1      -4.054   6.035 129.062  0.00  0.00    +0.000 C 
ATOM     32  O   UNL     1      -4.381   6.765 128.121  0.00  0.00    +0.000 OA
ATOM     33  N   UNL     1      -3.843   6.574 130.317  0.00  0.00    +0.000 N 
ATOM     34  C   UNL     1      -3.511   5.821 131.471  0.00  0.00    +0.000 C 
ATOM     35  C   UNL     1      -4.023   7.976 130.589  0.00  0.00    +0.000 C 
ENDBRANCH  30  31
ENDBRANCH   4  26
BRANCH   1  36
ATOM     36  S   UNL     1      -7.896   2.588 125.377  0.00  0.00    +0.000 S 
ATOM     37  O   UNL     1      -6.964   3.233 124.412  0.00  0.00    +0.000 OA
ATOM     38  O   UNL     1      -9.286   2.494 125.059  0.00  0.00    +0.000 OA
BRANCH  36  42
ATOM     39  C   UNL     1      -6.172  -2.214 123.966  0.00  0.00    +0.000 A 
ATOM     40  C   UNL     1      -5.510  -1.340 124.812  0.00  0.00    +0.000 A 
ATOM     41  C   UNL     1      -6.090  -0.023 125.242  0.00  0.00    +0.000 A 
ATOM     42  C   UNL     1      -7.372   0.533 124.803  0.00  0.00    +0.000 A 
ATOM     43  C   UNL     1      -7.926  -0.338 123.850  0.00  0.00    +0.000 A 
ATOM     44  C   UNL     1      -7.369  -1.709 123.519  0.00  0.00    +0.000 A 
BRANCH  39  46
ATOM     45  C   UNL     1      -4.258  -3.657 123.535  0.00  0.00    +0.000 C 
ATOM     46  O   UNL     1      -5.679  -3.469 123.705  0.00  0.00    +0.000 OA
ENDBRANCH  39  46
BRANCH  43  47
ATOM     47  O   UNL     1      -8.963   0.116 123.108  0.00  0.00    +0.000 OA
ATOM     48  C   UNL     1      -9.728  -0.935 122.547  0.00  0.00    +0.000 C 
ENDBRANCH  43  47
ENDBRANCH  36  42
ENDBRANCH   1  36
TORSDOF 10
ENDMDL
MODEL 3
REMARK VINA RESULT:      -9.0      2.731      8.132
REMARK  Name = CHEMBL1779408
REMARK  15 active torsions:
REMARK  status: ('A' for Active; 'I' for Inactive)
REMARK    1  A    between atoms: C_1  and  O_2
REMARK    2  A    between atoms: O_2  and  C_3
REMARK    3  A    between atoms: C_6  and  S_7
REMARK    4  A    between atoms: S_7  and  N_10
REMARK    5  A    between atoms: C_13  and  C_14
REMARK    6  A    between atoms: C_13  and  N_28
REMARK    7  A    between atoms: C_16  and  C_17
REMARK    8  A    between atoms: C_17  and  N_18
REMARK    9  A    between atoms: C_25  and  O_26
REMARK   10  A    between atoms: O_26  and  C_27
REMARK   11  A    between atoms: C_32  and  C_33
REMARK   12  A    between atoms: N_35  and  C_36
REMARK   13  A    between atoms: N_35  and  C_37
REMARK   14  A    between atoms: C_45  and  O_46
REMARK   15  A    between atoms: O_46  and  C_47
REMARK                            x       y       z     vdW  Elec       q    Type
REMARK                         _______ _______ _______ _____ _____    ______ ____
ROOT
ATOM      1  N   UNL     1      -4.573   1.421 126.470  0.00  0.00    +0.000 N 
ATOM      2  C   UNL     1      -5.365   1.746 127.575  0.00  0.00    +0.000 C 
ATOM      3  O   UNL     1      -4.862   1.741 128.671  0.00  0.00    +0.000 OA
ATOM      4  C   UNL     1      -6.825   1.451 127.101  0.00  0.00    +0.000 C 
ATOM      5  C   UNL     1      -6.857  -0.032 127.070  0.00  0.00    +0.000 A 
ATOM      6  C   UNL     1      -7.928  -0.990 127.758  0.00  0.00    +0.000 A 
ATOM      7  C   UNL     1      -7.515  -2.273 128.155  0.00  0.00    +0.000 A 
ATOM      8 CL   UNL     1      -7.849  -2.847 129.869  0.00  0.00    +0.000 Cl
ATOM      9  C   UNL     1      -6.290  -2.658 127.547  0.00  0.00    +0.000 A 
ATOM     10  C   UNL     1      -5.304  -1.655 126.768  0.00  0.00    +0.000 A 
ATOM     11  C   UNL     1      -5.418  -0.212 126.756  0.00  0.00    +0.000 A 
ENDROOT
BRANCH   4  12
ATOM     12  C   UNL     1      -7.538   1.994 128.269  0.00  0.00    +0.000 A 
ATOM     13  C   UNL     1      -8.139   3.252 128.136  0.00  0.00    +0.000 A 
ATOM     14  C   UNL     1      -8.767   3.815 129.175  0.00  0.00    +0.000 A 
ATOM     15  C   UNL     1      -9.274   2.832 129.969  0.00  0.00    +0.000 A 
ATOM     16  C   UNL     1      -8.496   1.748 130.338  0.00  0.00    +0.000 A 
ATOM     17  C   UNL     1      -7.439   1.409 129.557  0.00  0.00    +0.000 A 
BRANCH  17  18
ATOM     18  O   UNL     1      -6.630   0.489 130.184  0.00  0.00    +0.000 OA
ATOM     19  C   UNL     1      -6.549   0.104 131.544  0.00  0.00    +0.000 C 
ENDBRANCH  17  18
BRANCH  14  20
ATOM     20  C   UNL     1      -8.966   5.301 129.234  0.00  0.00    +0.000 C 
BRANCH  20  21
ATOM     21  N   UNL     1     -10.281   5.802 128.825  0.00  0.00    +0.000 NA
ATOM     22  C   UNL     1     -10.216   6.974 127.929  0.00  0.00    +0.000 C 
ATOM     23  C   UNL     1     -10.444   8.210 128.777  0.00  0.00    +0.000 C 
ATOM     24  C   UNL     1     -11.311   7.688 129.925  0.00  0.00    +0.000 C 
ATOM     25  C   UNL     1     -11.101   6.165 129.982  0.00  0.00    +0.000 C 
ENDBRANCH  20  21
ENDBRANCH  14  20
ENDBRANCH   4  12
BRANCH   4  26
ATOM     26  N   UNL     1      -7.110   1.754 125.631  0.00  0.00    +0.000 NA
ATOM     27  C   UNL     1      -7.176   3.153 125.076  0.00  0.00    +0.000 C 
ATOM     28  C   UNL     1      -8.648   3.528 125.004  0.00  0.00    +0.000 C 
ATOM     29  C   UNL     1      -9.234   2.213 124.596  0.00  0.00    +0.000 C 
ATOM     30  C   UNL     1      -8.234   1.120 124.989  0.00  0.00    +0.000 C 
BRANCH  30  31
ATOM     31  C   UNL     1      -7.650   0.243 123.817  0.00  0.00    +0.000 C 
ATOM     32  O   UNL     1      -6.805   0.682 123.031  0.00  0.00    +0.000 OA
ATOM     33  N   UNL     1      -8.091  -1.062 123.704  0.00  0.00    +0.000 N 
ATOM     34  C   UNL     1      -9.021  -1.676 124.580  0.00  0.00    +0.000 C 
ATOM     35  C   UNL     1      -7.572  -1.963 122.708  0.00  0.00    +0.000 C 
ENDBRANCH  30  31
ENDBRANCH   4  26
BRANCH   1  36
ATOM     36  S   UNL     1      -3.371   3.172 126.976  0.00  0.00    +0.000 S 
ATOM     37  O   UNL     1      -3.703   4.036 125.811  0.00  0.00    +0.000 OA
ATOM     38  O   UNL     1      -2.006   2.841 127.242  0.00  0.00    +0.000 OA
BRANCH  36  42
ATOM     39  C   UNL     1      -3.410   7.294 130.298  0.00  0.00    +0.000 A 
ATOM     40  C   UNL     1      -3.280   7.374 128.922  0.00  0.00    +0.000 A 
ATOM     41  C   UNL     1      -3.360   6.173 128.023  0.00  0.00    +0.000 A 
ATOM     42  C   UNL     1      -3.528   4.785 128.460  0.00  0.00    +0.000 A 
ATOM     43  C   UNL     1      -3.520   4.762 129.865  0.00  0.00    +0.000 A 
ATOM     44  C   UNL     1      -3.546   5.999 130.740  0.00  0.00    +0.000 A 
BRANCH  39  46
ATOM     45  C   UNL     1      -2.638   8.528 132.250  0.00  0.00    +0.000 C 
ATOM     46  O   UNL     1      -3.473   8.423 131.078  0.00  0.00    +0.000 OA
ENDBRANCH  39  46
BRANCH  43  47
ATOM     47  O   UNL     1      -3.377   3.562 130.475  0.00  0.00    +0.000 OA
ATOM     48  C   UNL     1      -4.179   3.448 131.636  0.00  0.00    +0.000 C 
ENDBRANCH  43  47
ENDBRANCH  36  42
ENDBRANCH   1  36
TORSDOF 10
ENDMDL
MODEL 4
REMARK VINA RESULT:      -9.0      3.107      8.313
REMARK  Name = CHEMBL1779408
REMARK  15 active torsions:
REMARK  status: ('A' for Active; 'I' for Inactive)
REMARK    1  A    between atoms: C_1  and  O_2
REMARK    2  A    between atoms: O_2  and  C_3
REMARK    3  A    between atoms: C_6  and  S_7
REMARK    4  A    between atoms: S_7  and  N_10
REMARK    5  A    between atoms: C_13  and  C_14
REMARK    6  A    between atoms: C_13  and  N_28
REMARK    7  A    between atoms: C_16  and  C_17
REMARK    8  A    between atoms: C_17  and  N_18
REMARK    9  A    between atoms: C_25  and  O_26
REMARK   10  A    between atoms: O_26  and  C_27
REMARK   11  A    between atoms: C_32  and  C_33
REMARK   12  A    between atoms: N_35  and  C_36
REMARK   13  A    between atoms: N_35  and  C_37
REMARK   14  A    between atoms: C_45  and  O_46
REMARK   15  A    between atoms: O_46  and  C_47
REMARK                            x       y       z     vdW  Elec       q    Type
REMARK                         _______ _______ _______ _____ _____    ______ ____
ROOT
ATOM      1  N   UNL     1      -8.164  -0.017 130.826  0.00  0.00    +0.000 N 
ATOM      2  C   UNL     1      -7.374   0.866 130.083  0.00  0.00    +0.000 C 
ATOM      3  O   UNL     1      -7.913   1.609 129.301  0.00  0.00    +0.000 OA
ATOM      4  C   UNL     1      -5.958   0.205 130.081  0.00  0.00    +0.000 C 
ATOM      5  C   UNL     1      -6.146  -0.950 129.169  0.00  0.00    +0.000 A 
ATOM      6  C   UNL     1      -5.256  -1.339 127.906  0.00  0.00    +0.000 A 
ATOM      7  C   UNL     1      -5.871  -2.027 126.846  0.00  0.00    +0.000 A 
ATOM      8 CL   UNL     1      -5.691  -1.401 125.127  0.00  0.00    +0.000 Cl
ATOM      9  C   UNL     1      -7.116  -2.598 127.223  0.00  0.00    +0.000 A 
ATOM     10  C   UNL     1      -7.911  -2.242 128.573  0.00  0.00    +0.000 A 
ATOM     11  C   UNL     1      -7.582  -1.158 129.475  0.00  0.00    +0.000 A 
ENDROOT
BRANCH   4  12
ATOM     12  C   UNL     1      -5.216   1.302 129.436  0.00  0.00    +0.000 A 
ATOM     13  C   UNL     1      -4.478   2.159 130.262  0.00  0.00    +0.000 A 
ATOM     14  C   UNL     1      -3.816   3.197 129.738  0.00  0.00    +0.000 A 
ATOM     15  C   UNL     1      -3.438   2.884 128.468  0.00  0.00    +0.000 A 
ATOM     16  C   UNL     1      -4.338   2.321 127.580  0.00  0.00    +0.000 A 
ATOM     17  C   UNL     1      -5.408   1.649 128.075  0.00  0.00    +0.000 A 
BRANCH  17  18
ATOM     18  O   UNL     1      -6.326   1.376 127.088  0.00  0.00    +0.000 OA
ATOM     19  C   UNL     1      -6.728   2.135 125.961  0.00  0.00    +0.000 C 
ENDBRANCH  17  18
BRANCH  14  20
ATOM     20  C   UNL     1      -3.457   4.382 130.587  0.00  0.00    +0.000 C 
BRANCH  20  21
ATOM     21  N   UNL     1      -3.270   5.655 129.886  0.00  0.00    +0.000 NA
ATOM     22  C   UNL     1      -2.454   6.630 130.637  0.00  0.00    +0.000 C 
ATOM     23  C   UNL     1      -3.406   7.594 131.318  0.00  0.00    +0.000 C 
ATOM     24  C   UNL     1      -4.628   7.587 130.396  0.00  0.00    +0.000 C 
ATOM     25  C   UNL     1      -4.553   6.289 129.573  0.00  0.00    +0.000 C 
ENDBRANCH  20  21
ENDBRANCH  14  20
ENDBRANCH   4  12
BRANCH   4  26
ATOM     26  N   UNL     1      -5.575  -0.529 131.364  0.00  0.00    +0.000 NA
ATOM     27  C   UNL     1      -5.309   0.176 132.669  0.00  0.00    +0.000 C 
ATOM     28  C   UNL     1      -3.800   0.311 132.795  0.00  0.00    +0.000 C 
ATOM     29  C   UNL     1      -3.369  -0.995 132.206  0.00  0.00    +0.000 C 
ATOM     30  C   UNL     1      -4.515  -1.505 131.326  0.00  0.00    +0.000 C 
BRANCH  30  31
ATOM     31  C   UNL     1      -5.156  -2.886 131.732  0.00  0.00    +0.000 C 
ATOM     32  O   UNL     1      -5.928  -2.992 132.690  0.00  0.00    +0.000 OA
ATOM     33  N   UNL     1      -4.854  -3.992 130.960  0.00  0.00    +0.000 N 
ATOM     34  C   UNL     1      -4.019  -3.970 129.815  0.00  0.00    +0.000 C 
ATOM     35  C   UNL     1      -5.438  -5.284 131.209  0.00  0.00    +0.000 C 
ENDBRANCH  30  31
ENDBRANCH   4  26
BRANCH   1  36
ATOM     36  S   UNL     1      -9.109   1.753 131.687  0.00  0.00    +0.000 S 
ATOM     37  O   UNL     1      -8.229   1.943 132.872  0.00  0.00    +0.000 OA
ATOM     38  O   UNL     1     -10.516   1.586 131.874  0.00  0.00    +0.000 OA
BRANCH  36  42
ATOM     39  C   UNL     1      -9.510   6.756 130.006  0.00  0.00    +0.000 A 
ATOM     40  C   UNL     1     -10.479   5.779 129.853  0.00  0.00    +0.000 A 
ATOM     41  C   UNL     1     -10.342   4.397 130.427  0.00  0.00    +0.000 A 
ATOM     42  C   UNL     1      -9.181   3.884 131.159  0.00  0.00    +0.000 A 
ATOM     43  C   UNL     1      -8.189   4.879 131.161  0.00  0.00    +0.000 A 
ATOM     44  C   UNL     1      -8.398   6.297 130.670  0.00  0.00    +0.000 A 
BRANCH  39  46
ATOM     45  C   UNL     1     -10.466   8.296 128.379  0.00  0.00    +0.000 C 
ATOM     46  O   UNL     1      -9.726   8.049 129.593  0.00  0.00    +0.000 OA
ENDBRANCH  39  46
BRANCH  43  47
ATOM     47  O   UNL     1      -6.937   4.520 131.533  0.00  0.00    +0.000 OA
ATOM     48  C   UNL     1      -6.477   5.249 132.656  0.00  0.00    +0.000 C 
ENDBRANCH  43  47
ENDBRANCH  36  42
ENDBRANCH   1  36
TORSDOF 10
ENDMDL
MODEL 5
REMARK VINA RESULT:      -8.8      3.786      6.672
REMARK  Name = CHEMBL1779408
REMARK  15 active torsions:
REMARK  status: ('A' for Active; 'I' for Inactive)
REMARK    1  A    between atoms: C_1  and  O_2
REMARK    2  A    between atoms: O_2  and  C_3
REMARK    3  A    between atoms: C_6  and  S_7
REMARK    4  A    between atoms: S_7  and  N_10
REMARK    5  A    between atoms: C_13  and  C_14
REMARK    6  A    between atoms: C_13  and  N_28
REMARK    7  A    between atoms: C_16  and  C_17
REMARK    8  A    between atoms: C_17  and  N_18
REMARK    9  A    between atoms: C_25  and  O_26
REMARK   10  A    between atoms: O_26  and  C_27
REMARK   11  A    between atoms: C_32  and  C_33
REMARK   12  A    between atoms: N_35  and  C_36
REMARK   13  A    between atoms: N_35  and  C_37
REMARK   14  A    between atoms: C_45  and  O_46
REMARK   15  A    between atoms: O_46  and  C_47
REMARK                            x       y       z     vdW  Elec       q    Type
REMARK                         _______ _______ _______ _____ _____    ______ ____
ROOT
ATOM      1  N   UNL     1      -8.410   1.154 132.445  0.00  0.00    +0.000 N 
ATOM      2  C   UNL     1      -7.052   1.231 132.772  0.00  0.00    +0.000 C 
ATOM      3  O   UNL     1      -6.669   0.702 133.786  0.00  0.00    +0.000 OA
ATOM      4  C   UNL     1      -6.543   2.492 132.001  0.00  0.00    +0.000 C 
ATOM      5  C   UNL     1      -7.153   3.604 132.771  0.00  0.00    +0.000 A 
ATOM      6  C   UNL     1      -6.415   4.881 133.374  0.00  0.00    +0.000 A 
ATOM      7  C   UNL     1      -6.953   5.475 134.529  0.00  0.00    +0.000 A 
ATOM      8 CL   UNL     1      -5.867   5.798 135.977  0.00  0.00    +0.000 Cl
ATOM      9  C   UNL     1      -8.291   5.066 134.774  0.00  0.00    +0.000 A 
ATOM     10  C   UNL     1      -9.015   3.831 134.044  0.00  0.00    +0.000 A 
ATOM     11  C   UNL     1      -8.354   2.851 133.207  0.00  0.00    +0.000 A 
ENDROOT
BRANCH   4  12
ATOM     12  C   UNL     1      -5.106   2.345 132.289  0.00  0.00    +0.000 A 
ATOM     13  C   UNL     1      -4.426   3.465 132.783  0.00  0.00    +0.000 A 
ATOM     14  C   UNL     1      -3.112   3.406 133.027  0.00  0.00    +0.000 A 
ATOM     15  C   UNL     1      -2.784   2.129 133.369  0.00  0.00    +0.000 A 
ATOM     16  C   UNL     1      -3.239   1.057 132.622  0.00  0.00    +0.000 A 
ATOM     17  C   UNL     1      -4.361   1.213 131.874  0.00  0.00    +0.000 A 
BRANCH  17  18
ATOM     18  O   UNL     1      -4.534   0.158 131.007  0.00  0.00    +0.000 OA
ATOM     19  C   UNL     1      -3.593  -0.732 130.434  0.00  0.00    +0.000 C 
ENDBRANCH  17  18
BRANCH  14  20
ATOM     20  C   UNL     1      -2.282   4.656 133.061  0.00  0.00    +0.000 C 
BRANCH  20  21
ATOM     21  N   UNL     1      -1.837   5.181 131.767  0.00  0.00    +0.000 NA
ATOM     22  C   UNL     1      -1.683   6.649 131.745  0.00  0.00    +0.000 C 
ATOM     23  C   UNL     1      -2.930   7.229 131.108  0.00  0.00    +0.000 C 
ATOM     24  C   UNL     1      -3.399   6.109 130.177  0.00  0.00    +0.000 C 
ATOM     25  C   UNL     1      -2.758   4.809 130.691  0.00  0.00    +0.000 C 
ENDBRANCH  20  21
ENDBRANCH  14  20
ENDBRANCH   4  12
BRANCH   4  26
ATOM     26  N   UNL     1      -7.184   2.729 130.636  0.00  0.00    +0.000 NA
ATOM     27  C   UNL     1      -6.696   2.073 129.371  0.00  0.00    +0.000 C 
ATOM     28  C   UNL     1      -5.812   3.087 128.664  0.00  0.00    +0.000 C 
ATOM     29  C   UNL     1      -6.562   4.346 128.966  0.00  0.00    +0.000 C 
ATOM     30  C   UNL     1      -7.429   4.081 130.201  0.00  0.00    +0.000 C 
BRANCH  30  31
ATOM     31  C   UNL     1      -8.987   4.221 130.013  0.00  0.00    +0.000 C 
ATOM     32  O   UNL     1      -9.666   3.328 129.497  0.00  0.00    +0.000 OA
ATOM     33  N   UNL     1      -9.594   5.374 130.473  0.00  0.00    +0.000 N 
ATOM     34  C   UNL     1      -8.915   6.437 131.120  0.00  0.00    +0.000 C 
ATOM     35  C   UNL     1     -11.018   5.571 130.406  0.00  0.00    +0.000 C 
ENDBRANCH  30  31
ENDBRANCH   4  26
BRANCH   1  36
ATOM     36  S   UNL     1      -8.134  -1.009 132.346  0.00  0.00    +0.000 S 
ATOM     37  O   UNL     1      -8.327  -1.210 130.884  0.00  0.00    +0.000 OA
ATOM     38  O   UNL     1      -8.968  -1.711 133.270  0.00  0.00    +0.000 OA
BRANCH  36  42
ATOM     39  C   UNL     1      -3.703  -3.872 132.795  0.00  0.00    +0.000 A 
ATOM     40  C   UNL     1      -4.027  -2.769 133.567  0.00  0.00    +0.000 A 
ATOM     41  C   UNL     1      -5.340  -2.047 133.449  0.00  0.00    +0.000 A 
ATOM     42  C   UNL     1      -6.408  -2.361 132.497  0.00  0.00    +0.000 A 
ATOM     43  C   UNL     1      -5.961  -3.398 131.661  0.00  0.00    +0.000 A 
ATOM     44  C   UNL     1      -4.678  -4.176 131.875  0.00  0.00    +0.000 A 
BRANCH  39  46
ATOM     45  C   UNL     1      -2.312  -5.146 134.334  0.00  0.00    +0.000 C 
ATOM     46  O   UNL     1      -2.557  -4.594 133.024  0.00  0.00    +0.000 OA
ENDBRANCH  39  46
BRANCH  43  47
ATOM     47  O   UNL     1      -6.671  -3.652 130.537  0.00  0.00    +0.000 OA
ATOM     48  C   UNL     1      -5.975  -3.279 129.362  0.00  0.00    +0.000 C 
ENDBRANCH  43  47
ENDBRANCH  36  42
ENDBRANCH   1  36
TORSDOF 10
ENDMDL
MODEL 6
REMARK VINA RESULT:      -8.8      2.906      5.769
REMARK  Name = CHEMBL1779408
REMARK  15 active torsions:
REMARK  status: ('A' for Active; 'I' for Inactive)
REMARK    1  A    between atoms: C_1  and  O_2
REMARK    2  A    between atoms: O_2  and  C_3
REMARK    3  A    between atoms: C_6  and  S_7
REMARK    4  A    between atoms: S_7  and  N_10
REMARK    5  A    between atoms: C_13  and  C_14
REMARK    6  A    between atoms: C_13  and  N_28
REMARK    7  A    between atoms: C_16  and  C_17
REMARK    8  A    between atoms: C_17  and  N_18
REMARK    9  A    between atoms: C_25  and  O_26
REMARK   10  A    between atoms: O_26  and  C_27
REMARK   11  A    between atoms: C_32  and  C_33
REMARK   12  A    between atoms: N_35  and  C_36
REMARK   13  A    between atoms: N_35  and  C_37
REMARK   14  A    between atoms: C_45  and  O_46
REMARK   15  A    between atoms: O_46  and  C_47
REMARK                            x       y       z     vdW  Elec       q    Type
REMARK                         _______ _______ _______ _____ _____    ______ ____
ROOT
ATOM      1  N   UNL     1      -5.350   1.912 130.800  0.00  0.00    +0.000 N 
ATOM      2  C   UNL     1      -5.314   2.296 129.456  0.00  0.00    +0.000 C 
ATOM      3  O   UNL     1      -4.488   1.798 128.732  0.00  0.00    +0.000 OA
ATOM      4  C   UNL     1      -5.998   3.701 129.440  0.00  0.00    +0.000 C 
ATOM      5  C   UNL     1      -4.972   4.562 130.078  0.00  0.00    +0.000 A 
ATOM      6  C   UNL     1      -4.374   5.929 129.519  0.00  0.00    +0.000 A 
ATOM      7  C   UNL     1      -3.061   6.277 129.880  0.00  0.00    +0.000 A 
ATOM      8 CL   UNL     1      -1.851   6.741 128.576  0.00  0.00    +0.000 Cl
ATOM      9  C   UNL     1      -2.592   5.531 130.994  0.00  0.00    +0.000 A 
ATOM     10  C   UNL     1      -3.309   4.218 131.579  0.00  0.00    +0.000 A 
ATOM     11  C   UNL     1      -4.394   3.503 130.940  0.00  0.00    +0.000 A 
ENDROOT
BRANCH   4  12
ATOM     12  C   UNL     1      -6.049   3.892 127.981  0.00  0.00    +0.000 A 
ATOM     13  C   UNL     1      -7.258   3.614 127.332  0.00  0.00    +0.000 A 
ATOM     14  C   UNL     1      -7.355   3.731 126.002  0.00  0.00    +0.000 A 
ATOM     15  C   UNL     1      -6.492   4.697 125.581  0.00  0.00    +0.000 A 
ATOM     16  C   UNL     1      -5.182   4.720 126.027  0.00  0.00    +0.000 A 
ATOM     17  C   UNL     1      -4.884   4.116 127.204  0.00  0.00    +0.000 A 
BRANCH  17  18
ATOM     18  O   UNL     1      -3.524   4.005 127.378  0.00  0.00    +0.000 OA
ATOM     19  C   UNL     1      -2.503   3.626 126.472  0.00  0.00    +0.000 C 
ENDBRANCH  17  18
BRANCH  14  20
ATOM     20  C   UNL     1      -8.415   2.987 125.244  0.00  0.00    +0.000 C 
BRANCH  20  21
ATOM     21  N   UNL     1      -8.098   2.628 123.859  0.00  0.00    +0.000 NA
ATOM     22  C   UNL     1      -9.269   2.174 123.082  0.00  0.00    +0.000 C 
ATOM     23  C   UNL     1      -9.246   0.658 123.067  0.00  0.00    +0.000 C 
ATOM     24  C   UNL     1      -7.757   0.331 123.198  0.00  0.00    +0.000 C 
ATOM     25  C   UNL     1      -7.081   1.576 123.796  0.00  0.00    +0.000 C 
ENDBRANCH  20  21
ENDBRANCH  14  20
ENDBRANCH   4  12
BRANCH   4  26
ATOM     26  N   UNL     1      -7.148   3.881 130.429  0.00  0.00    +0.000 NA
ATOM     27  C   UNL     1      -8.595   3.934 130.009  0.00  0.00    +0.000 C 
ATOM     28  C   UNL     1      -8.978   5.404 129.942  0.00  0.00    +0.000 C 
ATOM     29  C   UNL     1      -8.209   5.930 131.113  0.00  0.00    +0.000 C 
ATOM     30  C   UNL     1      -7.077   4.940 131.404  0.00  0.00    +0.000 C 
BRANCH  30  31
ATOM     31  C   UNL     1      -7.088   4.251 132.821  0.00  0.00    +0.000 C 
ATOM     32  O   UNL     1      -7.721   3.214 133.039  0.00  0.00    +0.000 OA
ATOM     33  N   UNL     1      -6.336   4.828 133.827  0.00  0.00    +0.000 N 
ATOM     34  C   UNL     1      -5.539   5.990 133.671  0.00  0.00    +0.000 C 
ATOM     35  C   UNL     1      -6.229   4.242 135.138  0.00  0.00    +0.000 C 
ENDBRANCH  30  31
ENDBRANCH   4  26
BRANCH   1  36
ATOM     36  S   UNL     1      -5.798  -0.101 130.083  0.00  0.00    +0.000 S 
ATOM     37  O   UNL     1      -6.808  -0.499 131.100  0.00  0.00    +0.000 OA
ATOM     38  O   UNL     1      -4.622  -0.895 129.908  0.00  0.00    +0.000 OA
BRANCH  36  42
ATOM     39  C   UNL     1      -8.837  -1.786 126.089  0.00  0.00    +0.000 A 
ATOM     40  C   UNL     1      -8.731  -0.474 126.518  0.00  0.00    +0.000 A 
ATOM     41  C   UNL     1      -7.786  -0.044 127.604  0.00  0.00    +0.000 A 
ATOM     42  C   UNL     1      -6.910  -0.927 128.377  0.00  0.00    +0.000 A 
ATOM     43  C   UNL     1      -7.164  -2.252 127.984  0.00  0.00    +0.000 A 
ATOM     44  C   UNL     1      -8.043  -2.643 126.813  0.00  0.00    +0.000 A 
BRANCH  39  46
ATOM     45  C   UNL     1      -9.165  -3.176 124.117  0.00  0.00    +0.000 C 
ATOM     46  O   UNL     1      -9.604  -2.124 125.001  0.00  0.00    +0.000 OA
ENDBRANCH  39  46
BRANCH  43  47
ATOM     47  O   UNL     1      -6.675  -3.246 128.763  0.00  0.00    +0.000 OA
ATOM     48  C   UNL     1      -7.516  -3.532 129.866  0.00  0.00    +0.000 C 
ENDBRANCH  43  47
ENDBRANCH  36  42
ENDBRANCH   1  36
TORSDOF 10
ENDMDL
MODEL 7
REMARK VINA RESULT:      -8.7      2.042      3.106
REMARK  Name = CHEMBL1779408
REMARK  15 active torsions:
REMARK  status: ('A' for Active; 'I' for Inactive)
REMARK    1  A    between atoms: C_1  and  O_2
REMARK    2  A    between atoms: O_2  and  C_3
REMARK    3  A    between atoms: C_6  and  S_7
REMARK    4  A    between atoms: S_7  and  N_10
REMARK    5  A    between atoms: C_13  and  C_14
REMARK    6  A    between atoms: C_13  and  N_28
REMARK    7  A    between atoms: C_16  and  C_17
REMARK    8  A    between atoms: C_17  and  N_18
REMARK    9  A    between atoms: C_25  and  O_26
REMARK   10  A    between atoms: O_26  and  C_27
REMARK   11  A    between atoms: C_32  and  C_33
REMARK   12  A    between atoms: N_35  and  C_36
REMARK   13  A    between atoms: N_35  and  C_37
REMARK   14  A    between atoms: C_45  and  O_46
REMARK   15  A    between atoms: O_46  and  C_47
REMARK                            x       y       z     vdW  Elec       q    Type
REMARK                         _______ _______ _______ _____ _____    ______ ____
ROOT
ATOM      1  N   UNL     1      -7.465   4.673 127.893  0.00  0.00    +0.000 N 
ATOM      2  C   UNL     1      -7.722   3.398 128.404  0.00  0.00    +0.000 C 
ATOM      3  O   UNL     1      -8.839   2.951 128.315  0.00  0.00    +0.000 OA
ATOM      4  C   UNL     1      -6.595   3.175 129.464  0.00  0.00    +0.000 C 
ATOM      5  C   UNL     1      -7.008   4.084 130.563  0.00  0.00    +0.000 A 
ATOM      6  C   UNL     1      -7.181   3.719 132.104  0.00  0.00    +0.000 A 
ATOM      7  C   UNL     1      -8.115   4.449 132.859  0.00  0.00    +0.000 A 
ATOM      8 CL   UNL     1      -9.373   3.558 133.861  0.00  0.00    +0.000 Cl
ATOM      9  C   UNL     1      -8.503   5.655 132.217  0.00  0.00    +0.000 A 
ATOM     10  C   UNL     1      -8.197   6.009 130.680  0.00  0.00    +0.000 A 
ATOM     11  C   UNL     1      -7.679   5.082 129.696  0.00  0.00    +0.000 A 
ENDROOT
BRANCH   4  12
ATOM     12  C   UNL     1      -6.880   1.765 129.779  0.00  0.00    +0.000 A 
ATOM     13  C   UNL     1      -7.186   1.445 131.107  0.00  0.00    +0.000 A 
ATOM     14  C   UNL     1      -7.415   0.175 131.461  0.00  0.00    +0.000 A 
ATOM     15  C   UNL     1      -7.944  -0.490 130.398  0.00  0.00    +0.000 A 
ATOM     16  C   UNL     1      -7.377  -0.380 129.140  0.00  0.00    +0.000 A 
ATOM     17  C   UNL     1      -6.632   0.717 128.856  0.00  0.00    +0.000 A 
BRANCH  17  18
ATOM     18  O   UNL     1      -5.940   0.559 127.677  0.00  0.00    +0.000 OA
ATOM     19  C   UNL     1      -5.611  -0.610 126.947  0.00  0.00    +0.000 C 
ENDBRANCH  17  18
BRANCH  14  20
ATOM     20  C   UNL     1      -7.244  -0.264 132.886  0.00  0.00    +0.000 C 
BRANCH  20  21
ATOM     21  N   UNL     1      -5.914  -0.745 133.267  0.00  0.00    +0.000 NA
ATOM     22  C   UNL     1      -5.095   0.267 133.964  0.00  0.00    +0.000 C 
ATOM     23  C   UNL     1      -4.153   0.874 132.943  0.00  0.00    +0.000 C 
ATOM     24  C   UNL     1      -3.965  -0.256 131.929  0.00  0.00    +0.000 C 
ATOM     25  C   UNL     1      -5.158  -1.211 132.103  0.00  0.00    +0.000 C 
ENDBRANCH  20  21
ENDBRANCH  14  20
ENDBRANCH   4  12
BRANCH   4  26
ATOM     26  N   UNL     1      -5.238   3.780 129.115  0.00  0.00    +0.000 NA
ATOM     27  C   UNL     1      -4.134   2.999 128.451  0.00  0.00    +0.000 C 
ATOM     28  C   UNL     1      -3.183   2.559 129.553  0.00  0.00    +0.000 C 
ATOM     29  C   UNL     1      -3.225   3.768 130.433  0.00  0.00    +0.000 C 
ATOM     30  C   UNL     1      -4.520   4.523 130.120  0.00  0.00    +0.000 C 
BRANCH  30  31
ATOM     31  C   UNL     1      -4.366   5.993 129.573  0.00  0.00    +0.000 C 
ATOM     32  O   UNL     1      -4.282   6.235 128.365  0.00  0.00    +0.000 OA
ATOM     33  N   UNL     1      -4.356   7.028 130.489  0.00  0.00    +0.000 N 
ATOM     34  C   UNL     1      -4.494   6.862 131.891  0.00  0.00    +0.000 C 
ATOM     35  C   UNL     1      -4.284   8.408 130.087  0.00  0.00    +0.000 C 
ENDBRANCH  30  31
ENDBRANCH   4  26
BRANCH   1  36
ATOM     36  S   UNL     1      -8.016   3.865 125.941  0.00  0.00    +0.000 S 
ATOM     37  O   UNL     1      -6.686   3.914 125.276  0.00  0.00    +0.000 OA
ATOM     38  O   UNL     1      -9.123   4.554 125.356  0.00  0.00    +0.000 OA
BRANCH  36  42
ATOM     39  C   UNL     1      -9.082  -1.122 124.518  0.00  0.00    +0.000 A 
ATOM     40  C   UNL     1      -9.201  -0.610 125.799  0.00  0.00    +0.000 A 
ATOM     41  C   UNL     1      -8.964   0.837 126.126  0.00  0.00    +0.000 A 
ATOM     42  C   UNL     1      -8.536   1.870 125.180  0.00  0.00    +0.000 A 
ATOM     43  C   UNL     1      -8.307   1.259 123.936  0.00  0.00    +0.000 A 
ATOM     44  C   UNL     1      -8.659  -0.179 123.612  0.00  0.00    +0.000 A 
BRANCH  39  46
ATOM     45  C   UNL     1      -8.425  -3.434 124.132  0.00  0.00    +0.000 C 
ATOM     46  O   UNL     1      -9.442  -2.415 124.228  0.00  0.00    +0.000 OA
ENDBRANCH  39  46
BRANCH  43  47
ATOM     47  O   UNL     1      -7.639   1.970 122.997  0.00  0.00    +0.000 OA
ATOM     48  C   UNL     1      -8.471   2.900 122.329  0.00  0.00    +0.000 C 
ENDBRANCH  43  47
ENDBRANCH  36  42
ENDBRANCH   1  36
TORSDOF 10
ENDMDL
MODEL 8
REMARK VINA RESULT:      -8.7      3.360      6.288
REMARK  Name = CHEMBL1779408
REMARK  15 active torsions:
REMARK  status: ('A' for Active; 'I' for Inactive)
REMARK    1  A    between atoms: C_1  and  O_2
REMARK    2  A    between atoms: O_2  and  C_3
REMARK    3  A    between atoms: C_6  and  S_7
REMARK    4  A    between atoms: S_7  and  N_10
REMARK    5  A    between atoms: C_13  and  C_14
REMARK    6  A    between atoms: C_13  and  N_28
REMARK    7  A    between atoms: C_16  and  C_17
REMARK    8  A    between atoms: C_17  and  N_18
REMARK    9  A    between atoms: C_25  and  O_26
REMARK   10  A    between atoms: O_26  and  C_27
REMARK   11  A    between atoms: C_32  and  C_33
REMARK   12  A    between atoms: N_35  and  C_36
REMARK   13  A    between atoms: N_35  and  C_37
REMARK   14  A    between atoms: C_45  and  O_46
REMARK   15  A    between atoms: O_46  and  C_47
REMARK                            x       y       z     vdW  Elec       q    Type
REMARK                         _______ _______ _______ _____ _____    ______ ____
ROOT
ATOM      1  N   UNL     1      -4.183   1.279 132.159  0.00  0.00    +0.000 N 
ATOM      2  C   UNL     1      -4.758   1.954 131.078  0.00  0.00    +0.000 C 
ATOM      3  O   UNL     1      -4.244   1.853 129.992  0.00  0.00    +0.000 OA
ATOM      4  C   UNL     1      -5.573   3.112 131.738  0.00  0.00    +0.000 C 
ATOM      5  C   UNL     1      -4.504   4.032 132.198  0.00  0.00    +0.000 A 
ATOM      6  C   UNL     1      -4.383   5.595 131.909  0.00  0.00    +0.000 A 
ATOM      7  C   UNL     1      -3.100   6.165 131.865  0.00  0.00    +0.000 A 
ATOM      8 CL   UNL     1      -2.611   7.197 130.424  0.00  0.00    +0.000 Cl
ATOM      9  C   UNL     1      -2.116   5.327 132.452  0.00  0.00    +0.000 A 
ATOM     10  C   UNL     1      -2.340   3.779 132.824  0.00  0.00    +0.000 A 
ATOM     11  C   UNL     1      -3.483   2.982 132.429  0.00  0.00    +0.000 A 
ENDROOT
BRANCH   4  12
ATOM     12  C   UNL     1      -6.247   3.610 130.527  0.00  0.00    +0.000 A 
ATOM     13  C   UNL     1      -5.815   3.110 129.293  0.00  0.00    +0.000 A 
ATOM     14  C   UNL     1      -6.361   3.554 128.154  0.00  0.00    +0.000 A 
ATOM     15  C   UNL     1      -7.651   3.917 128.397  0.00  0.00    +0.000 A 
ATOM     16  C   UNL     1      -7.971   4.706 129.488  0.00  0.00    +0.000 A 
ATOM     17  C   UNL     1      -7.130   4.719 130.552  0.00  0.00    +0.000 A 
BRANCH  17  18
ATOM     18  O   UNL     1      -7.450   5.729 131.429  0.00  0.00    +0.000 OA
ATOM     19  C   UNL     1      -8.624   6.515 131.548  0.00  0.00    +0.000 C 
ENDBRANCH  17  18
BRANCH  14  20
ATOM     20  C   UNL     1      -5.618   3.442 126.855  0.00  0.00    +0.000 C 
BRANCH  20  21
ATOM     21  N   UNL     1      -4.511   4.379 126.652  0.00  0.00    +0.000 NA
ATOM     22  C   UNL     1      -3.295   3.749 126.099  0.00  0.00    +0.000 C 
ATOM     23  C   UNL     1      -2.349   3.491 127.255  0.00  0.00    +0.000 C 
ATOM     24  C   UNL     1      -2.721   4.584 128.259  0.00  0.00    +0.000 C 
ATOM     25  C   UNL     1      -4.141   5.052 127.899  0.00  0.00    +0.000 C 
ENDBRANCH  20  21
ENDBRANCH  14  20
ENDBRANCH   4  12
BRANCH   4  26
ATOM     26  N   UNL     1      -6.227   2.774 133.077  0.00  0.00    +0.000 NA
ATOM     27  C   UNL     1      -7.467   1.927 133.197  0.00  0.00    +0.000 C 
ATOM     28  C   UNL     1      -8.639   2.884 133.345  0.00  0.00    +0.000 C 
ATOM     29  C   UNL     1      -8.009   3.942 134.194  0.00  0.00    +0.000 C 
ATOM     30  C   UNL     1      -6.491   3.834 134.016  0.00  0.00    +0.000 C 
BRANCH  30  31
ATOM     31  C   UNL     1      -5.650   3.513 135.310  0.00  0.00    +0.000 C 
ATOM     32  O   UNL     1      -5.417   2.354 135.666  0.00  0.00    +0.000 OA
ATOM     33  N   UNL     1      -5.145   4.576 136.034  0.00  0.00    +0.000 N 
ATOM     34  C   UNL     1      -5.314   5.940 135.686  0.00  0.00    +0.000 C 
ATOM     35  C   UNL     1      -4.312   4.388 137.193  0.00  0.00    +0.000 C 
ENDBRANCH  30  31
ENDBRANCH   4  26
BRANCH   1  36
ATOM     36  S   UNL     1      -4.606  -0.566 131.071  0.00  0.00    +0.000 S 
ATOM     37  O   UNL     1      -5.477  -1.241 132.072  0.00  0.00    +0.000 OA
ATOM     38  O   UNL     1      -3.419  -1.218 130.615  0.00  0.00    +0.000 OA
BRANCH  36  42
ATOM     39  C   UNL     1      -7.976  -1.582 127.117  0.00  0.00    +0.000 A 
ATOM     40  C   UNL     1      -7.867  -0.376 127.788  0.00  0.00    +0.000 A 
ATOM     41  C   UNL     1      -6.833  -0.122 128.848  0.00  0.00    +0.000 A 
ATOM     42  C   UNL     1      -5.857  -1.095 129.344  0.00  0.00    +0.000 A 
ATOM     43  C   UNL     1      -6.109  -2.328 128.719  0.00  0.00    +0.000 A 
ATOM     44  C   UNL     1      -7.088  -2.524 127.578  0.00  0.00    +0.000 A 
BRANCH  39  46
ATOM     45  C   UNL     1      -9.261  -3.061 125.671  0.00  0.00    +0.000 C 
ATOM     46  O   UNL     1      -8.838  -1.737 126.058  0.00  0.00    +0.000 OA
ENDBRANCH  39  46
BRANCH  43  47
ATOM     47  O   UNL     1      -5.514  -3.429 129.234  0.00  0.00    +0.000 OA
ATOM     48  C   UNL     1      -6.324  -4.081 130.196  0.00  0.00    +0.000 C 
ENDBRANCH  43  47
ENDBRANCH  36  42
ENDBRANCH   1  36
TORSDOF 10
ENDMDL
MODEL 9
REMARK VINA RESULT:      -8.7      2.890      6.011
REMARK  Name = CHEMBL1779408
REMARK  15 active torsions:
REMARK  status: ('A' for Active; 'I' for Inactive)
REMARK    1  A    between atoms: C_1  and  O_2
REMARK    2  A    between atoms: O_2  and  C_3
REMARK    3  A    between atoms: C_6  and  S_7
REMARK    4  A    between atoms: S_7  and  N_10
REMARK    5  A    between atoms: C_13  and  C_14
REMARK    6  A    between atoms: C_13  and  N_28
REMARK    7  A    between atoms: C_16  and  C_17
REMARK    8  A    between atoms: C_17  and  N_18
REMARK    9  A    between atoms: C_25  and  O_26
REMARK   10  A    between atoms: O_26  and  C_27
REMARK   11  A    between atoms: C_32  and  C_33
REMARK   12  A    between atoms: N_35  and  C_36
REMARK   13  A    between atoms: N_35  and  C_37
REMARK   14  A    between atoms: C_45  and  O_46
REMARK   15  A    between atoms: O_46  and  C_47
REMARK                            x       y       z     vdW  Elec       q    Type
REMARK                         _______ _______ _______ _____ _____    ______ ____
ROOT
ATOM      1  N   UNL     1      -5.516  -0.548 131.385  0.00  0.00    +0.000 N 
ATOM      2  C   UNL     1      -4.875   0.197 130.390  0.00  0.00    +0.000 C 
ATOM      3  O   UNL     1      -3.802  -0.177 129.985  0.00  0.00    +0.000 OA
ATOM      4  C   UNL     1      -5.496   1.625 130.520  0.00  0.00    +0.000 C 
ATOM      5  C   UNL     1      -4.887   2.123 131.779  0.00  0.00    +0.000 A 
ATOM      6  C   UNL     1      -4.118   3.502 132.001  0.00  0.00    +0.000 A 
ATOM      7  C   UNL     1      -3.121   3.554 132.989  0.00  0.00    +0.000 A 
ATOM      8 CL   UNL     1      -1.455   4.208 132.568  0.00  0.00    +0.000 Cl
ATOM      9  C   UNL     1      -3.203   2.466 133.898  0.00  0.00    +0.000 A 
ATOM     10  C   UNL     1      -4.090   1.147 133.662  0.00  0.00    +0.000 A 
ATOM     11  C   UNL     1      -4.752   0.795 132.423  0.00  0.00    +0.000 A 
ENDROOT
BRANCH   4  12
ATOM     12  C   UNL     1      -4.876   2.232 129.330  0.00  0.00    +0.000 A 
ATOM     13  C   UNL     1      -4.052   3.347 129.525  0.00  0.00    +0.000 A 
ATOM     14  C   UNL     1      -3.492   3.965 128.478  0.00  0.00    +0.000 A 
ATOM     15  C   UNL     1      -3.286   3.055 127.487  0.00  0.00    +0.000 A 
ATOM     16  C   UNL     1      -4.286   2.173 127.115  0.00  0.00    +0.000 A 
ATOM     17  C   UNL     1      -5.262   1.880 128.012  0.00  0.00    +0.000 A 
BRANCH  17  18
ATOM     18  O   UNL     1      -6.300   1.203 127.415  0.00  0.00    +0.000 OA
ATOM     19  C   UNL     1      -6.878   1.342 126.129  0.00  0.00    +0.000 C 
ENDBRANCH  17  18
BRANCH  14  20
ATOM     20  C   UNL     1      -3.048   5.395 128.582  0.00  0.00    +0.000 C 
BRANCH  20  21
ATOM     21  N   UNL     1      -4.106   6.406 128.652  0.00  0.00    +0.000 NA
ATOM     22  C   UNL     1      -3.602   7.779 128.852  0.00  0.00    +0.000 C 
ATOM     23  C   UNL     1      -3.735   8.104 130.327  0.00  0.00    +0.000 C 
ATOM     24  C   UNL     1      -4.918   7.239 130.768  0.00  0.00    +0.000 C 
ATOM     25  C   UNL     1      -5.057   6.114 129.727  0.00  0.00    +0.000 C 
ENDBRANCH  20  21
ENDBRANCH  14  20
ENDBRANCH   4  12
BRANCH   4  26
ATOM     26  N   UNL     1      -6.973   1.666 130.906  0.00  0.00    +0.000 NA
ATOM     27  C   UNL     1      -8.035   0.880 130.181  0.00  0.00    +0.000 C 
ATOM     28  C   UNL     1      -8.697   1.836 129.202  0.00  0.00    +0.000 C 
ATOM     29  C   UNL     1      -8.699   3.089 130.019  0.00  0.00    +0.000 C 
ATOM     30  C   UNL     1      -7.615   2.942 131.092  0.00  0.00    +0.000 C 
BRANCH  30  31
ATOM     31  C   UNL     1      -8.096   2.992 132.592  0.00  0.00    +0.000 C 
ATOM     32  O   UNL     1      -8.516   1.989 133.177  0.00  0.00    +0.000 OA
ATOM     33  N   UNL     1      -8.008   4.198 133.261  0.00  0.00    +0.000 N 
ATOM     34  C   UNL     1      -7.498   5.395 132.697  0.00  0.00    +0.000 C 
ATOM     35  C   UNL     1      -8.361   4.333 134.650  0.00  0.00    +0.000 C 
ENDBRANCH  30  31
ENDBRANCH   4  26
BRANCH   1  36
ATOM     36  S   UNL     1      -5.558  -2.193 129.950  0.00  0.00    +0.000 S 
ATOM     37  O   UNL     1      -6.676  -2.987 130.528  0.00  0.00    +0.000 OA
ATOM     38  O   UNL     1      -4.277  -2.801 129.776  0.00  0.00    +0.000 OA
BRANCH  36  42
ATOM     39  C   UNL     1      -6.907  -2.329 124.832  0.00  0.00    +0.000 A 
ATOM     40  C   UNL     1      -5.667  -1.961 125.326  0.00  0.00    +0.000 A 
ATOM     41  C   UNL     1      -5.317  -2.023 126.786  0.00  0.00    +0.000 A 
ATOM     42  C   UNL     1      -6.223  -2.416 127.867  0.00  0.00    +0.000 A 
ATOM     43  C   UNL     1      -7.494  -2.647 127.315  0.00  0.00    +0.000 A 
ATOM     44  C   UNL     1      -7.787  -2.681 125.828  0.00  0.00    +0.000 A 
BRANCH  39  46
ATOM     45  C   UNL     1      -6.301  -1.671 122.568  0.00  0.00    +0.000 C 
ATOM     46  O   UNL     1      -7.150  -2.396 123.482  0.00  0.00    +0.000 OA
ENDBRANCH  39  46
BRANCH  43  47
ATOM     47  O   UNL     1      -8.543  -2.744 128.165  0.00  0.00    +0.000 OA
ATOM     48  C   UNL     1      -9.120  -4.038 128.166  0.00  0.00    +0.000 C 
ENDBRANCH  43  47
ENDBRANCH  36  42
ENDBRANCH   1  36
TORSDOF 10
ENDMDL
