MODEL 1
REMARK VINA RESULT:     -10.7      0.000      0.000
REMARK  Name = CHEMBL1790712
REMARK  24 active torsions:
REMARK  status: ('A' for Active; 'I' for Inactive)
REMARK    1  A    between atoms: C_1  and  C_2
REMARK    2  A    between atoms: C_2  and  C_3
REMARK    3  A    between atoms: C_3  and  C_4
REMARK    4  A    between atoms: C_3  and  C_5
REMARK    5  A    between atoms: C_9  and  C_10
REMARK    6  A    between atoms: C_9  and  C_11
REMARK    7  A    between atoms: C_14  and  O_15
REMARK    8  A    between atoms: C_31  and  C_32
REMARK    9  A    between atoms: C_38  and  C_39
REMARK   10  A    between atoms: N_41  and  C_42
REMARK   11  A    between atoms: C_42  and  C_43
REMARK   12  A    between atoms: C_42  and  C_47
REMARK   13  A    between atoms: C_43  and  C_44
REMARK   14  A    between atoms: C_44  and  C_45
REMARK   15  A    between atoms: C_45  and  N_46
REMARK   16  A    between atoms: N_49  and  C_50
REMARK   17  A    between atoms: C_50  and  C_51
REMARK   18  A    between atoms: C_50  and  C_54
REMARK   19  A    between atoms: C_57  and  O_58
REMARK   20  A    between atoms: C_64  and  C_65
REMARK   21  A    between atoms: C_65  and  C_66
REMARK   22  A    between atoms: C_72  and  C_73
REMARK   23  A    between atoms: C_73  and  C_74
REMARK   24  A    between atoms: C_73  and  O_75
REMARK                            x       y       z     vdW  Elec       q    Type
REMARK                         _______ _______ _______ _____ _____    ______ ____
ROOT
ATOM      1  C   UNL     1      -6.010   7.940 137.541  0.00  0.00    +0.000 C 
ATOM      2  N   UNL     1      -4.195   8.093 136.787  0.00  0.00    +0.000 N 
ATOM      3  C   UNL     1      -2.895   9.245 136.777  0.00  0.00    +0.000 C 
ATOM      4  O   UNL     1      -3.681  10.104 137.250  0.00  0.00    +0.000 OA
ATOM      5  C   UNL     1      -1.312  10.182 135.859  0.00  0.00    +0.000 C 
ATOM      6  C   UNL     1      -0.634  10.504 137.203  0.00  0.00    +0.000 C 
ATOM      7  N   UNL     1      -2.087  11.181 135.132  0.00  0.00    +0.000 N 
ATOM      8  C   UNL     1      -2.565  11.111 133.826  0.00  0.00    +0.000 C 
ATOM      9  O   UNL     1      -3.088  12.131 133.363  0.00  0.00    +0.000 OA
ATOM     10  C   UNL     1      -2.471   9.800 132.871  0.00  0.00    +0.000 C 
ATOM     11  C   UNL     1      -1.686   8.504 133.416  0.00  0.00    +0.000 C 
ATOM     12  C   UNL     1      -2.395   8.102 134.639  0.00  0.00    +0.000 C 
ATOM     13  C   UNL     1      -1.438   7.127 135.718  0.00  0.00    +0.000 C 
ATOM     14  C   UNL     1      -0.048   7.461 136.089  0.00  0.00    +0.000 C 
ATOM     15  C   UNL     1       0.590   7.623 134.814  0.00  0.00    +0.000 C 
ATOM     16  C   UNL     1      -0.340   8.473 134.004  0.00  0.00    +0.000 C 
ATOM     17  S   UNL     1      -1.114   7.301 132.416  0.00  0.00    +0.000 S 
ATOM     18  S   UNL     1      -2.443   5.667 133.615  0.00  0.00    +0.000 S 
ATOM     19  C   UNL     1      -3.109   3.967 131.981  0.00  0.00    +0.000 C 
ATOM     20  C   UNL     1      -4.378   3.380 131.932  0.00  0.00    +0.000 C 
ATOM     21  N   UNL     1      -4.528   3.067 133.270  0.00  0.00    +0.000 N 
ATOM     22  C   UNL     1      -5.027   4.019 134.098  0.00  0.00    +0.000 C 
ATOM     23  O   UNL     1      -5.442   3.548 135.172  0.00  0.00    +0.000 OA
ATOM     24  C   UNL     1      -4.847   5.610 133.752  0.00  0.00    +0.000 C 
ATOM     25  N   UNL     1      -5.906   6.306 134.295  0.00  0.00    +0.000 N 
ATOM     26  C   UNL     1      -6.187   6.121 135.603  0.00  0.00    +0.000 C 
ATOM     27  O   UNL     1      -7.336   6.531 135.816  0.00  0.00    +0.000 OA
ATOM     28  C   UNL     1      -5.016   5.451 136.847  0.00  0.00    +0.000 C 
ATOM     29  N   UNL     1      -4.575   6.258 138.196  0.00  0.00    +0.000 N 
ATOM     30  C   UNL     1      -5.202   7.410 138.650  0.00  0.00    +0.000 C 
ATOM     31  O   UNL     1      -4.925   8.056 139.647  0.00  0.00    +0.000 OA
ATOM     32  H   UNL     1      -4.027   7.433 136.031  0.00  0.00    +0.000 HD
ATOM     33  H   UNL     1      -2.096  12.076 135.593  0.00  0.00    +0.000 HD
ATOM     34  H   UNL     1      -4.228   2.159 133.587  0.00  0.00    +0.000 HD
ATOM     35  H   UNL     1      -6.515   6.861 133.717  0.00  0.00    +0.000 HD
ATOM     36  H   UNL     1      -3.707   6.748 137.981  0.00  0.00    +0.000 HD
ENDROOT
BRANCH  20  37
ATOM     37  C   UNL     1      -5.478   4.123 131.170  0.00  0.00    +0.000 C 
ATOM     38  O   UNL     1      -5.309   5.166 130.528  0.00  0.00    +0.000 OA
ATOM     39  N   UNL     1      -6.704   3.550 131.287  0.00  0.00    +0.000 N 
ATOM     40  C   UNL     1      -7.203   2.605 132.252  0.00  0.00    +0.000 C 
ATOM     41  C   UNL     1      -7.716   1.518 131.399  0.00  0.00    +0.000 C 
ATOM     42  C   UNL     1      -8.391   2.331 130.308  0.00  0.00    +0.000 C 
ATOM     43  C   UNL     1      -7.599   3.655 130.182  0.00  0.00    +0.000 C 
BRANCH  43  44
ATOM     44  C   UNL     1      -6.906   3.805 128.842  0.00  0.00    +0.000 C 
ATOM     45  O   UNL     1      -6.640   4.859 128.276  0.00  0.00    +0.000 OA
ATOM     46  N   UNL     1      -6.531   2.603 128.314  0.00  0.00    +0.000 N 
ATOM     47  H   UNL     1      -6.787   1.733 128.754  0.00  0.00    +0.000 HD
BRANCH  46  48
ATOM     48  C   UNL     1      -5.384   2.619 127.478  0.00  0.00    +0.000 C 
BRANCH  48  49
ATOM     49  C   UNL     1      -5.629   1.645 126.215  0.00  0.00    +0.000 C 
ATOM     50  O   UNL     1      -5.377   0.437 126.307  0.00  0.00    +0.000 OA
ATOM     51  N   UNL     1      -6.058   2.115 124.984  0.00  0.00    +0.000 N 
ATOM     52  H   UNL     1      -6.269   1.408 124.283  0.00  0.00    +0.000 HD
BRANCH  51  53
ATOM     53  C   UNL     1      -6.529   3.465 124.631  0.00  0.00    +0.000 C 
BRANCH  53  54
ATOM     54  C   UNL     1      -6.211   3.826 123.188  0.00  0.00    +0.000 A 
ATOM     55  C   UNL     1      -7.024   3.461 122.097  0.00  0.00    +0.000 A 
ATOM     56  C   UNL     1      -6.764   3.829 120.781  0.00  0.00    +0.000 A 
ATOM     57  C   UNL     1      -5.596   4.508 120.517  0.00  0.00    +0.000 A 
ATOM     58  C   UNL     1      -4.724   4.826 121.552  0.00  0.00    +0.000 A 
ATOM     59  C   UNL     1      -5.033   4.506 122.879  0.00  0.00    +0.000 A 
BRANCH  57  60
ATOM     60  O   UNL     1      -5.237   4.868 119.254  0.00  0.00    +0.000 OA
ATOM     61  H   UNL     1      -5.386   5.820 119.134  0.00  0.00    +0.000 HD
ENDBRANCH  57  60
ENDBRANCH  53  54
BRANCH  53  62
ATOM     62  C   UNL     1      -7.970   3.660 125.126  0.00  0.00    +0.000 C 
ATOM     63  N   UNL     1      -8.232   4.947 125.635  0.00  0.00    +0.000 N 
ATOM     64  O   UNL     1      -8.805   2.763 125.205  0.00  0.00    +0.000 OA
ATOM     65  H   UNL     1      -8.959   4.937 126.354  0.00  0.00    +0.000 HD
ATOM     66  H   UNL     1      -7.410   5.424 126.013  0.00  0.00    +0.000 HD
ENDBRANCH  53  62
ENDBRANCH  51  53
ENDBRANCH  48  49
BRANCH  48  67
ATOM     67  C   UNL     1      -4.219   2.233 128.348  0.00  0.00    +0.000 C 
BRANCH  67  68
ATOM     68  C   UNL     1      -2.845   2.808 128.409  0.00  0.00    +0.000 C 
BRANCH  68  69
ATOM     69  C   UNL     1      -2.368   3.442 127.127  0.00  0.00    +0.000 C 
BRANCH  69  70
ATOM     70  N   UNL     1      -1.288   2.567 126.707  0.00  0.00    +0.000 NA
ATOM     71  H   UNL     1      -0.429   3.124 126.702  0.00  0.00    +0.000 HD
ATOM     72  H   UNL     1      -1.454   2.260 125.757  0.00  0.00    +0.000 HD
ENDBRANCH  69  70
ENDBRANCH  68  69
ENDBRANCH  67  68
ENDBRANCH  48  67
ENDBRANCH  46  48
ENDBRANCH  43  44
ENDBRANCH  20  37
BRANCH   5  73
ATOM     73  C   UNL     1       0.312  10.617 134.749  0.00  0.00    +0.000 A 
ATOM     74  C   UNL     1       1.957  10.726 135.329  0.00  0.00    +0.000 A 
ATOM     75  C   UNL     1       2.925  11.888 135.180  0.00  0.00    +0.000 A 
ATOM     76  C   UNL     1       2.596  12.724 134.138  0.00  0.00    +0.000 A 
ATOM     77  C   UNL     1       1.365  12.517 133.370  0.00  0.00    +0.000 A 
ATOM     78  C   UNL     1       0.221  11.554 133.670  0.00  0.00    +0.000 A 
BRANCH  76  79
ATOM     79  O   UNL     1       3.433  13.767 133.841  0.00  0.00    +0.000 OA
ATOM     80  H   UNL     1       3.259  14.474 134.494  0.00  0.00    +0.000 HD
ENDBRANCH  76  79
ENDBRANCH   5  73
BRANCH   1  81
ATOM     81  C   UNL     1      -7.562   7.593 138.715  0.00  0.00    +0.000 C 
ATOM     82  C   UNL     1      -8.799   8.242 138.125  0.00  0.00    +0.000 C 
BRANCH  81  84
ATOM     83  C   UNL     1      -7.521   5.485 140.248  0.00  0.00    +0.000 C 
ATOM     84  C   UNL     1      -8.330   6.059 139.141  0.00  0.00    +0.000 C 
ENDBRANCH  81  84
ENDBRANCH   1  81
BRANCH  28  85
ATOM     85  C   UNL     1      -3.585   5.002 136.364  0.00  0.00    +0.000 C 
ATOM     86  C   UNL     1      -2.501   5.225 137.331  0.00  0.00    +0.000 C 
BRANCH  85  87
ATOM     87  O   UNL     1      -3.105   3.758 135.924  0.00  0.00    +0.000 OA
ATOM     88  H   UNL     1      -2.499   3.958 135.203  0.00  0.00    +0.000 HD
ENDBRANCH  85  87
ENDBRANCH  28  85
BRANCH  24  89
ATOM     89  C   UNL     1      -4.255   6.191 132.210  0.00  0.00    +0.000 C 
BRANCH  89  90
ATOM     90  C   UNL     1      -5.068   7.504 130.883  0.00  0.00    +0.000 C 
ATOM     91  N   UNL     1      -6.927   7.487 130.695  0.00  0.00    +0.000 N 
ATOM     92  O   UNL     1      -4.500   8.328 130.268  0.00  0.00    +0.000 OA
ATOM     93  H   UNL     1      -7.361   6.640 131.345  0.00  0.00    +0.000 HD
ATOM     94  H   UNL     1      -7.801   7.626 130.255  0.00  0.00    +0.000 HD
ENDBRANCH  89  90
ENDBRANCH  24  89
TORSDOF 20
ENDMDL
MODEL 2
REMARK VINA RESULT:     -10.5      2.814     11.003
REMARK  Name = CHEMBL1790712
REMARK  24 active torsions:
REMARK  status: ('A' for Active; 'I' for Inactive)
REMARK    1  A    between atoms: C_1  and  C_2
REMARK    2  A    between atoms: C_2  and  C_3
REMARK    3  A    between atoms: C_3  and  C_4
REMARK    4  A    between atoms: C_3  and  C_5
REMARK    5  A    between atoms: C_9  and  C_10
REMARK    6  A    between atoms: C_9  and  C_11
REMARK    7  A    between atoms: C_14  and  O_15
REMARK    8  A    between atoms: C_31  and  C_32
REMARK    9  A    between atoms: C_38  and  C_39
REMARK   10  A    between atoms: N_41  and  C_42
REMARK   11  A    between atoms: C_42  and  C_43
REMARK   12  A    between atoms: C_42  and  C_47
REMARK   13  A    between atoms: C_43  and  C_44
REMARK   14  A    between atoms: C_44  and  C_45
REMARK   15  A    between atoms: C_45  and  N_46
REMARK   16  A    between atoms: N_49  and  C_50
REMARK   17  A    between atoms: C_50  and  C_51
REMARK   18  A    between atoms: C_50  and  C_54
REMARK   19  A    between atoms: C_57  and  O_58
REMARK   20  A    between atoms: C_64  and  C_65
REMARK   21  A    between atoms: C_65  and  C_66
REMARK   22  A    between atoms: C_72  and  C_73
REMARK   23  A    between atoms: C_73  and  C_74
REMARK   24  A    between atoms: C_73  and  O_75
REMARK                            x       y       z     vdW  Elec       q    Type
REMARK                         _______ _______ _______ _____ _____    ______ ____
ROOT
ATOM      1  C   UNL     1      -4.017  -0.857 131.974  0.00  0.00    +0.000 C 
ATOM      2  N   UNL     1      -5.055   0.271 130.735  0.00  0.00    +0.000 N 
ATOM      3  C   UNL     1      -5.312   0.410 129.023  0.00  0.00    +0.000 C 
ATOM      4  O   UNL     1      -4.338  -0.362 128.836  0.00  0.00    +0.000 OA
ATOM      5  C   UNL     1      -5.654   1.520 127.326  0.00  0.00    +0.000 C 
ATOM      6  C   UNL     1      -6.336   0.341 126.609  0.00  0.00    +0.000 C 
ATOM      7  N   UNL     1      -4.265   1.880 127.060  0.00  0.00    +0.000 N 
ATOM      8  C   UNL     1      -3.587   3.031 127.454  0.00  0.00    +0.000 C 
ATOM      9  O   UNL     1      -2.447   3.194 127.005  0.00  0.00    +0.000 OA
ATOM     10  C   UNL     1      -4.190   4.172 128.442  0.00  0.00    +0.000 C 
ATOM     11  C   UNL     1      -5.716   4.035 128.938  0.00  0.00    +0.000 C 
ATOM     12  C   UNL     1      -5.780   2.756 129.660  0.00  0.00    +0.000 C 
ATOM     13  C   UNL     1      -7.387   2.097 129.782  0.00  0.00    +0.000 C 
ATOM     14  C   UNL     1      -8.316   2.018 128.637  0.00  0.00    +0.000 C 
ATOM     15  C   UNL     1      -8.332   3.367 128.148  0.00  0.00    +0.000 C 
ATOM     16  C   UNL     1      -6.897   3.793 128.097  0.00  0.00    +0.000 C 
ATOM     17  S   UNL     1      -6.593   5.315 129.542  0.00  0.00    +0.000 S 
ATOM     18  S   UNL     1      -6.944   4.103 131.612  0.00  0.00    +0.000 S 
ATOM     19  C   UNL     1      -7.031   5.777 133.399  0.00  0.00    +0.000 C 
ATOM     20  C   UNL     1      -6.437   5.614 134.655  0.00  0.00    +0.000 C 
ATOM     21  N   UNL     1      -6.891   4.344 134.953  0.00  0.00    +0.000 N 
ATOM     22  C   UNL     1      -6.173   3.284 134.503  0.00  0.00    +0.000 C 
ATOM     23  O   UNL     1      -6.454   2.229 135.097  0.00  0.00    +0.000 OA
ATOM     24  C   UNL     1      -5.237   3.413 133.165  0.00  0.00    +0.000 C 
ATOM     25  N   UNL     1      -4.181   2.534 133.274  0.00  0.00    +0.000 N 
ATOM     26  C   UNL     1      -4.453   1.242 133.555  0.00  0.00    +0.000 C 
ATOM     27  O   UNL     1      -3.411   0.702 133.954  0.00  0.00    +0.000 OA
ATOM     28  C   UNL     1      -6.078   0.428 133.302  0.00  0.00    +0.000 C 
ATOM     29  N   UNL     1      -6.290  -0.887 132.358  0.00  0.00    +0.000 N 
ATOM     30  C   UNL     1      -5.250  -1.648 131.843  0.00  0.00    +0.000 C 
ATOM     31  O   UNL     1      -5.340  -2.639 131.138  0.00  0.00    +0.000 OA
ATOM     32  H   UNL     1      -5.371   1.138 131.165  0.00  0.00    +0.000 HD
ATOM     33  H   UNL     1      -3.842   1.298 126.357  0.00  0.00    +0.000 HD
ATOM     34  H   UNL     1      -7.758   4.250 135.460  0.00  0.00    +0.000 HD
ATOM     35  H   UNL     1      -3.229   2.859 133.244  0.00  0.00    +0.000 HD
ATOM     36  H   UNL     1      -6.573  -0.551 131.437  0.00  0.00    +0.000 HD
ENDROOT
BRANCH  20  37
ATOM     37  C   UNL     1      -4.953   5.970 134.793  0.00  0.00    +0.000 C 
ATOM     38  O   UNL     1      -4.254   6.437 133.887  0.00  0.00    +0.000 OA
ATOM     39  N   UNL     1      -4.438   5.691 136.018  0.00  0.00    +0.000 N 
ATOM     40  C   UNL     1      -4.926   4.824 137.060  0.00  0.00    +0.000 C 
ATOM     41  C   UNL     1      -4.977   5.724 138.226  0.00  0.00    +0.000 C 
ATOM     42  C   UNL     1      -3.671   6.477 138.040  0.00  0.00    +0.000 C 
ATOM     43  C   UNL     1      -3.402   6.536 136.516  0.00  0.00    +0.000 C 
BRANCH  43  44
ATOM     44  C   UNL     1      -3.441   7.946 135.962  0.00  0.00    +0.000 C 
ATOM     45  O   UNL     1      -4.085   8.887 136.416  0.00  0.00    +0.000 OA
ATOM     46  N   UNL     1      -2.611   8.107 134.892  0.00  0.00    +0.000 N 
ATOM     47  H   UNL     1      -2.114   7.327 134.490  0.00  0.00    +0.000 HD
BRANCH  46  48
ATOM     48  C   UNL     1      -2.076   9.408 134.706  0.00  0.00    +0.000 C 
BRANCH  48  49
ATOM     49  C   UNL     1      -2.230   9.835 133.158  0.00  0.00    +0.000 C 
ATOM     50  O   UNL     1      -2.653   9.019 132.330  0.00  0.00    +0.000 OA
ATOM     51  N   UNL     1      -1.842  11.079 132.686  0.00  0.00    +0.000 N 
ATOM     52  H   UNL     1      -2.067  11.279 131.714  0.00  0.00    +0.000 HD
BRANCH  51  53
ATOM     53  C   UNL     1      -1.416  12.260 133.456  0.00  0.00    +0.000 C 
BRANCH  53  54
ATOM     54  C   UNL     1       0.088  12.283 133.687  0.00  0.00    +0.000 A 
ATOM     55  C   UNL     1       1.025  11.790 132.760  0.00  0.00    +0.000 A 
ATOM     56  C   UNL     1       2.403  11.851 132.945  0.00  0.00    +0.000 A 
ATOM     57  C   UNL     1       2.874  12.337 134.143  0.00  0.00    +0.000 A 
ATOM     58  C   UNL     1       1.985  12.768 135.120  0.00  0.00    +0.000 A 
ATOM     59  C   UNL     1       0.603  12.760 134.892  0.00  0.00    +0.000 A 
BRANCH  57  60
ATOM     60  O   UNL     1       4.204  12.392 134.429  0.00  0.00    +0.000 OA
ATOM     61  H   UNL     1       4.560  13.251 134.150  0.00  0.00    +0.000 HD
ENDBRANCH  57  60
ENDBRANCH  53  54
BRANCH  53  62
ATOM     62  C   UNL     1      -2.081  13.522 132.885  0.00  0.00    +0.000 C 
ATOM     63  N   UNL     1      -1.808  13.746 131.521  0.00  0.00    +0.000 N 
ATOM     64  O   UNL     1      -2.692  14.349 133.555  0.00  0.00    +0.000 OA
ATOM     65  H   UNL     1      -1.824  14.740 131.283  0.00  0.00    +0.000 HD
ATOM     66  H   UNL     1      -0.920  13.351 131.200  0.00  0.00    +0.000 HD
ENDBRANCH  53  62
ENDBRANCH  51  53
ENDBRANCH  48  49
BRANCH  48  67
ATOM     67  C   UNL     1      -0.656   9.358 135.201  0.00  0.00    +0.000 C 
BRANCH  67  68
ATOM     68  C   UNL     1       0.540   8.702 134.600  0.00  0.00    +0.000 C 
BRANCH  68  69
ATOM     69  C   UNL     1       0.425   7.208 134.437  0.00  0.00    +0.000 C 
BRANCH  69  70
ATOM     70  N   UNL     1      -0.149   7.063 133.111  0.00  0.00    +0.000 NA
ATOM     71  H   UNL     1       0.586   7.290 132.434  0.00  0.00    +0.000 HD
ATOM     72  H   UNL     1      -0.891   7.740 132.990  0.00  0.00    +0.000 HD
ENDBRANCH  69  70
ENDBRANCH  68  69
ENDBRANCH  67  68
ENDBRANCH  48  67
ENDBRANCH  46  48
ENDBRANCH  43  44
ENDBRANCH  20  37
BRANCH   5  73
ATOM     73  C   UNL     1      -6.279   2.901 126.000  0.00  0.00    +0.000 A 
ATOM     74  C   UNL     1      -7.765   2.850 125.083  0.00  0.00    +0.000 A 
ATOM     75  C   UNL     1      -7.939   2.948 123.576  0.00  0.00    +0.000 A 
ATOM     76  C   UNL     1      -6.868   3.551 122.957  0.00  0.00    +0.000 A 
ATOM     77  C   UNL     1      -5.675   3.929 123.720  0.00  0.00    +0.000 A 
ATOM     78  C   UNL     1      -5.336   3.582 125.166  0.00  0.00    +0.000 A 
BRANCH  76  79
ATOM     79  O   UNL     1      -6.931   3.779 121.607  0.00  0.00    +0.000 OA
ATOM     80  H   UNL     1      -6.331   3.137 121.177  0.00  0.00    +0.000 HD
ENDBRANCH  76  79
ENDBRANCH   5  73
BRANCH   1  81
ATOM     81  C   UNL     1      -3.409  -2.296 133.185  0.00  0.00    +0.000 C 
ATOM     82  C   UNL     1      -1.953  -2.075 133.544  0.00  0.00    +0.000 C 
BRANCH  81  84
ATOM     83  C   UNL     1      -4.877  -3.855 134.672  0.00  0.00    +0.000 C 
ATOM     84  C   UNL     1      -3.955  -2.698 134.817  0.00  0.00    +0.000 C 
ENDBRANCH  81  84
ENDBRANCH   1  81
BRANCH  28  85
ATOM     85  C   UNL     1      -7.276   1.299 132.764  0.00  0.00    +0.000 C 
ATOM     86  C   UNL     1      -8.227   0.587 131.899  0.00  0.00    +0.000 C 
BRANCH  85  87
ATOM     87  O   UNL     1      -8.257   2.041 133.441  0.00  0.00    +0.000 OA
ATOM     88  H   UNL     1      -8.144   2.949 133.141  0.00  0.00    +0.000 HD
ENDBRANCH  85  87
ENDBRANCH  28  85
BRANCH  24  89
ATOM     89  C   UNL     1      -4.888   4.942 132.387  0.00  0.00    +0.000 C 
BRANCH  89  90
ATOM     90  C   UNL     1      -3.208   5.601 131.444  0.00  0.00    +0.000 C 
ATOM     91  N   UNL     1      -3.394   7.053 130.284  0.00  0.00    +0.000 N 
ATOM     92  O   UNL     1      -2.111   5.212 131.603  0.00  0.00    +0.000 OA
ATOM     93  H   UNL     1      -4.509   7.336 130.214  0.00  0.00    +0.000 HD
ATOM     94  H   UNL     1      -3.173   7.652 129.530  0.00  0.00    +0.000 HD
ENDBRANCH  89  90
ENDBRANCH  24  89
TORSDOF 20
ENDMDL
MODEL 3
REMARK VINA RESULT:     -10.3      1.571      2.499
REMARK  Name = CHEMBL1790712
REMARK  24 active torsions:
REMARK  status: ('A' for Active; 'I' for Inactive)
REMARK    1  A    between atoms: C_1  and  C_2
REMARK    2  A    between atoms: C_2  and  C_3
REMARK    3  A    between atoms: C_3  and  C_4
REMARK    4  A    between atoms: C_3  and  C_5
REMARK    5  A    between atoms: C_9  and  C_10
REMARK    6  A    between atoms: C_9  and  C_11
REMARK    7  A    between atoms: C_14  and  O_15
REMARK    8  A    between atoms: C_31  and  C_32
REMARK    9  A    between atoms: C_38  and  C_39
REMARK   10  A    between atoms: N_41  and  C_42
REMARK   11  A    between atoms: C_42  and  C_43
REMARK   12  A    between atoms: C_42  and  C_47
REMARK   13  A    between atoms: C_43  and  C_44
REMARK   14  A    between atoms: C_44  and  C_45
REMARK   15  A    between atoms: C_45  and  N_46
REMARK   16  A    between atoms: N_49  and  C_50
REMARK   17  A    between atoms: C_50  and  C_51
REMARK   18  A    between atoms: C_50  and  C_54
REMARK   19  A    between atoms: C_57  and  O_58
REMARK   20  A    between atoms: C_64  and  C_65
REMARK   21  A    between atoms: C_65  and  C_66
REMARK   22  A    between atoms: C_72  and  C_73
REMARK   23  A    between atoms: C_73  and  C_74
REMARK   24  A    between atoms: C_73  and  O_75
REMARK                            x       y       z     vdW  Elec       q    Type
REMARK                         _______ _______ _______ _____ _____    ______ ____
ROOT
ATOM      1  C   UNL     1      -6.022   8.137 137.566  0.00  0.00    +0.000 C 
ATOM      2  N   UNL     1      -4.190   8.287 136.856  0.00  0.00    +0.000 N 
ATOM      3  C   UNL     1      -2.926   9.476 136.783  0.00  0.00    +0.000 C 
ATOM      4  O   UNL     1      -3.754  10.346 137.156  0.00  0.00    +0.000 OA
ATOM      5  C   UNL     1      -1.345  10.385 135.834  0.00  0.00    +0.000 C 
ATOM      6  C   UNL     1      -0.721  10.844 137.164  0.00  0.00    +0.000 C 
ATOM      7  N   UNL     1      -2.128  11.290 135.000  0.00  0.00    +0.000 N 
ATOM      8  C   UNL     1      -2.561  11.092 133.691  0.00  0.00    +0.000 C 
ATOM      9  O   UNL     1      -3.100  12.050 133.126  0.00  0.00    +0.000 OA
ATOM     10  C   UNL     1      -2.395   9.707 132.857  0.00  0.00    +0.000 C 
ATOM     11  C   UNL     1      -1.588   8.490 133.536  0.00  0.00    +0.000 C 
ATOM     12  C   UNL     1      -2.323   8.171 134.768  0.00  0.00    +0.000 C 
ATOM     13  C   UNL     1      -1.371   7.326 135.956  0.00  0.00    +0.000 C 
ATOM     14  C   UNL     1      -0.004   7.737 136.337  0.00  0.00    +0.000 C 
ATOM     15  C   UNL     1       0.668   7.811 135.072  0.00  0.00    +0.000 C 
ATOM     16  C   UNL     1      -0.261   8.556 134.164  0.00  0.00    +0.000 C 
ATOM     17  S   UNL     1      -0.947   7.225 132.662  0.00  0.00    +0.000 S 
ATOM     18  S   UNL     1      -2.262   5.656 133.960  0.00  0.00    +0.000 S 
ATOM     19  C   UNL     1      -2.822   3.801 132.461  0.00  0.00    +0.000 C 
ATOM     20  C   UNL     1      -4.069   3.169 132.427  0.00  0.00    +0.000 C 
ATOM     21  N   UNL     1      -4.253   2.968 133.782  0.00  0.00    +0.000 N 
ATOM     22  C   UNL     1      -4.808   3.970 134.509  0.00  0.00    +0.000 C 
ATOM     23  O   UNL     1      -5.242   3.580 135.607  0.00  0.00    +0.000 OA
ATOM     24  C   UNL     1      -4.666   5.530 134.030  0.00  0.00    +0.000 C 
ATOM     25  N   UNL     1      -5.763   6.234 134.480  0.00  0.00    +0.000 N 
ATOM     26  C   UNL     1      -6.080   6.154 135.790  0.00  0.00    +0.000 C 
ATOM     27  O   UNL     1      -7.248   6.542 135.933  0.00  0.00    +0.000 OA
ATOM     28  C   UNL     1      -4.930   5.633 137.122  0.00  0.00    +0.000 C 
ATOM     29  N   UNL     1      -4.558   6.568 138.408  0.00  0.00    +0.000 N 
ATOM     30  C   UNL     1      -5.234   7.733 138.741  0.00  0.00    +0.000 C 
ATOM     31  O   UNL     1      -5.010   8.472 139.685  0.00  0.00    +0.000 OA
ATOM     32  H   UNL     1      -3.977   7.570 136.165  0.00  0.00    +0.000 HD
ATOM     33  H   UNL     1      -2.179  12.220 135.381  0.00  0.00    +0.000 HD
ATOM     34  H   UNL     1      -3.935   2.101 134.185  0.00  0.00    +0.000 HD
ATOM     35  H   UNL     1      -6.370   6.717 133.838  0.00  0.00    +0.000 HD
ATOM     36  H   UNL     1      -3.699   7.067 138.176  0.00  0.00    +0.000 HD
ENDROOT
BRANCH  20  37
ATOM     37  C   UNL     1      -5.168   3.806 131.571  0.00  0.00    +0.000 C 
ATOM     38  O   UNL     1      -4.977   4.679 130.717  0.00  0.00    +0.000 OA
ATOM     39  N   UNL     1      -6.414   3.350 131.856  0.00  0.00    +0.000 N 
ATOM     40  C   UNL     1      -6.911   2.661 133.019  0.00  0.00    +0.000 C 
ATOM     41  C   UNL     1      -7.527   1.455 132.437  0.00  0.00    +0.000 C 
ATOM     42  C   UNL     1      -8.215   2.064 131.227  0.00  0.00    +0.000 C 
ATOM     43  C   UNL     1      -7.361   3.279 130.792  0.00  0.00    +0.000 C 
BRANCH  43  44
ATOM     44  C   UNL     1      -6.733   3.102 129.423  0.00  0.00    +0.000 C 
ATOM     45  O   UNL     1      -5.780   2.380 129.150  0.00  0.00    +0.000 OA
ATOM     46  N   UNL     1      -7.388   3.807 128.456  0.00  0.00    +0.000 N 
ATOM     47  H   UNL     1      -8.144   4.434 128.684  0.00  0.00    +0.000 HD
BRANCH  46  48
ATOM     48  C   UNL     1      -7.342   3.261 127.146  0.00  0.00    +0.000 C 
BRANCH  48  49
ATOM     49  C   UNL     1      -7.864   4.363 126.089  0.00  0.00    +0.000 C 
ATOM     50  O   UNL     1      -8.509   5.343 126.483  0.00  0.00    +0.000 OA
ATOM     51  N   UNL     1      -7.677   4.230 124.722  0.00  0.00    +0.000 N 
ATOM     52  H   UNL     1      -7.963   5.023 124.152  0.00  0.00    +0.000 HD
BRANCH  51  53
ATOM     53  C   UNL     1      -6.864   3.237 124.000  0.00  0.00    +0.000 C 
BRANCH  53  54
ATOM     54  C   UNL     1      -7.643   1.964 123.702  0.00  0.00    +0.000 A 
ATOM     55  C   UNL     1      -7.039   0.702 123.539  0.00  0.00    +0.000 A 
ATOM     56  C   UNL     1      -7.750  -0.472 123.314  0.00  0.00    +0.000 A 
ATOM     57  C   UNL     1      -9.113  -0.383 123.148  0.00  0.00    +0.000 A 
ATOM     58  C   UNL     1      -9.746   0.852 123.226  0.00  0.00    +0.000 A 
ATOM     59  C   UNL     1      -9.025   2.016 123.519  0.00  0.00    +0.000 A 
BRANCH  57  60
ATOM     60  O   UNL     1      -9.883  -1.473 122.880  0.00  0.00    +0.000 OA
ATOM     61  H   UNL     1      -9.793  -2.119 123.600  0.00  0.00    +0.000 HD
ENDBRANCH  57  60
ENDBRANCH  53  54
BRANCH  53  62
ATOM     62  C   UNL     1      -6.118   3.917 122.842  0.00  0.00    +0.000 C 
ATOM     63  N   UNL     1      -6.540   3.499 121.564  0.00  0.00    +0.000 N 
ATOM     64  O   UNL     1      -5.152   4.661 122.980  0.00  0.00    +0.000 OA
ATOM     65  H   UNL     1      -5.790   3.558 120.872  0.00  0.00    +0.000 HD
ATOM     66  H   UNL     1      -6.931   2.554 121.540  0.00  0.00    +0.000 HD
ENDBRANCH  53  62
ENDBRANCH  51  53
ENDBRANCH  48  49
BRANCH  48  67
ATOM     67  C   UNL     1      -8.156   1.997 127.184  0.00  0.00    +0.000 C 
BRANCH  67  68
ATOM     68  C   UNL     1      -7.726   0.582 126.995  0.00  0.00    +0.000 C 
BRANCH  68  69
ATOM     69  C   UNL     1      -7.767  -0.262 128.243  0.00  0.00    +0.000 C 
BRANCH  69  70
ATOM     70  N   UNL     1      -6.363  -0.455 128.559  0.00  0.00    +0.000 NA
ATOM     71  H   UNL     1      -6.144  -1.441 128.385  0.00  0.00    +0.000 HD
ATOM     72  H   UNL     1      -6.213  -0.282 129.544  0.00  0.00    +0.000 HD
ENDBRANCH  69  70
ENDBRANCH  68  69
ENDBRANCH  67  68
ENDBRANCH  48  67
ENDBRANCH  46  48
ENDBRANCH  43  44
ENDBRANCH  20  37
BRANCH   5  73
ATOM     73  C   UNL     1       0.300  10.776 134.738  0.00  0.00    +0.000 A 
ATOM     74  C   UNL     1       1.936  10.885 135.340  0.00  0.00    +0.000 A 
ATOM     75  C   UNL     1       2.918  12.033 135.178  0.00  0.00    +0.000 A 
ATOM     76  C   UNL     1       2.612  12.847 134.111  0.00  0.00    +0.000 A 
ATOM     77  C   UNL     1       1.391  12.632 133.330  0.00  0.00    +0.000 A 
ATOM     78  C   UNL     1       0.234  11.687 133.636  0.00  0.00    +0.000 A 
BRANCH  76  79
ATOM     79  O   UNL     1       3.464  13.874 133.801  0.00  0.00    +0.000 OA
ATOM     80  H   UNL     1       3.577  14.412 134.610  0.00  0.00    +0.000 HD
ENDBRANCH  76  79
ENDBRANCH   5  73
BRANCH   1  81
ATOM     81  C   UNL     1      -7.600   7.841 138.720  0.00  0.00    +0.000 C 
ATOM     82  C   UNL     1      -8.808   8.526 138.113  0.00  0.00    +0.000 C 
BRANCH  81  84
ATOM     83  C   UNL     1      -7.528   5.629 140.098  0.00  0.00    +0.000 C 
ATOM     84  C   UNL     1      -8.420   6.332 139.139  0.00  0.00    +0.000 C 
ENDBRANCH  81  84
ENDBRANCH   1  81
BRANCH  28  85
ATOM     85  C   UNL     1      -3.471   5.193 136.721  0.00  0.00    +0.000 C 
ATOM     86  C   UNL     1      -2.424   5.543 137.693  0.00  0.00    +0.000 C 
BRANCH  85  87
ATOM     87  O   UNL     1      -2.937   3.932 136.413  0.00  0.00    +0.000 OA
ATOM     88  H   UNL     1      -2.428   4.060 135.605  0.00  0.00    +0.000 HD
ENDBRANCH  85  87
ENDBRANCH  28  85
BRANCH  24  89
ATOM     89  C   UNL     1      -4.044   5.996 132.462  0.00  0.00    +0.000 C 
BRANCH  89  90
ATOM     90  C   UNL     1      -4.779   7.286 131.069  0.00  0.00    +0.000 C 
ATOM     91  N   UNL     1      -6.632   7.321 130.833  0.00  0.00    +0.000 N 
ATOM     92  O   UNL     1      -4.169   8.068 130.440  0.00  0.00    +0.000 OA
ATOM     93  H   UNL     1      -7.110   6.512 131.500  0.00  0.00    +0.000 HD
ATOM     94  H   UNL     1      -7.490   7.472 130.365  0.00  0.00    +0.000 HD
ENDBRANCH  89  90
ENDBRANCH  24  89
TORSDOF 20
ENDMDL
MODEL 4
REMARK VINA RESULT:      -9.8      1.322      1.643
REMARK  Name = CHEMBL1790712
REMARK  24 active torsions:
REMARK  status: ('A' for Active; 'I' for Inactive)
REMARK    1  A    between atoms: C_1  and  C_2
REMARK    2  A    between atoms: C_2  and  C_3
REMARK    3  A    between atoms: C_3  and  C_4
REMARK    4  A    between atoms: C_3  and  C_5
REMARK    5  A    between atoms: C_9  and  C_10
REMARK    6  A    between atoms: C_9  and  C_11
REMARK    7  A    between atoms: C_14  and  O_15
REMARK    8  A    between atoms: C_31  and  C_32
REMARK    9  A    between atoms: C_38  and  C_39
REMARK   10  A    between atoms: N_41  and  C_42
REMARK   11  A    between atoms: C_42  and  C_43
REMARK   12  A    between atoms: C_42  and  C_47
REMARK   13  A    between atoms: C_43  and  C_44
REMARK   14  A    between atoms: C_44  and  C_45
REMARK   15  A    between atoms: C_45  and  N_46
REMARK   16  A    between atoms: N_49  and  C_50
REMARK   17  A    between atoms: C_50  and  C_51
REMARK   18  A    between atoms: C_50  and  C_54
REMARK   19  A    between atoms: C_57  and  O_58
REMARK   20  A    between atoms: C_64  and  C_65
REMARK   21  A    between atoms: C_65  and  C_66
REMARK   22  A    between atoms: C_72  and  C_73
REMARK   23  A    between atoms: C_73  and  C_74
REMARK   24  A    between atoms: C_73  and  O_75
REMARK                            x       y       z     vdW  Elec       q    Type
REMARK                         _______ _______ _______ _____ _____    ______ ____
ROOT
ATOM      1  C   UNL     1      -6.143   8.132 137.358  0.00  0.00    +0.000 C 
ATOM      2  N   UNL     1      -4.288   8.249 136.703  0.00  0.00    +0.000 N 
ATOM      3  C   UNL     1      -3.008   9.423 136.652  0.00  0.00    +0.000 C 
ATOM      4  O   UNL     1      -3.836  10.307 136.985  0.00  0.00    +0.000 OA
ATOM      5  C   UNL     1      -1.386  10.297 135.739  0.00  0.00    +0.000 C 
ATOM      6  C   UNL     1      -0.799  10.770 137.080  0.00  0.00    +0.000 C 
ATOM      7  N   UNL     1      -2.132  11.198 134.867  0.00  0.00    +0.000 N 
ATOM      8  C   UNL     1      -2.527  10.985 133.548  0.00  0.00    +0.000 C 
ATOM      9  O   UNL     1      -3.036  11.940 132.952  0.00  0.00    +0.000 OA
ATOM     10  C   UNL     1      -2.352   9.585 132.741  0.00  0.00    +0.000 C 
ATOM     11  C   UNL     1      -1.581   8.370 133.464  0.00  0.00    +0.000 C 
ATOM     12  C   UNL     1      -2.358   8.079 134.677  0.00  0.00    +0.000 C 
ATOM     13  C   UNL     1      -1.454   7.242 135.907  0.00  0.00    +0.000 C 
ATOM     14  C   UNL     1      -0.095   7.643 136.324  0.00  0.00    +0.000 C 
ATOM     15  C   UNL     1       0.618   7.688 135.080  0.00  0.00    +0.000 C 
ATOM     16  C   UNL     1      -0.274   8.430 134.132  0.00  0.00    +0.000 C 
ATOM     17  S   UNL     1      -0.929   7.084 132.630  0.00  0.00    +0.000 S 
ATOM     18  S   UNL     1      -2.303   5.551 133.909  0.00  0.00    +0.000 S 
ATOM     19  C   UNL     1      -2.838   3.679 132.423  0.00  0.00    +0.000 C 
ATOM     20  C   UNL     1      -4.091   3.061 132.359  0.00  0.00    +0.000 C 
ATOM     21  N   UNL     1      -4.319   2.884 133.710  0.00  0.00    +0.000 N 
ATOM     22  C   UNL     1      -4.884   3.903 134.404  0.00  0.00    +0.000 C 
ATOM     23  O   UNL     1      -5.357   3.536 135.494  0.00  0.00    +0.000 OA
ATOM     24  C   UNL     1      -4.709   5.454 133.907  0.00  0.00    +0.000 C 
ATOM     25  N   UNL     1      -5.811   6.178 134.311  0.00  0.00    +0.000 N 
ATOM     26  C   UNL     1      -6.169   6.122 135.611  0.00  0.00    +0.000 C 
ATOM     27  O   UNL     1      -7.336   6.525 135.712  0.00  0.00    +0.000 OA
ATOM     28  C   UNL     1      -5.068   5.609 136.986  0.00  0.00    +0.000 C 
ATOM     29  N   UNL     1      -4.724   6.559 138.269  0.00  0.00    +0.000 N 
ATOM     30  C   UNL     1      -5.397   7.737 138.562  0.00  0.00    +0.000 C 
ATOM     31  O   UNL     1      -5.193   8.488 139.502  0.00  0.00    +0.000 OA
ATOM     32  H   UNL     1      -4.062   7.519 136.031  0.00  0.00    +0.000 HD
ATOM     33  H   UNL     1      -2.183  12.135 135.231  0.00  0.00    +0.000 HD
ATOM     34  H   UNL     1      -4.025   2.019 134.137  0.00  0.00    +0.000 HD
ATOM     35  H   UNL     1      -6.392   6.657 133.643  0.00  0.00    +0.000 HD
ATOM     36  H   UNL     1      -3.853   7.045 138.056  0.00  0.00    +0.000 HD
ENDROOT
BRANCH  20  37
ATOM     37  C   UNL     1      -5.155   3.698 131.459  0.00  0.00    +0.000 C 
ATOM     38  O   UNL     1      -4.928   4.560 130.604  0.00  0.00    +0.000 OA
ATOM     39  N   UNL     1      -6.414   3.254 131.706  0.00  0.00    +0.000 N 
ATOM     40  C   UNL     1      -6.956   2.581 132.859  0.00  0.00    +0.000 C 
ATOM     41  C   UNL     1      -7.561   1.373 132.268  0.00  0.00    +0.000 C 
ATOM     42  C   UNL     1      -8.202   1.975 131.029  0.00  0.00    +0.000 C 
ATOM     43  C   UNL     1      -7.324   3.179 130.611  0.00  0.00    +0.000 C 
BRANCH  43  44
ATOM     44  C   UNL     1      -6.651   2.982 129.267  0.00  0.00    +0.000 C 
ATOM     45  O   UNL     1      -6.266   3.868 128.511  0.00  0.00    +0.000 OA
ATOM     46  N   UNL     1      -6.448   1.665 128.976  0.00  0.00    +0.000 N 
ATOM     47  H   UNL     1      -6.802   0.934 129.573  0.00  0.00    +0.000 HD
BRANCH  46  48
ATOM     48  C   UNL     1      -5.330   1.373 128.151  0.00  0.00    +0.000 C 
BRANCH  48  49
ATOM     49  C   UNL     1      -5.738   0.240 127.078  0.00  0.00    +0.000 C 
ATOM     50  O   UNL     1      -5.255  -0.897 127.163  0.00  0.00    +0.000 OA
ATOM     51  N   UNL     1      -6.572   0.498 126.002  0.00  0.00    +0.000 N 
ATOM     52  H   UNL     1      -6.840  -0.306 125.439  0.00  0.00    +0.000 HD
BRANCH  51  53
ATOM     53  C   UNL     1      -7.361   1.711 125.724  0.00  0.00    +0.000 C 
BRANCH  53  54
ATOM     54  C   UNL     1      -6.719   2.580 124.652  0.00  0.00    +0.000 A 
ATOM     55  C   UNL     1      -5.934   3.714 124.937  0.00  0.00    +0.000 A 
ATOM     56  C   UNL     1      -5.305   4.485 123.964  0.00  0.00    +0.000 A 
ATOM     57  C   UNL     1      -5.539   4.177 122.644  0.00  0.00    +0.000 A 
ATOM     58  C   UNL     1      -6.367   3.112 122.311  0.00  0.00    +0.000 A 
ATOM     59  C   UNL     1      -6.940   2.306 123.303  0.00  0.00    +0.000 A 
BRANCH  57  60
ATOM     60  O   UNL     1      -5.003   4.903 121.625  0.00  0.00    +0.000 OA
ATOM     61  H   UNL     1      -5.572   5.667 121.436  0.00  0.00    +0.000 HD
ENDBRANCH  57  60
ENDBRANCH  53  54
BRANCH  53  62
ATOM     62  C   UNL     1      -8.844   1.344 125.566  0.00  0.00    +0.000 C 
ATOM     63  N   UNL     1      -9.135  -0.003 125.861  0.00  0.00    +0.000 N 
ATOM     64  O   UNL     1      -9.700   2.093 125.104  0.00  0.00    +0.000 OA
ATOM     65  H   UNL     1      -9.937  -0.349 125.331  0.00  0.00    +0.000 HD
ATOM     66  H   UNL     1      -8.350  -0.643 125.716  0.00  0.00    +0.000 HD
ENDBRANCH  53  62
ENDBRANCH  51  53
ENDBRANCH  48  49
BRANCH  48  67
ATOM     67  C   UNL     1      -4.210   0.983 129.076  0.00  0.00    +0.000 C 
BRANCH  67  68
ATOM     68  C   UNL     1      -4.264   0.321 130.412  0.00  0.00    +0.000 C 
BRANCH  68  69
ATOM     69  C   UNL     1      -4.584  -1.151 130.373  0.00  0.00    +0.000 C 
BRANCH  69  70
ATOM     70  N   UNL     1      -3.489  -1.708 129.598  0.00  0.00    +0.000 NA
ATOM     71  H   UNL     1      -2.776  -2.024 130.262  0.00  0.00    +0.000 HD
ATOM     72  H   UNL     1      -3.074  -0.979 129.033  0.00  0.00    +0.000 HD
ENDBRANCH  69  70
ENDBRANCH  68  69
ENDBRANCH  67  68
ENDBRANCH  48  67
ENDBRANCH  46  48
ENDBRANCH  43  44
ENDBRANCH  20  37
BRANCH   5  73
ATOM     73  C   UNL     1       0.296  10.652 134.689  0.00  0.00    +0.000 A 
ATOM     74  C   UNL     1       1.912  10.770 135.342  0.00  0.00    +0.000 A 
ATOM     75  C   UNL     1       2.905  11.909 135.183  0.00  0.00    +0.000 A 
ATOM     76  C   UNL     1       2.640  12.695 134.086  0.00  0.00    +0.000 A 
ATOM     77  C   UNL     1       1.444  12.465 133.270  0.00  0.00    +0.000 A 
ATOM     78  C   UNL     1       0.272  11.534 133.561  0.00  0.00    +0.000 A 
BRANCH  76  79
ATOM     79  O   UNL     1       3.507  13.710 133.778  0.00  0.00    +0.000 OA
ATOM     80  H   UNL     1       2.980  14.531 133.709  0.00  0.00    +0.000 HD
ENDBRANCH  76  79
ENDBRANCH   5  73
BRANCH   1  81
ATOM     81  C   UNL     1      -7.759   7.872 138.466  0.00  0.00    +0.000 C 
ATOM     82  C   UNL     1      -8.949   8.520 137.786  0.00  0.00    +0.000 C 
BRANCH  81  84
ATOM     83  C   UNL     1      -7.731   5.733 139.955  0.00  0.00    +0.000 C 
ATOM     84  C   UNL     1      -8.583   6.376 138.921  0.00  0.00    +0.000 C 
ENDBRANCH  81  84
ENDBRANCH   1  81
BRANCH  28  85
ATOM     85  C   UNL     1      -3.602   5.146 136.639  0.00  0.00    +0.000 C 
ATOM     86  C   UNL     1      -2.585   5.486 137.643  0.00  0.00    +0.000 C 
BRANCH  85  87
ATOM     87  O   UNL     1      -3.076   3.875 136.355  0.00  0.00    +0.000 OA
ATOM     88  H   UNL     1      -2.377   3.737 137.003  0.00  0.00    +0.000 HD
ENDBRANCH  85  87
ENDBRANCH  28  85
BRANCH  24  89
ATOM     89  C   UNL     1      -4.032   5.888 132.352  0.00  0.00    +0.000 C 
BRANCH  89  90
ATOM     90  C   UNL     1      -4.675   7.211 130.944  0.00  0.00    +0.000 C 
ATOM     91  N   UNL     1      -3.406   7.853 129.733  0.00  0.00    +0.000 N 
ATOM     92  O   UNL     1      -5.780   7.566 130.762  0.00  0.00    +0.000 OA
ATOM     93  H   UNL     1      -2.371   7.435 130.019  0.00  0.00    +0.000 HD
ATOM     94  H   UNL     1      -2.998   8.476 129.083  0.00  0.00    +0.000 HD
ENDBRANCH  89  90
ENDBRANCH  24  89
TORSDOF 20
ENDMDL
MODEL 5
REMARK VINA RESULT:      -9.7      3.481     11.391
REMARK  Name = CHEMBL1790712
REMARK  24 active torsions:
REMARK  status: ('A' for Active; 'I' for Inactive)
REMARK    1  A    between atoms: C_1  and  C_2
REMARK    2  A    between atoms: C_2  and  C_3
REMARK    3  A    between atoms: C_3  and  C_4
REMARK    4  A    between atoms: C_3  and  C_5
REMARK    5  A    between atoms: C_9  and  C_10
REMARK    6  A    between atoms: C_9  and  C_11
REMARK    7  A    between atoms: C_14  and  O_15
REMARK    8  A    between atoms: C_31  and  C_32
REMARK    9  A    between atoms: C_38  and  C_39
REMARK   10  A    between atoms: N_41  and  C_42
REMARK   11  A    between atoms: C_42  and  C_43
REMARK   12  A    between atoms: C_42  and  C_47
REMARK   13  A    between atoms: C_43  and  C_44
REMARK   14  A    between atoms: C_44  and  C_45
REMARK   15  A    between atoms: C_45  and  N_46
REMARK   16  A    between atoms: N_49  and  C_50
REMARK   17  A    between atoms: C_50  and  C_51
REMARK   18  A    between atoms: C_50  and  C_54
REMARK   19  A    between atoms: C_57  and  O_58
REMARK   20  A    between atoms: C_64  and  C_65
REMARK   21  A    between atoms: C_65  and  C_66
REMARK   22  A    between atoms: C_72  and  C_73
REMARK   23  A    between atoms: C_73  and  C_74
REMARK   24  A    between atoms: C_73  and  O_75
REMARK                            x       y       z     vdW  Elec       q    Type
REMARK                         _______ _______ _______ _____ _____    ______ ____
ROOT
ATOM      1  C   UNL     1      -9.514   4.420 131.490  0.00  0.00    +0.000 C 
ATOM      2  N   UNL     1      -8.013   3.157 131.299  0.00  0.00    +0.000 N 
ATOM      3  C   UNL     1      -7.744   1.444 131.414  0.00  0.00    +0.000 C 
ATOM      4  O   UNL     1      -8.879   1.324 131.941  0.00  0.00    +0.000 OA
ATOM      5  C   UNL     1      -6.578  -0.179 131.896  0.00  0.00    +0.000 C 
ATOM      6  C   UNL     1      -7.290  -1.082 130.875  0.00  0.00    +0.000 C 
ATOM      7  N   UNL     1      -6.903  -0.221 133.318  0.00  0.00    +0.000 N 
ATOM      8  C   UNL     1      -6.208   0.360 134.375  0.00  0.00    +0.000 C 
ATOM      9  O   UNL     1      -6.589   0.086 135.518  0.00  0.00    +0.000 OA
ATOM     10  C   UNL     1      -4.932   1.355 134.213  0.00  0.00    +0.000 C 
ATOM     11  C   UNL     1      -4.349   1.626 132.736  0.00  0.00    +0.000 C 
ATOM     12  C   UNL     1      -5.461   2.217 131.978  0.00  0.00    +0.000 C 
ATOM     13  C   UNL     1      -5.295   2.062 130.252  0.00  0.00    +0.000 C 
ATOM     14  C   UNL     1      -4.914   0.800 129.587  0.00  0.00    +0.000 C 
ATOM     15  C   UNL     1      -3.707   0.434 130.271  0.00  0.00    +0.000 C 
ATOM     16  C   UNL     1      -3.999   0.615 131.729  0.00  0.00    +0.000 C 
ATOM     17  S   UNL     1      -2.817   2.217 132.460  0.00  0.00    +0.000 S 
ATOM     18  S   UNL     1      -3.756   4.105 131.265  0.00  0.00    +0.000 S 
ATOM     19  C   UNL     1      -2.263   6.005 131.669  0.00  0.00    +0.000 C 
ATOM     20  C   UNL     1      -2.704   7.311 131.912  0.00  0.00    +0.000 C 
ATOM     21  N   UNL     1      -3.619   7.431 130.884  0.00  0.00    +0.000 N 
ATOM     22  C   UNL     1      -4.884   6.990 131.098  0.00  0.00    +0.000 C 
ATOM     23  O   UNL     1      -5.695   7.445 130.273  0.00  0.00    +0.000 OA
ATOM     24  C   UNL     1      -5.187   5.807 132.190  0.00  0.00    +0.000 C 
ATOM     25  N   UNL     1      -6.459   5.981 132.693  0.00  0.00    +0.000 N 
ATOM     26  C   UNL     1      -7.479   6.107 131.817  0.00  0.00    +0.000 C 
ATOM     27  O   UNL     1      -8.448   6.593 132.416  0.00  0.00    +0.000 OA
ATOM     28  C   UNL     1      -7.436   5.566 130.065  0.00  0.00    +0.000 C 
ATOM     29  N   UNL     1      -8.485   4.489 129.428  0.00  0.00    +0.000 N 
ATOM     30  C   UNL     1      -9.636   4.054 130.071  0.00  0.00    +0.000 C 
ATOM     31  O   UNL     1     -10.459   3.259 129.651  0.00  0.00    +0.000 OA
ATOM     32  H   UNL     1      -7.105   3.614 131.352  0.00  0.00    +0.000 HD
ATOM     33  H   UNL     1      -7.605  -0.910 133.534  0.00  0.00    +0.000 HD
ATOM     34  H   UNL     1      -3.305   7.806 130.003  0.00  0.00    +0.000 HD
ATOM     35  H   UNL     1      -6.615   6.107 133.679  0.00  0.00    +0.000 HD
ATOM     36  H   UNL     1      -8.042   3.571 129.483  0.00  0.00    +0.000 HD
ENDROOT
BRANCH  20  37
ATOM     37  C   UNL     1      -3.083   7.679 133.350  0.00  0.00    +0.000 C 
ATOM     38  O   UNL     1      -3.872   7.040 134.055  0.00  0.00    +0.000 OA
ATOM     39  N   UNL     1      -2.494   8.819 133.793  0.00  0.00    +0.000 N 
ATOM     40  C   UNL     1      -1.878   9.896 133.062  0.00  0.00    +0.000 C 
ATOM     41  C   UNL     1      -0.541   9.975 133.677  0.00  0.00    +0.000 C 
ATOM     42  C   UNL     1      -0.909   9.802 135.140  0.00  0.00    +0.000 C 
ATOM     43  C   UNL     1      -2.174   8.910 135.180  0.00  0.00    +0.000 C 
BRANCH  43  44
ATOM     44  C   UNL     1      -1.932   7.569 135.844  0.00  0.00    +0.000 C 
ATOM     45  O   UNL     1      -1.031   6.780 135.578  0.00  0.00    +0.000 OA
ATOM     46  N   UNL     1      -2.813   7.324 136.856  0.00  0.00    +0.000 N 
ATOM     47  H   UNL     1      -3.581   7.949 137.048  0.00  0.00    +0.000 HD
BRANCH  46  48
ATOM     48  C   UNL     1      -2.339   6.502 137.912  0.00  0.00    +0.000 C 
BRANCH  48  49
ATOM     49  C   UNL     1      -3.595   5.854 138.691  0.00  0.00    +0.000 C 
ATOM     50  O   UNL     1      -3.551   4.675 139.065  0.00  0.00    +0.000 OA
ATOM     51  N   UNL     1      -4.774   6.549 138.911  0.00  0.00    +0.000 N 
ATOM     52  H   UNL     1      -5.467   6.082 139.491  0.00  0.00    +0.000 HD
BRANCH  51  53
ATOM     53  C   UNL     1      -5.056   7.975 138.674  0.00  0.00    +0.000 C 
BRANCH  53  54
ATOM     54  C   UNL     1      -6.462   8.201 138.139  0.00  0.00    +0.000 A 
ATOM     55  C   UNL     1      -7.042   9.475 137.989  0.00  0.00    +0.000 A 
ATOM     56  C   UNL     1      -8.309   9.691 137.456  0.00  0.00    +0.000 A 
ATOM     57  C   UNL     1      -9.076   8.592 137.143  0.00  0.00    +0.000 A 
ATOM     58  C   UNL     1      -8.575   7.311 137.343  0.00  0.00    +0.000 A 
ATOM     59  C   UNL     1      -7.273   7.112 137.819  0.00  0.00    +0.000 A 
BRANCH  57  60
ATOM     60  O   UNL     1     -10.343   8.707 136.659  0.00  0.00    +0.000 OA
ATOM     61  H   UNL     1     -10.341   8.543 135.702  0.00  0.00    +0.000 HD
ENDBRANCH  57  60
ENDBRANCH  53  54
BRANCH  53  62
ATOM     62  C   UNL     1      -4.599   8.805 139.883  0.00  0.00    +0.000 C 
ATOM     63  N   UNL     1      -5.154   8.385 141.109  0.00  0.00    +0.000 N 
ATOM     64  O   UNL     1      -3.918   9.823 139.810  0.00  0.00    +0.000 OA
ATOM     65  H   UNL     1      -5.248   9.156 141.774  0.00  0.00    +0.000 HD
ATOM     66  H   UNL     1      -6.061   7.921 141.021  0.00  0.00    +0.000 HD
ENDBRANCH  53  62
ENDBRANCH  51  53
ENDBRANCH  48  49
BRANCH  48  67
ATOM     67  C   UNL     1      -1.457   7.373 138.764  0.00  0.00    +0.000 C 
BRANCH  67  68
ATOM     68  C   UNL     1       0.003   7.263 139.046  0.00  0.00    +0.000 C 
BRANCH  68  69
ATOM     69  C   UNL     1       0.589   5.894 138.813  0.00  0.00    +0.000 C 
BRANCH  69  70
ATOM     70  N   UNL     1       1.165   6.002 137.485  0.00  0.00    +0.000 NA
ATOM     71  H   UNL     1       0.612   6.693 136.968  0.00  0.00    +0.000 HD
ATOM     72  H   UNL     1       1.068   5.118 137.004  0.00  0.00    +0.000 HD
ENDBRANCH  69  70
ENDBRANCH  68  69
ENDBRANCH  67  68
ENDBRANCH  48  67
ENDBRANCH  46  48
ENDBRANCH  43  44
ENDBRANCH  20  37
BRANCH   5  73
ATOM     73  C   UNL     1      -5.044  -1.450 132.196  0.00  0.00    +0.000 A 
ATOM     74  C   UNL     1      -4.508  -2.695 131.094  0.00  0.00    +0.000 A 
ATOM     75  C   UNL     1      -4.329  -4.178 131.374  0.00  0.00    +0.000 A 
ATOM     76  C   UNL     1      -4.176  -4.451 132.714  0.00  0.00    +0.000 A 
ATOM     77  C   UNL     1      -4.296  -3.387 133.715  0.00  0.00    +0.000 A 
ATOM     78  C   UNL     1      -4.766  -1.951 133.508  0.00  0.00    +0.000 A 
BRANCH  76  79
ATOM     79  O   UNL     1      -3.924  -5.742 133.098  0.00  0.00    +0.000 OA
ATOM     80  H   UNL     1      -2.964  -5.895 132.989  0.00  0.00    +0.000 HD
ENDBRANCH  76  79
ENDBRANCH   5  73
BRANCH   1  81
ATOM     81  C   UNL     1     -11.088   5.570 131.167  0.00  0.00    +0.000 C 
ATOM     82  C   UNL     1     -11.398   6.369 132.417  0.00  0.00    +0.000 C 
BRANCH  81  84
ATOM     83  C   UNL     1     -12.345   6.474 129.070  0.00  0.00    +0.000 C 
ATOM     84  C   UNL     1     -11.292   6.904 130.026  0.00  0.00    +0.000 C 
ENDBRANCH  81  84
ENDBRANCH   1  81
BRANCH  28  85
ATOM     85  C   UNL     1      -6.098   4.950 129.504  0.00  0.00    +0.000 C 
ATOM     86  C   UNL     1      -6.271   3.887 128.503  0.00  0.00    +0.000 C 
BRANCH  85  87
ATOM     87  O   UNL     1      -5.003   5.548 128.860  0.00  0.00    +0.000 OA
ATOM     88  H   UNL     1      -4.305   4.885 128.873  0.00  0.00    +0.000 HD
ENDBRANCH  85  87
ENDBRANCH  28  85
BRANCH  24  89
ATOM     89  C   UNL     1      -3.986   5.222 133.322  0.00  0.00    +0.000 C 
BRANCH  89  90
ATOM     90  C   UNL     1      -4.191   4.429 135.186  0.00  0.00    +0.000 C 
ATOM     91  N   UNL     1      -5.896   4.468 135.947  0.00  0.00    +0.000 N 
ATOM     92  O   UNL     1      -3.363   3.881 135.814  0.00  0.00    +0.000 OA
ATOM     93  H   UNL     1      -6.610   5.030 135.238  0.00  0.00    +0.000 HD
ATOM     94  H   UNL     1      -6.575   4.470 136.666  0.00  0.00    +0.000 HD
ENDBRANCH  89  90
ENDBRANCH  24  89
TORSDOF 20
ENDMDL
MODEL 6
REMARK VINA RESULT:      -8.1      3.159      5.512
REMARK  Name = CHEMBL1790712
REMARK  24 active torsions:
REMARK  status: ('A' for Active; 'I' for Inactive)
REMARK    1  A    between atoms: C_1  and  C_2
REMARK    2  A    between atoms: C_2  and  C_3
REMARK    3  A    between atoms: C_3  and  C_4
REMARK    4  A    between atoms: C_3  and  C_5
REMARK    5  A    between atoms: C_9  and  C_10
REMARK    6  A    between atoms: C_9  and  C_11
REMARK    7  A    between atoms: C_14  and  O_15
REMARK    8  A    between atoms: C_31  and  C_32
REMARK    9  A    between atoms: C_38  and  C_39
REMARK   10  A    between atoms: N_41  and  C_42
REMARK   11  A    between atoms: C_42  and  C_43
REMARK   12  A    between atoms: C_42  and  C_47
REMARK   13  A    between atoms: C_43  and  C_44
REMARK   14  A    between atoms: C_44  and  C_45
REMARK   15  A    between atoms: C_45  and  N_46
REMARK   16  A    between atoms: N_49  and  C_50
REMARK   17  A    between atoms: C_50  and  C_51
REMARK   18  A    between atoms: C_50  and  C_54
REMARK   19  A    between atoms: C_57  and  O_58
REMARK   20  A    between atoms: C_64  and  C_65
REMARK   21  A    between atoms: C_65  and  C_66
REMARK   22  A    between atoms: C_72  and  C_73
REMARK   23  A    between atoms: C_73  and  C_74
REMARK   24  A    between atoms: C_73  and  O_75
REMARK                            x       y       z     vdW  Elec       q    Type
REMARK                         _______ _______ _______ _____ _____    ______ ____
ROOT
ATOM      1  C   UNL     1      -5.876  10.620 139.443  0.00  0.00    +0.000 C 
ATOM      2  N   UNL     1      -3.991  10.356 138.929  0.00  0.00    +0.000 N 
ATOM      3  C   UNL     1      -2.721  11.266 138.170  0.00  0.00    +0.000 C 
ATOM      4  O   UNL     1      -3.572  12.123 137.823  0.00  0.00    +0.000 OA
ATOM      5  C   UNL     1      -1.063  11.403 136.961  0.00  0.00    +0.000 C 
ATOM      6  C   UNL     1      -0.547  12.654 137.693  0.00  0.00    +0.000 C 
ATOM      7  N   UNL     1      -1.772  11.496 135.689  0.00  0.00    +0.000 N 
ATOM      8  C   UNL     1      -2.099  10.465 134.812  0.00  0.00    +0.000 C 
ATOM      9  O   UNL     1      -2.587  10.787 133.723  0.00  0.00    +0.000 OA
ATOM     10  C   UNL     1      -1.873   8.884 135.112  0.00  0.00    +0.000 C 
ATOM     11  C   UNL     1      -1.129   8.456 136.474  0.00  0.00    +0.000 C 
ATOM     12  C   UNL     1      -1.963   8.989 137.560  0.00  0.00    +0.000 C 
ATOM     13  C   UNL     1      -1.113   9.183 139.068  0.00  0.00    +0.000 C 
ATOM     14  C   UNL     1       0.220   9.811 139.169  0.00  0.00    +0.000 C 
ATOM     15  C   UNL     1       0.993   9.068 138.216  0.00  0.00    +0.000 C 
ATOM     16  C   UNL     1       0.143   8.984 136.985  0.00  0.00    +0.000 C 
ATOM     17  S   UNL     1      -0.425   6.962 136.694  0.00  0.00    +0.000 S 
ATOM     18  S   UNL     1      -1.848   6.571 138.617  0.00  0.00    +0.000 S 
ATOM     19  C   UNL     1      -2.292   4.162 138.683  0.00  0.00    +0.000 C 
ATOM     20  C   UNL     1      -3.536   3.603 138.995  0.00  0.00    +0.000 C 
ATOM     21  N   UNL     1      -3.829   4.333 140.130  0.00  0.00    +0.000 N 
ATOM     22  C   UNL     1      -4.437   5.537 139.979  0.00  0.00    +0.000 C 
ATOM     23  O   UNL     1      -4.960   5.944 141.030  0.00  0.00    +0.000 OA
ATOM     24  C   UNL     1      -4.250   6.402 138.600  0.00  0.00    +0.000 C 
ATOM     25  N   UNL     1      -5.377   7.172 138.403  0.00  0.00    +0.000 N 
ATOM     26  C   UNL     1      -5.798   7.958 139.417  0.00  0.00    +0.000 C 
ATOM     27  O   UNL     1      -6.972   8.285 139.194  0.00  0.00    +0.000 OA
ATOM     28  C   UNL     1      -4.762   8.499 140.831  0.00  0.00    +0.000 C 
ATOM     29  N   UNL     1      -4.491  10.066 141.201  0.00  0.00    +0.000 N 
ATOM     30  C   UNL     1      -5.187  11.127 140.639  0.00  0.00    +0.000 C 
ATOM     31  O   UNL     1      -5.037  12.315 140.874  0.00  0.00    +0.000 OA
ATOM     32  H   UNL     1      -3.726   9.373 138.898  0.00  0.00    +0.000 HD
ATOM     33  H   UNL     1      -1.850  12.443 135.358  0.00  0.00    +0.000 HD
ATOM     34  H   UNL     1      -3.549   3.963 141.025  0.00  0.00    +0.000 HD
ATOM     35  H   UNL     1      -5.928   7.082 137.565  0.00  0.00    +0.000 HD
ATOM     36  H   UNL     1      -3.614  10.332 140.753  0.00  0.00    +0.000 HD
ENDROOT
BRANCH  20  37
ATOM     37  C   UNL     1      -4.559   3.464 137.863  0.00  0.00    +0.000 C 
ATOM     38  O   UNL     1      -5.093   4.412 137.277  0.00  0.00    +0.000 OA
ATOM     39  N   UNL     1      -4.872   2.176 137.567  0.00  0.00    +0.000 N 
ATOM     40  C   UNL     1      -4.690   0.972 138.336  0.00  0.00    +0.000 C 
ATOM     41  C   UNL     1      -3.940   0.109 137.405  0.00  0.00    +0.000 C 
ATOM     42  C   UNL     1      -4.681   0.405 136.112  0.00  0.00    +0.000 C 
ATOM     43  C   UNL     1      -5.196   1.861 136.215  0.00  0.00    +0.000 C 
BRANCH  43  44
ATOM     44  C   UNL     1      -4.558   2.787 135.198  0.00  0.00    +0.000 C 
ATOM     45  O   UNL     1      -3.357   2.926 134.997  0.00  0.00    +0.000 OA
ATOM     46  N   UNL     1      -5.484   3.449 134.446  0.00  0.00    +0.000 N 
ATOM     47  H   UNL     1      -6.471   3.371 134.637  0.00  0.00    +0.000 HD
BRANCH  46  48
ATOM     48  C   UNL     1      -5.083   3.800 133.130  0.00  0.00    +0.000 C 
BRANCH  48  49
ATOM     49  C   UNL     1      -6.014   5.002 132.590  0.00  0.00    +0.000 C 
ATOM     50  O   UNL     1      -7.175   5.121 133.003  0.00  0.00    +0.000 OA
ATOM     51  N   UNL     1      -5.591   5.892 131.614  0.00  0.00    +0.000 N 
ATOM     52  H   UNL     1      -6.219   6.666 131.411  0.00  0.00    +0.000 HD
BRANCH  51  53
ATOM     53  C   UNL     1      -4.245   6.046 131.036  0.00  0.00    +0.000 C 
BRANCH  53  54
ATOM     54  C   UNL     1      -4.084   5.268 129.739  0.00  0.00    +0.000 A 
ATOM     55  C   UNL     1      -2.856   5.123 129.066  0.00  0.00    +0.000 A 
ATOM     56  C   UNL     1      -2.693   4.373 127.906  0.00  0.00    +0.000 A 
ATOM     57  C   UNL     1      -3.813   3.817 127.331  0.00  0.00    +0.000 A 
ATOM     58  C   UNL     1      -5.060   3.994 127.919  0.00  0.00    +0.000 A 
ATOM     59  C   UNL     1      -5.197   4.697 129.122  0.00  0.00    +0.000 A 
BRANCH  57  60
ATOM     60  O   UNL     1      -3.755   3.105 126.173  0.00  0.00    +0.000 OA
ATOM     61  H   UNL     1      -4.594   3.198 125.692  0.00  0.00    +0.000 HD
ENDBRANCH  57  60
ENDBRANCH  53  54
BRANCH  53  62
ATOM     62  C   UNL     1      -3.841   7.529 131.047  0.00  0.00    +0.000 C 
ATOM     63  N   UNL     1      -4.403   8.283 129.997  0.00  0.00    +0.000 N 
ATOM     64  O   UNL     1      -3.009   8.017 131.805  0.00  0.00    +0.000 OA
ATOM     65  H   UNL     1      -3.808   9.067 129.724  0.00  0.00    +0.000 HD
ATOM     66  H   UNL     1      -4.624   7.737 129.160  0.00  0.00    +0.000 HD
ENDBRANCH  53  62
ENDBRANCH  51  53
ENDBRANCH  48  49
BRANCH  48  67
ATOM     67  C   UNL     1      -5.156   2.539 132.313  0.00  0.00    +0.000 C 
BRANCH  67  68
ATOM     68  C   UNL     1      -6.332   1.888 131.668  0.00  0.00    +0.000 C 
BRANCH  68  69
ATOM     69  C   UNL     1      -7.152   1.017 132.584  0.00  0.00    +0.000 C 
BRANCH  69  70
ATOM     70  N   UNL     1      -7.974   1.974 133.303  0.00  0.00    +0.000 NA
ATOM     71  H   UNL     1      -7.478   2.870 133.292  0.00  0.00    +0.000 HD
ATOM     72  H   UNL     1      -8.057   1.687 134.269  0.00  0.00    +0.000 HD
ENDBRANCH  69  70
ENDBRANCH  68  69
ENDBRANCH  67  68
ENDBRANCH  48  67
ENDBRANCH  46  48
ENDBRANCH  43  44
ENDBRANCH  20  37
BRANCH   5  73
ATOM     73  C   UNL     1       0.666  11.059 135.986  0.00  0.00    +0.000 A 
ATOM     74  C   UNL     1       2.272  11.368 136.599  0.00  0.00    +0.000 A 
ATOM     75  C   UNL     1       3.374  12.197 135.960  0.00  0.00    +0.000 A 
ATOM     76  C   UNL     1       3.208  12.345 134.602  0.00  0.00    +0.000 A 
ATOM     77  C   UNL     1       2.012  11.826 133.932  0.00  0.00    +0.000 A 
ATOM     78  C   UNL     1       0.750  11.255 134.571  0.00  0.00    +0.000 A 
BRANCH  76  79
ATOM     79  O   UNL     1       4.175  13.001 133.888  0.00  0.00    +0.000 OA
ATOM     80  H   UNL     1       3.980  13.958 133.947  0.00  0.00    +0.000 HD
ENDBRANCH  76  79
ENDBRANCH   5  73
BRANCH   1  81
ATOM     81  C   UNL     1      -7.542  11.076 140.402  0.00  0.00    +0.000 C 
ATOM     82  C   UNL     1      -8.706  11.070 139.429  0.00  0.00    +0.000 C 
BRANCH  81  84
ATOM     83  C   UNL     1      -7.983  10.888 142.965  0.00  0.00    +0.000 C 
ATOM     84  C   UNL     1      -8.368  10.207 141.701  0.00  0.00    +0.000 C 
ENDBRANCH  81  84
ENDBRANCH   1  81
BRANCH  28  85
ATOM     85  C   UNL     1      -3.277   7.978 140.914  0.00  0.00    +0.000 C 
ATOM     86  C   UNL     1      -2.313   8.928 141.488  0.00  0.00    +0.000 C 
BRANCH  85  87
ATOM     87  O   UNL     1      -2.727   6.849 141.542  0.00  0.00    +0.000 OA
ATOM     88  H   UNL     1      -2.957   6.936 142.473  0.00  0.00    +0.000 HD
ENDBRANCH  85  87
ENDBRANCH  28  85
BRANCH  24  89
ATOM     89  C   UNL     1      -3.501   5.752 137.158  0.00  0.00    +0.000 C 
BRANCH  89  90
ATOM     90  C   UNL     1      -3.687   6.292 135.204  0.00  0.00    +0.000 C 
ATOM     91  N   UNL     1      -2.381   5.676 134.020  0.00  0.00    +0.000 N 
ATOM     92  O   UNL     1      -4.571   6.895 134.720  0.00  0.00    +0.000 OA
ATOM     93  H   UNL     1      -1.576   5.104 134.614  0.00  0.00    +0.000 HD
ATOM     94  H   UNL     1      -1.818   5.664 133.207  0.00  0.00    +0.000 HD
ENDBRANCH  89  90
ENDBRANCH  24  89
TORSDOF 20
ENDMDL
MODEL 7
REMARK VINA RESULT:      -8.1      3.420      8.207
REMARK  Name = CHEMBL1790712
REMARK  24 active torsions:
REMARK  status: ('A' for Active; 'I' for Inactive)
REMARK    1  A    between atoms: C_1  and  C_2
REMARK    2  A    between atoms: C_2  and  C_3
REMARK    3  A    between atoms: C_3  and  C_4
REMARK    4  A    between atoms: C_3  and  C_5
REMARK    5  A    between atoms: C_9  and  C_10
REMARK    6  A    between atoms: C_9  and  C_11
REMARK    7  A    between atoms: C_14  and  O_15
REMARK    8  A    between atoms: C_31  and  C_32
REMARK    9  A    between atoms: C_38  and  C_39
REMARK   10  A    between atoms: N_41  and  C_42
REMARK   11  A    between atoms: C_42  and  C_43
REMARK   12  A    between atoms: C_42  and  C_47
REMARK   13  A    between atoms: C_43  and  C_44
REMARK   14  A    between atoms: C_44  and  C_45
REMARK   15  A    between atoms: C_45  and  N_46
REMARK   16  A    between atoms: N_49  and  C_50
REMARK   17  A    between atoms: C_50  and  C_51
REMARK   18  A    between atoms: C_50  and  C_54
REMARK   19  A    between atoms: C_57  and  O_58
REMARK   20  A    between atoms: C_64  and  C_65
REMARK   21  A    between atoms: C_65  and  C_66
REMARK   22  A    between atoms: C_72  and  C_73
REMARK   23  A    between atoms: C_73  and  C_74
REMARK   24  A    between atoms: C_73  and  O_75
REMARK                            x       y       z     vdW  Elec       q    Type
REMARK                         _______ _______ _______ _____ _____    ______ ____
ROOT
ATOM      1  C   UNL     1       0.318   6.884 137.565  0.00  0.00    +0.000 C 
ATOM      2  N   UNL     1      -1.578   6.580 138.008  0.00  0.00    +0.000 N 
ATOM      3  C   UNL     1      -2.510   5.963 139.337  0.00  0.00    +0.000 C 
ATOM      4  O   UNL     1      -1.450   5.524 139.848  0.00  0.00    +0.000 OA
ATOM      5  C   UNL     1      -4.124   4.943 140.100  0.00  0.00    +0.000 C 
ATOM      6  C   UNL     1      -4.081   5.724 141.424  0.00  0.00    +0.000 C 
ATOM      7  N   UNL     1      -3.564   3.601 139.981  0.00  0.00    +0.000 N 
ATOM      8  C   UNL     1      -3.720   2.696 138.934  0.00  0.00    +0.000 C 
ATOM      9  O   UNL     1      -3.265   1.559 139.102  0.00  0.00    +0.000 OA
ATOM     10  C   UNL     1      -4.464   3.022 137.527  0.00  0.00    +0.000 C 
ATOM     11  C   UNL     1      -5.168   4.459 137.342  0.00  0.00    +0.000 C 
ATOM     12  C   UNL     1      -4.091   5.446 137.504  0.00  0.00    +0.000 C 
ATOM     13  C   UNL     1      -4.654   7.037 137.931  0.00  0.00    +0.000 C 
ATOM     14  C   UNL     1      -5.657   7.282 138.988  0.00  0.00    +0.000 C 
ATOM     15  C   UNL     1      -6.738   6.421 138.604  0.00  0.00    +0.000 C 
ATOM     16  C   UNL     1      -6.107   5.105 138.269  0.00  0.00    +0.000 C 
ATOM     17  S   UNL     1      -6.332   4.758 136.190  0.00  0.00    +0.000 S 
ATOM     18  S   UNL     1      -4.954   6.515 135.247  0.00  0.00    +0.000 S 
ATOM     19  C   UNL     1      -5.395   6.537 132.837  0.00  0.00    +0.000 C 
ATOM     20  C   UNL     1      -4.409   6.712 131.860  0.00  0.00    +0.000 C 
ATOM     21  N   UNL     1      -3.758   7.807 132.396  0.00  0.00    +0.000 N 
ATOM     22  C   UNL     1      -2.780   7.587 133.310  0.00  0.00    +0.000 C 
ATOM     23  O   UNL     1      -2.040   8.574 133.466  0.00  0.00    +0.000 OA
ATOM     24  C   UNL     1      -2.786   6.235 134.235  0.00  0.00    +0.000 C 
ATOM     25  N   UNL     1      -1.485   5.913 134.561  0.00  0.00    +0.000 N 
ATOM     26  C   UNL     1      -0.708   6.873 135.107  0.00  0.00    +0.000 C 
ATOM     27  O   UNL     1       0.475   6.522 135.003  0.00  0.00    +0.000 OA
ATOM     28  C   UNL     1      -1.330   8.391 135.929  0.00  0.00    +0.000 C 
ATOM     29  N   UNL     1      -0.983   8.785 137.475  0.00  0.00    +0.000 N 
ATOM     30  C   UNL     1      -0.016   8.148 138.240  0.00  0.00    +0.000 C 
ATOM     31  O   UNL     1       0.293   8.394 139.393  0.00  0.00    +0.000 OA
ATOM     32  H   UNL     1      -2.179   6.581 137.186  0.00  0.00    +0.000 HD
ATOM     33  H   UNL     1      -3.188   3.260 140.851  0.00  0.00    +0.000 HD
ATOM     34  H   UNL     1      -4.059   8.728 132.117  0.00  0.00    +0.000 HD
ATOM     35  H   UNL     1      -1.092   5.021 134.312  0.00  0.00    +0.000 HD
ATOM     36  H   UNL     1      -1.749   8.435 138.052  0.00  0.00    +0.000 HD
ENDROOT
BRANCH  20  37
ATOM     37  C   UNL     1      -3.626   5.476 131.409  0.00  0.00    +0.000 C 
ATOM     38  O   UNL     1      -3.643   4.383 131.985  0.00  0.00    +0.000 OA
ATOM     39  N   UNL     1      -2.857   5.689 130.310  0.00  0.00    +0.000 N 
ATOM     40  C   UNL     1      -2.389   6.919 129.725  0.00  0.00    +0.000 C 
ATOM     41  C   UNL     1      -2.853   6.806 128.330  0.00  0.00    +0.000 C 
ATOM     42  C   UNL     1      -2.530   5.347 128.059  0.00  0.00    +0.000 C 
ATOM     43  C   UNL     1      -2.661   4.601 129.409  0.00  0.00    +0.000 C 
BRANCH  43  44
ATOM     44  C   UNL     1      -3.787   3.586 129.418  0.00  0.00    +0.000 C 
ATOM     45  O   UNL     1      -3.730   2.441 129.854  0.00  0.00    +0.000 OA
ATOM     46  N   UNL     1      -4.952   4.099 128.925  0.00  0.00    +0.000 N 
ATOM     47  H   UNL     1      -4.992   5.024 128.526  0.00  0.00    +0.000 HD
BRANCH  46  48
ATOM     48  C   UNL     1      -6.149   3.542 129.445  0.00  0.00    +0.000 C 
BRANCH  48  49
ATOM     49  C   UNL     1      -6.527   2.212 128.614  0.00  0.00    +0.000 C 
ATOM     50  O   UNL     1      -6.641   2.263 127.383  0.00  0.00    +0.000 OA
ATOM     51  N   UNL     1      -6.800   1.000 129.229  0.00  0.00    +0.000 N 
ATOM     52  H   UNL     1      -6.937   0.204 128.611  0.00  0.00    +0.000 HD
BRANCH  51  53
ATOM     53  C   UNL     1      -6.635   0.635 130.647  0.00  0.00    +0.000 C 
BRANCH  53  54
ATOM     54  C   UNL     1      -7.531   1.458 131.561  0.00  0.00    +0.000 A 
ATOM     55  C   UNL     1      -7.054   2.183 132.670  0.00  0.00    +0.000 A 
ATOM     56  C   UNL     1      -7.861   2.976 133.480  0.00  0.00    +0.000 A 
ATOM     57  C   UNL     1      -9.216   2.978 133.242  0.00  0.00    +0.000 A 
ATOM     58  C   UNL     1      -9.743   2.219 132.203  0.00  0.00    +0.000 A 
ATOM     59  C   UNL     1      -8.910   1.478 131.356  0.00  0.00    +0.000 A 
BRANCH  57  60
ATOM     60  O   UNL     1     -10.086   3.688 134.011  0.00  0.00    +0.000 OA
ATOM     61  H   UNL     1     -10.800   3.105 134.316  0.00  0.00    +0.000 HD
ENDBRANCH  57  60
ENDBRANCH  53  54
BRANCH  53  62
ATOM     62  C   UNL     1      -6.657  -0.894 130.797  0.00  0.00    +0.000 C 
ATOM     63  N   UNL     1      -6.717  -1.338 132.133  0.00  0.00    +0.000 N 
ATOM     64  O   UNL     1      -6.508  -1.685 129.870  0.00  0.00    +0.000 OA
ATOM     65  H   UNL     1      -6.269  -2.249 132.257  0.00  0.00    +0.000 HD
ATOM     66  H   UNL     1      -6.315  -0.685 132.810  0.00  0.00    +0.000 HD
ENDBRANCH  53  62
ENDBRANCH  51  53
ENDBRANCH  48  49
BRANCH  48  67
ATOM     67  C   UNL     1      -7.185   4.631 129.386  0.00  0.00    +0.000 C 
BRANCH  67  68
ATOM     68  C   UNL     1      -8.038   5.195 130.471  0.00  0.00    +0.000 C 
BRANCH  68  69
ATOM     69  C   UNL     1      -9.433   5.573 130.044  0.00  0.00    +0.000 C 
BRANCH  69  70
ATOM     70  N   UNL     1      -9.302   5.754 128.609  0.00  0.00    +0.000 NA
ATOM     71  H   UNL     1      -8.782   6.623 128.457  0.00  0.00    +0.000 HD
ATOM     72  H   UNL     1     -10.220   5.876 128.201  0.00  0.00    +0.000 HD
ENDBRANCH  69  70
ENDBRANCH  68  69
ENDBRANCH  67  68
ENDBRANCH  48  67
ENDBRANCH  46  48
ENDBRANCH  43  44
ENDBRANCH  20  37
BRANCH   5  73
ATOM     73  C   UNL     1      -5.953   4.164 140.430  0.00  0.00    +0.000 A 
ATOM     74  C   UNL     1      -7.242   4.914 141.339  0.00  0.00    +0.000 A 
ATOM     75  C   UNL     1      -8.012   4.341 142.517  0.00  0.00    +0.000 A 
ATOM     76  C   UNL     1      -7.956   2.967 142.570  0.00  0.00    +0.000 A 
ATOM     77  C   UNL     1      -7.130   2.213 141.623  0.00  0.00    +0.000 A 
ATOM     78  C   UNL     1      -6.115   2.755 140.622  0.00  0.00    +0.000 A 
BRANCH  76  79
ATOM     79  O   UNL     1      -8.676   2.315 143.536  0.00  0.00    +0.000 OA
ATOM     80  H   UNL     1      -8.034   1.913 144.155  0.00  0.00    +0.000 HD
ENDBRANCH  76  79
ENDBRANCH   5  73
BRANCH   1  81
ATOM     81  C   UNL     1       2.127   7.654 137.363  0.00  0.00    +0.000 C 
ATOM     82  C   UNL     1       3.053   6.621 136.751  0.00  0.00    +0.000 C 
BRANCH  81  84
ATOM     83  C   UNL     1       2.845  10.160 137.300  0.00  0.00    +0.000 C 
ATOM     84  C   UNL     1       2.668   9.013 136.371  0.00  0.00    +0.000 C 
ENDBRANCH  81  84
ENDBRANCH   1  81
BRANCH  28  85
ATOM     85  C   UNL     1      -2.886   8.638 135.968  0.00  0.00    +0.000 C 
ATOM     86  C   UNL     1      -3.389   9.266 137.198  0.00  0.00    +0.000 C 
BRANCH  85  87
ATOM     87  O   UNL     1      -3.730   9.358 135.108  0.00  0.00    +0.000 OA
ATOM     88  H   UNL     1      -4.626   9.105 135.356  0.00  0.00    +0.000 HD
ENDBRANCH  85  87
ENDBRANCH  28  85
BRANCH  24  89
ATOM     89  C   UNL     1      -3.862   4.885 133.948  0.00  0.00    +0.000 C 
BRANCH  89  90
ATOM     90  C   UNL     1      -3.558   2.880 134.126  0.00  0.00    +0.000 C 
ATOM     91  N   UNL     1      -1.993   2.185 133.379  0.00  0.00    +0.000 N 
ATOM     92  O   UNL     1      -4.227   2.114 134.713  0.00  0.00    +0.000 OA
ATOM     93  H   UNL     1      -1.430   3.031 132.835  0.00  0.00    +0.000 HD
ATOM     94  H   UNL     1      -1.394   1.505 132.985  0.00  0.00    +0.000 HD
ENDBRANCH  89  90
ENDBRANCH  24  89
TORSDOF 20
ENDMDL
MODEL 8
REMARK VINA RESULT:      -7.8      2.279      2.965
REMARK  Name = CHEMBL1790712
REMARK  24 active torsions:
REMARK  status: ('A' for Active; 'I' for Inactive)
REMARK    1  A    between atoms: C_1  and  C_2
REMARK    2  A    between atoms: C_2  and  C_3
REMARK    3  A    between atoms: C_3  and  C_4
REMARK    4  A    between atoms: C_3  and  C_5
REMARK    5  A    between atoms: C_9  and  C_10
REMARK    6  A    between atoms: C_9  and  C_11
REMARK    7  A    between atoms: C_14  and  O_15
REMARK    8  A    between atoms: C_31  and  C_32
REMARK    9  A    between atoms: C_38  and  C_39
REMARK   10  A    between atoms: N_41  and  C_42
REMARK   11  A    between atoms: C_42  and  C_43
REMARK   12  A    between atoms: C_42  and  C_47
REMARK   13  A    between atoms: C_43  and  C_44
REMARK   14  A    between atoms: C_44  and  C_45
REMARK   15  A    between atoms: C_45  and  N_46
REMARK   16  A    between atoms: N_49  and  C_50
REMARK   17  A    between atoms: C_50  and  C_51
REMARK   18  A    between atoms: C_50  and  C_54
REMARK   19  A    between atoms: C_57  and  O_58
REMARK   20  A    between atoms: C_64  and  C_65
REMARK   21  A    between atoms: C_65  and  C_66
REMARK   22  A    between atoms: C_72  and  C_73
REMARK   23  A    between atoms: C_73  and  C_74
REMARK   24  A    between atoms: C_73  and  O_75
REMARK                            x       y       z     vdW  Elec       q    Type
REMARK                         _______ _______ _______ _____ _____    ______ ____
ROOT
ATOM      1  C   UNL     1      -6.112   8.351 137.556  0.00  0.00    +0.000 C 
ATOM      2  N   UNL     1      -4.255   8.425 136.900  0.00  0.00    +0.000 N 
ATOM      3  C   UNL     1      -2.967   9.587 136.799  0.00  0.00    +0.000 C 
ATOM      4  O   UNL     1      -3.790  10.491 137.091  0.00  0.00    +0.000 OA
ATOM      5  C   UNL     1      -1.338  10.409 135.851  0.00  0.00    +0.000 C 
ATOM      6  C   UNL     1      -0.750  10.938 137.170  0.00  0.00    +0.000 C 
ATOM      7  N   UNL     1      -2.076  11.275 134.937  0.00  0.00    +0.000 N 
ATOM      8  C   UNL     1      -2.470  11.004 133.629  0.00  0.00    +0.000 C 
ATOM      9  O   UNL     1      -2.972  11.935 132.990  0.00  0.00    +0.000 OA
ATOM     10  C   UNL     1      -2.304   9.568 132.887  0.00  0.00    +0.000 C 
ATOM     11  C   UNL     1      -1.542   8.382 133.665  0.00  0.00    +0.000 C 
ATOM     12  C   UNL     1      -2.323   8.151 134.888  0.00  0.00    +0.000 C 
ATOM     13  C   UNL     1      -1.427   7.364 136.157  0.00  0.00    +0.000 C 
ATOM     14  C   UNL     1      -0.066   7.775 136.558  0.00  0.00    +0.000 C 
ATOM     15  C   UNL     1       0.650   7.760 135.314  0.00  0.00    +0.000 C 
ATOM     16  C   UNL     1      -0.235   8.463 134.332  0.00  0.00    +0.000 C 
ATOM     17  S   UNL     1      -0.897   7.056 132.891  0.00  0.00    +0.000 S 
ATOM     18  S   UNL     1      -2.283   5.591 134.235  0.00  0.00    +0.000 S 
ATOM     19  C   UNL     1      -2.828   3.657 132.834  0.00  0.00    +0.000 C 
ATOM     20  C   UNL     1      -4.086   3.046 132.796  0.00  0.00    +0.000 C 
ATOM     21  N   UNL     1      -4.317   2.931 134.153  0.00  0.00    +0.000 N 
ATOM     22  C   UNL     1      -4.877   3.984 134.799  0.00  0.00    +0.000 C 
ATOM     23  O   UNL     1      -5.354   3.670 135.903  0.00  0.00    +0.000 OA
ATOM     24  C   UNL     1      -4.690   5.510 134.232  0.00  0.00    +0.000 C 
ATOM     25  N   UNL     1      -5.788   6.259 134.601  0.00  0.00    +0.000 N 
ATOM     26  C   UNL     1      -6.149   6.264 135.902  0.00  0.00    +0.000 C 
ATOM     27  O   UNL     1      -7.313   6.679 135.982  0.00  0.00    +0.000 OA
ATOM     28  C   UNL     1      -5.053   5.806 137.301  0.00  0.00    +0.000 C 
ATOM     29  N   UNL     1      -4.706   6.811 138.540  0.00  0.00    +0.000 N 
ATOM     30  C   UNL     1      -5.370   8.005 138.779  0.00  0.00    +0.000 C 
ATOM     31  O   UNL     1      -5.164   8.796 139.684  0.00  0.00    +0.000 OA
ATOM     32  H   UNL     1      -4.033   7.664 136.262  0.00  0.00    +0.000 HD
ATOM     33  H   UNL     1      -2.122  12.227 135.259  0.00  0.00    +0.000 HD
ATOM     34  H   UNL     1      -4.029   2.085 134.619  0.00  0.00    +0.000 HD
ATOM     35  H   UNL     1      -6.364   6.711 133.911  0.00  0.00    +0.000 HD
ATOM     36  H   UNL     1      -3.830   7.280 138.308  0.00  0.00    +0.000 HD
ENDROOT
BRANCH  20  37
ATOM     37  C   UNL     1      -5.143   3.648 131.866  0.00  0.00    +0.000 C 
ATOM     38  O   UNL     1      -4.900   4.406 130.920  0.00  0.00    +0.000 OA
ATOM     39  N   UNL     1      -6.416   3.304 132.193  0.00  0.00    +0.000 N 
ATOM     40  C   UNL     1      -6.953   2.782 133.423  0.00  0.00    +0.000 C 
ATOM     41  C   UNL     1      -7.642   1.558 132.977  0.00  0.00    +0.000 C 
ATOM     42  C   UNL     1      -8.292   2.068 131.702  0.00  0.00    +0.000 C 
ATOM     43  C   UNL     1      -7.365   3.171 131.137  0.00  0.00    +0.000 C 
BRANCH  43  44
ATOM     44  C   UNL     1      -6.750   2.802 129.802  0.00  0.00    +0.000 C 
ATOM     45  O   UNL     1      -6.520   3.568 128.872  0.00  0.00    +0.000 OA
ATOM     46  N   UNL     1      -6.403   1.484 129.737  0.00  0.00    +0.000 N 
ATOM     47  H   UNL     1      -6.630   0.843 130.481  0.00  0.00    +0.000 HD
BRANCH  46  48
ATOM     48  C   UNL     1      -5.306   1.168 128.893  0.00  0.00    +0.000 C 
BRANCH  48  49
ATOM     49  C   UNL     1      -4.814  -0.338 129.194  0.00  0.00    +0.000 C 
ATOM     50  O   UNL     1      -3.797  -0.534 129.872  0.00  0.00    +0.000 OA
ATOM     51  N   UNL     1      -5.453  -1.450 128.668  0.00  0.00    +0.000 N 
ATOM     52  H   UNL     1      -5.120  -2.354 128.993  0.00  0.00    +0.000 HD
BRANCH  51  53
ATOM     53  C   UNL     1      -6.728  -1.513 127.932  0.00  0.00    +0.000 C 
BRANCH  53  54
ATOM     54  C   UNL     1      -6.518  -1.613 126.428  0.00  0.00    +0.000 A 
ATOM     55  C   UNL     1      -5.641  -2.535 125.824  0.00  0.00    +0.000 A 
ATOM     56  C   UNL     1      -5.482  -2.664 124.448  0.00  0.00    +0.000 A 
ATOM     57  C   UNL     1      -6.148  -1.778 123.633  0.00  0.00    +0.000 A 
ATOM     58  C   UNL     1      -6.968  -0.802 124.186  0.00  0.00    +0.000 A 
ATOM     59  C   UNL     1      -7.169  -0.727 125.570  0.00  0.00    +0.000 A 
BRANCH  57  60
ATOM     60  O   UNL     1      -6.017  -1.801 122.279  0.00  0.00    +0.000 OA
ATOM     61  H   UNL     1      -5.075  -1.832 122.044  0.00  0.00    +0.000 HD
ENDBRANCH  57  60
ENDBRANCH  53  54
BRANCH  53  62
ATOM     62  C   UNL     1      -7.667  -2.526 128.602  0.00  0.00    +0.000 C 
ATOM     63  N   UNL     1      -7.250  -2.932 129.886  0.00  0.00    +0.000 N 
ATOM     64  O   UNL     1      -8.629  -3.052 128.051  0.00  0.00    +0.000 OA
ATOM     65  H   UNL     1      -7.558  -3.881 130.109  0.00  0.00    +0.000 HD
ATOM     66  H   UNL     1      -6.239  -2.876 130.035  0.00  0.00    +0.000 HD
ENDBRANCH  53  62
ENDBRANCH  51  53
ENDBRANCH  48  49
BRANCH  48  67
ATOM     67  C   UNL     1      -4.265   2.226 129.137  0.00  0.00    +0.000 C 
BRANCH  67  68
ATOM     68  C   UNL     1      -3.194   2.736 128.232  0.00  0.00    +0.000 C 
BRANCH  68  69
ATOM     69  C   UNL     1      -3.459   4.100 127.649  0.00  0.00    +0.000 C 
BRANCH  69  70
ATOM     70  N   UNL     1      -3.450   3.855 126.217  0.00  0.00    +0.000 NA
ATOM     71  H   UNL     1      -3.752   2.887 126.071  0.00  0.00    +0.000 HD
ATOM     72  H   UNL     1      -2.503   3.932 125.869  0.00  0.00    +0.000 HD
ENDBRANCH  69  70
ENDBRANCH  68  69
ENDBRANCH  67  68
ENDBRANCH  48  67
ENDBRANCH  46  48
ENDBRANCH  43  44
ENDBRANCH  20  37
BRANCH   5  73
ATOM     73  C   UNL     1       0.348  10.705 134.789  0.00  0.00    +0.000 A 
ATOM     74  C   UNL     1       1.965  10.827 135.439  0.00  0.00    +0.000 A 
ATOM     75  C   UNL     1       2.972  11.948 135.238  0.00  0.00    +0.000 A 
ATOM     76  C   UNL     1       2.716  12.696 134.113  0.00  0.00    +0.000 A 
ATOM     77  C   UNL     1       1.518  12.451 133.305  0.00  0.00    +0.000 A 
ATOM     78  C   UNL     1       0.335  11.545 133.630  0.00  0.00    +0.000 A 
BRANCH  76  79
ATOM     79  O   UNL     1       3.595  13.689 133.768  0.00  0.00    +0.000 OA
ATOM     80  H   UNL     1       3.210  14.536 134.071  0.00  0.00    +0.000 HD
ENDBRANCH  76  79
ENDBRANCH   5  73
BRANCH   1  81
ATOM     81  C   UNL     1      -7.731   8.151 138.672  0.00  0.00    +0.000 C 
ATOM     82  C   UNL     1      -7.710   6.800 139.359  0.00  0.00    +0.000 C 
BRANCH  81  84
ATOM     83  C   UNL     1      -8.749  10.379 139.563  0.00  0.00    +0.000 C 
ATOM     84  C   UNL     1      -8.247   9.081 140.084  0.00  0.00    +0.000 C 
ENDBRANCH  81  84
ENDBRANCH   1  81
BRANCH  28  85
ATOM     85  C   UNL     1      -3.590   5.318 136.978  0.00  0.00    +0.000 C 
ATOM     86  C   UNL     1      -2.569   5.713 137.958  0.00  0.00    +0.000 C 
BRANCH  85  87
ATOM     87  O   UNL     1      -3.069   4.031 136.769  0.00  0.00    +0.000 OA
ATOM     88  H   UNL     1      -3.722   3.427 137.139  0.00  0.00    +0.000 HD
ENDBRANCH  85  87
ENDBRANCH  28  85
BRANCH  24  89
ATOM     89  C   UNL     1      -4.008   5.869 132.661  0.00  0.00    +0.000 C 
BRANCH  89  90
ATOM     90  C   UNL     1      -4.629   7.146 131.202  0.00  0.00    +0.000 C 
ATOM     91  N   UNL     1      -6.466   7.247 130.881  0.00  0.00    +0.000 N 
ATOM     92  O   UNL     1      -3.961   7.886 130.580  0.00  0.00    +0.000 OA
ATOM     93  H   UNL     1      -7.006   6.477 131.548  0.00  0.00    +0.000 HD
ATOM     94  H   UNL     1      -7.296   7.418 130.372  0.00  0.00    +0.000 HD
ENDBRANCH  89  90
ENDBRANCH  24  89
TORSDOF 20
ENDMDL
MODEL 9
REMARK VINA RESULT:      -7.7      2.857      4.723
REMARK  Name = CHEMBL1790712
REMARK  24 active torsions:
REMARK  status: ('A' for Active; 'I' for Inactive)
REMARK    1  A    between atoms: C_1  and  C_2
REMARK    2  A    between atoms: C_2  and  C_3
REMARK    3  A    between atoms: C_3  and  C_4
REMARK    4  A    between atoms: C_3  and  C_5
REMARK    5  A    between atoms: C_9  and  C_10
REMARK    6  A    between atoms: C_9  and  C_11
REMARK    7  A    between atoms: C_14  and  O_15
REMARK    8  A    between atoms: C_31  and  C_32
REMARK    9  A    between atoms: C_38  and  C_39
REMARK   10  A    between atoms: N_41  and  C_42
REMARK   11  A    between atoms: C_42  and  C_43
REMARK   12  A    between atoms: C_42  and  C_47
REMARK   13  A    between atoms: C_43  and  C_44
REMARK   14  A    between atoms: C_44  and  C_45
REMARK   15  A    between atoms: C_45  and  N_46
REMARK   16  A    between atoms: N_49  and  C_50
REMARK   17  A    between atoms: C_50  and  C_51
REMARK   18  A    between atoms: C_50  and  C_54
REMARK   19  A    between atoms: C_57  and  O_58
REMARK   20  A    between atoms: C_64  and  C_65
REMARK   21  A    between atoms: C_65  and  C_66
REMARK   22  A    between atoms: C_72  and  C_73
REMARK   23  A    between atoms: C_73  and  C_74
REMARK   24  A    between atoms: C_73  and  O_75
REMARK                            x       y       z     vdW  Elec       q    Type
REMARK                         _______ _______ _______ _____ _____    ______ ____
ROOT
ATOM      1  C   UNL     1      -6.871   9.920 137.940  0.00  0.00    +0.000 C 
ATOM      2  N   UNL     1      -4.918   9.713 137.775  0.00  0.00    +0.000 N 
ATOM      3  C   UNL     1      -3.537  10.713 137.445  0.00  0.00    +0.000 C 
ATOM      4  O   UNL     1      -4.316  11.630 137.081  0.00  0.00    +0.000 OA
ATOM      5  C   UNL     1      -1.675  11.019 136.629  0.00  0.00    +0.000 C 
ATOM      6  C   UNL     1      -1.335  12.124 137.644  0.00  0.00    +0.000 C 
ATOM      7  N   UNL     1      -2.118  11.332 135.274  0.00  0.00    +0.000 N 
ATOM      8  C   UNL     1      -2.247  10.464 134.192  0.00  0.00    +0.000 C 
ATOM      9  O   UNL     1      -2.513  10.968 133.096  0.00  0.00    +0.000 OA
ATOM     10  C   UNL     1      -2.059   8.851 134.267  0.00  0.00    +0.000 C 
ATOM     11  C   UNL     1      -1.594   8.194 135.661  0.00  0.00    +0.000 C 
ATOM     12  C   UNL     1      -2.636   8.555 136.633  0.00  0.00    +0.000 C 
ATOM     13  C   UNL     1      -2.107   8.485 138.290  0.00  0.00    +0.000 C 
ATOM     14  C   UNL     1      -0.831   9.065 138.756  0.00  0.00    +0.000 C 
ATOM     15  C   UNL     1       0.129   8.475 137.867  0.00  0.00    +0.000 C 
ATOM     16  C   UNL     1      -0.458   8.609 136.495  0.00  0.00    +0.000 C 
ATOM     17  S   UNL     1      -0.924   6.672 135.769  0.00  0.00    +0.000 S 
ATOM     18  S   UNL     1      -2.694   5.994 137.279  0.00  0.00    +0.000 S 
ATOM     19  C   UNL     1      -3.103   3.616 136.859  0.00  0.00    +0.000 C 
ATOM     20  C   UNL     1      -4.375   3.034 136.821  0.00  0.00    +0.000 C 
ATOM     21  N   UNL     1      -4.900   3.573 137.979  0.00  0.00    +0.000 N 
ATOM     22  C   UNL     1      -5.485   4.795 137.910  0.00  0.00    +0.000 C 
ATOM     23  O   UNL     1      -6.214   5.033 138.889  0.00  0.00    +0.000 OA
ATOM     24  C   UNL     1      -5.042   5.872 136.757  0.00  0.00    +0.000 C 
ATOM     25  N   UNL     1      -6.119   6.682 136.469  0.00  0.00    +0.000 N 
ATOM     26  C   UNL     1      -6.747   7.298 137.493  0.00  0.00    +0.000 C 
ATOM     27  O   UNL     1      -7.858   7.677 137.098  0.00  0.00    +0.000 OA
ATOM     28  C   UNL     1      -6.022   7.583 139.155  0.00  0.00    +0.000 C 
ATOM     29  N   UNL     1      -5.855   9.062 139.824  0.00  0.00    +0.000 N 
ATOM     30  C   UNL     1      -6.443  10.213 139.316  0.00  0.00    +0.000 C 
ATOM     31  O   UNL     1      -6.362  11.343 139.768  0.00  0.00    +0.000 OA
ATOM     32  H   UNL     1      -4.636   8.744 137.637  0.00  0.00    +0.000 HD
ATOM     33  H   UNL     1      -2.143  12.322 135.094  0.00  0.00    +0.000 HD
ATOM     34  H   UNL     1      -4.798   3.056 138.839  0.00  0.00    +0.000 HD
ATOM     35  H   UNL     1      -6.491   6.741 135.535  0.00  0.00    +0.000 HD
ATOM     36  H   UNL     1      -4.911   9.383 139.609  0.00  0.00    +0.000 HD
ENDROOT
BRANCH  20  37
ATOM     37  C   UNL     1      -5.150   3.100 135.501  0.00  0.00    +0.000 C 
ATOM     38  O   UNL     1      -5.448   4.144 134.911  0.00  0.00    +0.000 OA
ATOM     39  N   UNL     1      -5.528   1.884 135.030  0.00  0.00    +0.000 N 
ATOM     40  C   UNL     1      -5.637   0.616 135.704  0.00  0.00    +0.000 C 
ATOM     41  C   UNL     1      -4.806  -0.265 134.864  0.00  0.00    +0.000 C 
ATOM     42  C   UNL     1      -5.228   0.208 133.484  0.00  0.00    +0.000 C 
ATOM     43  C   UNL     1      -5.596   1.705 133.617  0.00  0.00    +0.000 C 
BRANCH  43  44
ATOM     44  C   UNL     1      -4.668   2.615 132.838  0.00  0.00    +0.000 C 
ATOM     45  O   UNL     1      -3.487   2.834 133.088  0.00  0.00    +0.000 OA
ATOM     46  N   UNL     1      -5.272   3.158 131.742  0.00  0.00    +0.000 N 
ATOM     47  H   UNL     1      -6.253   3.017 131.558  0.00  0.00    +0.000 HD
BRANCH  46  48
ATOM     48  C   UNL     1      -4.422   3.460 130.646  0.00  0.00    +0.000 C 
BRANCH  48  49
ATOM     49  C   UNL     1      -4.826   4.898 130.036  0.00  0.00    +0.000 C 
ATOM     50  O   UNL     1      -3.992   5.812 129.999  0.00  0.00    +0.000 OA
ATOM     51  N   UNL     1      -6.108   5.189 129.598  0.00  0.00    +0.000 N 
ATOM     52  H   UNL     1      -6.234   6.092 129.147  0.00  0.00    +0.000 HD
BRANCH  51  53
ATOM     53  C   UNL     1      -7.249   4.271 129.428  0.00  0.00    +0.000 C 
BRANCH  53  54
ATOM     54  C   UNL     1      -8.504   4.781 130.120  0.00  0.00    +0.000 A 
ATOM     55  C   UNL     1      -8.548   5.967 130.879  0.00  0.00    +0.000 A 
ATOM     56  C   UNL     1      -9.703   6.463 131.474  0.00  0.00    +0.000 A 
ATOM     57  C   UNL     1     -10.848   5.704 131.397  0.00  0.00    +0.000 A 
ATOM     58  C   UNL     1     -10.836   4.488 130.722  0.00  0.00    +0.000 A 
ATOM     59  C   UNL     1      -9.682   4.035 130.072  0.00  0.00    +0.000 A 
BRANCH  57  60
ATOM     60  O   UNL     1     -12.012   6.088 131.988  0.00  0.00    +0.000 OA
ATOM     61  H   UNL     1     -12.095   7.054 131.944  0.00  0.00    +0.000 HD
ENDBRANCH  57  60
ENDBRANCH  53  54
BRANCH  53  62
ATOM     62  C   UNL     1      -7.357   3.841 127.957  0.00  0.00    +0.000 C 
ATOM     63  N   UNL     1      -7.541   2.455 127.778  0.00  0.00    +0.000 N 
ATOM     64  O   UNL     1      -7.175   4.587 127.000  0.00  0.00    +0.000 OA
ATOM     65  H   UNL     1      -7.149   2.126 126.893  0.00  0.00    +0.000 HD
ATOM     66  H   UNL     1      -7.161   1.881 128.534  0.00  0.00    +0.000 HD
ENDBRANCH  53  62
ENDBRANCH  51  53
ENDBRANCH  48  49
BRANCH  48  67
ATOM     67  C   UNL     1      -4.551   2.314 129.680  0.00  0.00    +0.000 C 
BRANCH  67  68
ATOM     68  C   UNL     1      -4.367   0.852 129.908  0.00  0.00    +0.000 C 
BRANCH  68  69
ATOM     69  C   UNL     1      -5.557   0.002 129.543  0.00  0.00    +0.000 C 
BRANCH  69  70
ATOM     70  N   UNL     1      -6.663   0.686 130.191  0.00  0.00    +0.000 NA
ATOM     71  H   UNL     1      -7.343  -0.029 130.467  0.00  0.00    +0.000 HD
ATOM     72  H   UNL     1      -7.119   1.294 129.523  0.00  0.00    +0.000 HD
ENDBRANCH  69  70
ENDBRANCH  68  69
ENDBRANCH  67  68
ENDBRANCH  48  67
ENDBRANCH  46  48
ENDBRANCH  43  44
ENDBRANCH  20  37
BRANCH   5  73
ATOM     73  C   UNL     1       0.219  10.811 135.975  0.00  0.00    +0.000 A 
ATOM     74  C   UNL     1       1.664  11.285 136.835  0.00  0.00    +0.000 A 
ATOM     75  C   UNL     1       2.782  12.195 136.356  0.00  0.00    +0.000 A 
ATOM     76  C   UNL     1       2.839  12.288 134.984  0.00  0.00    +0.000 A 
ATOM     77  C   UNL     1       1.825  11.642 134.145  0.00  0.00    +0.000 A 
ATOM     78  C   UNL     1       0.527  10.975 134.586  0.00  0.00    +0.000 A 
BRANCH  76  79
ATOM     79  O   UNL     1       3.853  13.012 134.415  0.00  0.00    +0.000 OA
ATOM     80  H   UNL     1       3.814  13.914 134.792  0.00  0.00    +0.000 HD
ENDBRANCH  76  79
ENDBRANCH   5  73
BRANCH   1  81
ATOM     81  C   UNL     1      -8.703  10.242 138.611  0.00  0.00    +0.000 C 
ATOM     82  C   UNL     1      -9.695   9.463 137.769  0.00  0.00    +0.000 C 
BRANCH  81  84
ATOM     83  C   UNL     1      -9.757  11.132 140.822  0.00  0.00    +0.000 C 
ATOM     84  C   UNL     1      -9.415   9.837 140.177  0.00  0.00    +0.000 C 
ENDBRANCH  81  84
ENDBRANCH   1  81
BRANCH  28  85
ATOM     85  C   UNL     1      -4.575   7.030 139.445  0.00  0.00    +0.000 C 
ATOM     86  C   UNL     1      -3.760   7.857 140.346  0.00  0.00    +0.000 C 
BRANCH  85  87
ATOM     87  O   UNL     1      -4.142   5.805 139.977  0.00  0.00    +0.000 OA
ATOM     88  H   UNL     1      -4.901   5.448 140.450  0.00  0.00    +0.000 HD
ENDBRANCH  85  87
ENDBRANCH  28  85
BRANCH  24  89
ATOM     89  C   UNL     1      -4.010   5.454 135.406  0.00  0.00    +0.000 C 
BRANCH  89  90
ATOM     90  C   UNL     1      -3.936   6.196 133.511  0.00  0.00    +0.000 C 
ATOM     91  N   UNL     1      -2.429   5.777 132.490  0.00  0.00    +0.000 N 
ATOM     92  O   UNL     1      -4.774   6.805 132.959  0.00  0.00    +0.000 OA
ATOM     93  H   UNL     1      -1.688   5.183 133.142  0.00  0.00    +0.000 HD
ATOM     94  H   UNL     1      -1.751   5.881 131.777  0.00  0.00    +0.000 HD
ENDBRANCH  89  90
ENDBRANCH  24  89
TORSDOF 20
ENDMDL
