MODEL 1
REMARK VINA RESULT:      -8.4      0.000      0.000
REMARK  Name = CHEMBL474609
REMARK  9 active torsions:
REMARK  status: ('A' for Active; 'I' for Inactive)
REMARK    1  A    between atoms: C_1  and  O_2
REMARK    2  A    between atoms: O_2  and  C_3
REMARK    3  A    between atoms: C_6  and  C_7
REMARK    4  A    between atoms: C_9  and  C_10
REMARK    5  A    between atoms: C_13  and  C_14
REMARK    6  A    between atoms: N_16  and  C_17
REMARK    7  A    between atoms: N_16  and  C_21
REMARK    8  A    between atoms: C_17  and  C_18
REMARK    9  A    between atoms: C_21  and  C_22
REMARK                            x       y       z     vdW  Elec       q    Type
REMARK                         _______ _______ _______ _____ _____    ______ ____
ROOT
ATOM      1  C   UNL     1      -7.338  -2.629 129.837  0.00  0.00    +0.000 A 
ATOM      2  C   UNL     1      -8.465  -3.303 129.481  0.00  0.00    +0.000 A 
ATOM      3  C   UNL     1      -8.650  -3.658 128.162  0.00  0.00    +0.000 A 
ATOM      4  C   UNL     1      -8.205  -2.871 127.118  0.00  0.00    +0.000 A 
ATOM      5  C   UNL     1      -7.042  -2.163 127.442  0.00  0.00    +0.000 A 
ATOM      6  C   UNL     1      -6.569  -2.103 128.790  0.00  0.00    +0.000 A 
ENDROOT
BRANCH   1  13
ATOM      7  C   UNL     1      -7.167  -1.479 132.070  0.00  0.00    +0.000 A 
ATOM      8  C   UNL     1      -6.896  -1.543 133.427  0.00  0.00    +0.000 A 
ATOM      9  C   UNL     1      -6.480  -2.755 133.982  0.00  0.00    +0.000 A 
ATOM     10  C   UNL     1      -6.275  -3.890 133.184  0.00  0.00    +0.000 A 
ATOM     11  C   UNL     1      -5.814  -5.192 133.756  0.00  0.00    +0.000 C 
ATOM     12  C   UNL     1      -6.538  -3.827 131.820  0.00  0.00    +0.000 A 
ATOM     13  C   UNL     1      -7.058  -2.661 131.267  0.00  0.00    +0.000 A 
BRANCH   7  15
ATOM     14  C   UNL     1      -8.982   0.079 131.775  0.00  0.00    +0.000 C 
ATOM     15  O   UNL     1      -7.641  -0.322 131.481  0.00  0.00    +0.000 OA
ENDBRANCH   7  15
ENDBRANCH   1  13
BRANCH   4  16
ATOM     16  C   UNL     1      -8.881  -2.814 125.732  0.00  0.00    +0.000 C 
ATOM     17  O   UNL     1     -10.052  -2.361 125.718  0.00  0.00    +0.000 OA
ATOM     18  N   UNL     1      -8.310  -3.269 124.504  0.00  0.00    +0.000 N 
BRANCH  18  19
ATOM     19  C   UNL     1      -7.084  -4.019 124.317  0.00  0.00    +0.000 C 
BRANCH  19  20
ATOM     20  C   UNL     1      -5.786  -3.409 124.279  0.00  0.00    +0.000 C 
ATOM     21  C   UNL     1      -4.657  -4.294 123.816  0.00  0.00    +0.000 C 
ATOM     22  C   UNL     1      -4.885  -2.967 123.184  0.00  0.00    +0.000 C 
ENDBRANCH  19  20
ENDBRANCH  18  19
BRANCH  18  23
ATOM     23  C   UNL     1      -8.949  -2.891 123.176  0.00  0.00    +0.000 C 
BRANCH  23  24
ATOM     24  C   UNL     1      -8.759  -1.378 122.685  0.00  0.00    +0.000 C 
ATOM     25  C   UNL     1      -7.847  -0.530 123.568  0.00  0.00    +0.000 C 
ATOM     26  C   UNL     1      -8.287   0.872 123.464  0.00  0.00    +0.000 C 
ATOM     27  C   UNL     1      -9.759   0.671 123.277  0.00  0.00    +0.000 C 
ATOM     28  O   UNL     1      -9.980  -0.613 122.643  0.00  0.00    +0.000 OA
ENDBRANCH  23  24
ENDBRANCH  18  23
ENDBRANCH   4  16
TORSDOF 7
ENDMDL
MODEL 2
REMARK VINA RESULT:      -8.0      1.495      2.140
REMARK  Name = CHEMBL474609
REMARK  9 active torsions:
REMARK  status: ('A' for Active; 'I' for Inactive)
REMARK    1  A    between atoms: C_1  and  O_2
REMARK    2  A    between atoms: O_2  and  C_3
REMARK    3  A    between atoms: C_6  and  C_7
REMARK    4  A    between atoms: C_9  and  C_10
REMARK    5  A    between atoms: C_13  and  C_14
REMARK    6  A    between atoms: N_16  and  C_17
REMARK    7  A    between atoms: N_16  and  C_21
REMARK    8  A    between atoms: C_17  and  C_18
REMARK    9  A    between atoms: C_21  and  C_22
REMARK                            x       y       z     vdW  Elec       q    Type
REMARK                         _______ _______ _______ _____ _____    ______ ____
ROOT
ATOM      1  C   UNL     1      -7.102  -2.874 129.539  0.00  0.00    +0.000 A 
ATOM      2  C   UNL     1      -8.134  -3.593 129.020  0.00  0.00    +0.000 A 
ATOM      3  C   UNL     1      -8.358  -3.564 127.661  0.00  0.00    +0.000 A 
ATOM      4  C   UNL     1      -8.120  -2.437 126.898  0.00  0.00    +0.000 A 
ATOM      5  C   UNL     1      -7.061  -1.670 127.396  0.00  0.00    +0.000 A 
ATOM      6  C   UNL     1      -6.504  -1.935 128.687  0.00  0.00    +0.000 A 
ENDROOT
BRANCH   1  13
ATOM      7  C   UNL     1      -5.535  -4.065 131.109  0.00  0.00    +0.000 A 
ATOM      8  C   UNL     1      -5.193  -4.437 132.399  0.00  0.00    +0.000 A 
ATOM      9  C   UNL     1      -6.031  -4.075 133.456  0.00  0.00    +0.000 A 
ATOM     10  C   UNL     1      -7.238  -3.396 133.232  0.00  0.00    +0.000 A 
ATOM     11  C   UNL     1      -8.157  -3.015 134.348  0.00  0.00    +0.000 C 
ATOM     12  C   UNL     1      -7.588  -3.030 131.937  0.00  0.00    +0.000 A 
ATOM     13  C   UNL     1      -6.715  -3.283 130.884  0.00  0.00    +0.000 A 
BRANCH   7  15
ATOM     14  C   UNL     1      -3.496  -3.600 129.912  0.00  0.00    +0.000 C 
ATOM     15  O   UNL     1      -4.712  -4.343 130.035  0.00  0.00    +0.000 OA
ENDBRANCH   7  15
ENDBRANCH   1  13
BRANCH   4  16
ATOM     16  C   UNL     1      -8.898  -2.086 125.613  0.00  0.00    +0.000 C 
ATOM     17  O   UNL     1     -10.010  -1.529 125.786  0.00  0.00    +0.000 OA
ATOM     18  N   UNL     1      -8.484  -2.380 124.277  0.00  0.00    +0.000 N 
BRANCH  18  19
ATOM     19  C   UNL     1      -7.366  -3.200 123.854  0.00  0.00    +0.000 C 
BRANCH  19  20
ATOM     20  C   UNL     1      -5.995  -2.805 124.011  0.00  0.00    +0.000 C 
ATOM     21  C   UNL     1      -5.013  -3.922 124.256  0.00  0.00    +0.000 C 
ATOM     22  C   UNL     1      -4.780  -2.936 123.166  0.00  0.00    +0.000 C 
ENDBRANCH  19  20
ENDBRANCH  18  19
BRANCH  18  23
ATOM     23  C   UNL     1      -9.184  -1.726 123.097  0.00  0.00    +0.000 C 
BRANCH  23  24
ATOM     24  C   UNL     1      -9.037  -0.138 122.955  0.00  0.00    +0.000 C 
ATOM     25  C   UNL     1      -7.846   0.462 123.698  0.00  0.00    +0.000 C 
ATOM     26  C   UNL     1      -8.194   1.842 124.077  0.00  0.00    +0.000 C 
ATOM     27  C   UNL     1      -9.666   1.689 124.302  0.00  0.00    +0.000 C 
ATOM     28  O   UNL     1     -10.157   0.607 123.473  0.00  0.00    +0.000 OA
ENDBRANCH  23  24
ENDBRANCH  18  23
ENDBRANCH   4  16
TORSDOF 7
ENDMDL
MODEL 3
REMARK VINA RESULT:      -7.9      5.067      8.256
REMARK  Name = CHEMBL474609
REMARK  9 active torsions:
REMARK  status: ('A' for Active; 'I' for Inactive)
REMARK    1  A    between atoms: C_1  and  O_2
REMARK    2  A    between atoms: O_2  and  C_3
REMARK    3  A    between atoms: C_6  and  C_7
REMARK    4  A    between atoms: C_9  and  C_10
REMARK    5  A    between atoms: C_13  and  C_14
REMARK    6  A    between atoms: N_16  and  C_17
REMARK    7  A    between atoms: N_16  and  C_21
REMARK    8  A    between atoms: C_17  and  C_18
REMARK    9  A    between atoms: C_21  and  C_22
REMARK                            x       y       z     vdW  Elec       q    Type
REMARK                         _______ _______ _______ _____ _____    ______ ____
ROOT
ATOM      1  C   UNL     1      -8.483  -0.056 130.718  0.00  0.00    +0.000 A 
ATOM      2  C   UNL     1      -8.135   0.885 129.800  0.00  0.00    +0.000 A 
ATOM      3  C   UNL     1      -8.337   2.217 130.090  0.00  0.00    +0.000 A 
ATOM      4  C   UNL     1      -9.405   2.652 130.849  0.00  0.00    +0.000 A 
ATOM      5  C   UNL     1      -9.794   1.713 131.811  0.00  0.00    +0.000 A 
ATOM      6  C   UNL     1      -9.276   0.380 131.788  0.00  0.00    +0.000 A 
ENDROOT
BRANCH   1  13
ATOM      7  C   UNL     1      -6.715  -1.776 131.224  0.00  0.00    +0.000 A 
ATOM      8  C   UNL     1      -6.160  -3.022 130.984  0.00  0.00    +0.000 A 
ATOM      9  C   UNL     1      -6.717  -3.837 129.996  0.00  0.00    +0.000 A 
ATOM     10  C   UNL     1      -7.787  -3.395 129.204  0.00  0.00    +0.000 A 
ATOM     11  C   UNL     1      -8.386  -4.245 128.130  0.00  0.00    +0.000 C 
ATOM     12  C   UNL     1      -8.341  -2.141 129.437  0.00  0.00    +0.000 A 
ATOM     13  C   UNL     1      -7.873  -1.360 130.489  0.00  0.00    +0.000 A 
BRANCH   7  15
ATOM     14  C   UNL     1      -6.460  -1.364 133.585  0.00  0.00    +0.000 C 
ATOM     15  O   UNL     1      -6.243  -0.956 132.231  0.00  0.00    +0.000 OA
ENDBRANCH   7  15
ENDBRANCH   1  13
BRANCH   4  16
ATOM     16  C   UNL     1     -10.068   4.037 130.691  0.00  0.00    +0.000 C 
ATOM     17  O   UNL     1     -11.111   4.063 129.992  0.00  0.00    +0.000 OA
ATOM     18  N   UNL     1      -9.573   5.266 131.224  0.00  0.00    +0.000 N 
BRANCH  18  19
ATOM     19  C   UNL     1      -8.294   5.508 131.861  0.00  0.00    +0.000 C 
BRANCH  19  20
ATOM     20  C   UNL     1      -7.858   4.818 133.041  0.00  0.00    +0.000 C 
ATOM     21  C   UNL     1      -7.942   5.599 134.328  0.00  0.00    +0.000 C 
ATOM     22  C   UNL     1      -8.558   4.249 134.221  0.00  0.00    +0.000 C 
ENDBRANCH  19  20
ENDBRANCH  18  19
BRANCH  18  23
ATOM     23  C   UNL     1     -10.461   6.501 131.253  0.00  0.00    +0.000 C 
BRANCH  23  24
ATOM     24  C   UNL     1     -10.335   7.514 130.019  0.00  0.00    +0.000 C 
ATOM     25  C   UNL     1     -11.661   8.079 129.518  0.00  0.00    +0.000 C 
ATOM     26  C   UNL     1     -11.519   8.372 128.082  0.00  0.00    +0.000 C 
ATOM     27  C   UNL     1     -10.568   7.285 127.686  0.00  0.00    +0.000 C 
ATOM     28  O   UNL     1      -9.758   6.931 128.833  0.00  0.00    +0.000 OA
ENDBRANCH  23  24
ENDBRANCH  18  23
ENDBRANCH   4  16
TORSDOF 7
ENDMDL
MODEL 4
REMARK VINA RESULT:      -7.9      7.633     10.143
REMARK  Name = CHEMBL474609
REMARK  9 active torsions:
REMARK  status: ('A' for Active; 'I' for Inactive)
REMARK    1  A    between atoms: C_1  and  O_2
REMARK    2  A    between atoms: O_2  and  C_3
REMARK    3  A    between atoms: C_6  and  C_7
REMARK    4  A    between atoms: C_9  and  C_10
REMARK    5  A    between atoms: C_13  and  C_14
REMARK    6  A    between atoms: N_16  and  C_17
REMARK    7  A    between atoms: N_16  and  C_21
REMARK    8  A    between atoms: C_17  and  C_18
REMARK    9  A    between atoms: C_21  and  C_22
REMARK                            x       y       z     vdW  Elec       q    Type
REMARK                         _______ _______ _______ _____ _____    ______ ____
ROOT
ATOM      1  C   UNL     1      -5.127   6.011 132.560  0.00  0.00    +0.000 A 
ATOM      2  C   UNL     1      -5.671   6.491 131.409  0.00  0.00    +0.000 A 
ATOM      3  C   UNL     1      -7.005   6.837 131.387  0.00  0.00    +0.000 A 
ATOM      4  C   UNL     1      -7.954   6.159 132.126  0.00  0.00    +0.000 A 
ATOM      5  C   UNL     1      -7.436   5.652 133.323  0.00  0.00    +0.000 A 
ATOM      6  C   UNL     1      -6.027   5.645 133.570  0.00  0.00    +0.000 A 
ENDROOT
BRANCH   1  13
ATOM      7  C   UNL     1      -2.886   4.867 132.463  0.00  0.00    +0.000 A 
ATOM      8  C   UNL     1      -1.504   4.948 132.494  0.00  0.00    +0.000 A 
ATOM      9  C   UNL     1      -0.898   6.191 132.690  0.00  0.00    +0.000 A 
ATOM     10  C   UNL     1      -1.661   7.347 132.914  0.00  0.00    +0.000 A 
ATOM     11  C   UNL     1      -1.032   8.684 133.143  0.00  0.00    +0.000 C 
ATOM     12  C   UNL     1      -3.049   7.268 132.893  0.00  0.00    +0.000 A 
ATOM     13  C   UNL     1      -3.671   6.061 132.590  0.00  0.00    +0.000 A 
BRANCH   7  15
ATOM     14  C   UNL     1      -3.063   2.500 132.879  0.00  0.00    +0.000 C 
ATOM     15  O   UNL     1      -3.535   3.674 132.211  0.00  0.00    +0.000 OA
ENDBRANCH   7  15
ENDBRANCH   1  13
BRANCH   4  16
ATOM     16  C   UNL     1      -9.433   6.017 131.708  0.00  0.00    +0.000 C 
ATOM     17  O   UNL     1     -10.269   6.547 132.481  0.00  0.00    +0.000 OA
ATOM     18  N   UNL     1      -9.915   5.309 130.564  0.00  0.00    +0.000 N 
BRANCH  18  19
ATOM     19  C   UNL     1      -9.165   4.449 129.670  0.00  0.00    +0.000 C 
BRANCH  19  20
ATOM     20  C   UNL     1      -8.699   3.143 130.040  0.00  0.00    +0.000 C 
ATOM     21  C   UNL     1      -7.230   3.036 130.362  0.00  0.00    +0.000 C 
ATOM     22  C   UNL     1      -8.252   2.530 131.318  0.00  0.00    +0.000 C 
ENDBRANCH  19  20
ENDBRANCH  18  19
BRANCH  18  23
ATOM     23  C   UNL     1     -11.351   5.490 130.101  0.00  0.00    +0.000 C 
BRANCH  23  24
ATOM     24  C   UNL     1     -11.658   6.755 129.167  0.00  0.00    +0.000 C 
ATOM     25  C   UNL     1     -12.930   7.519 129.524  0.00  0.00    +0.000 C 
ATOM     26  C   UNL     1     -13.455   8.133 128.292  0.00  0.00    +0.000 C 
ATOM     27  C   UNL     1     -13.034   7.105 127.288  0.00  0.00    +0.000 C 
ATOM     28  O   UNL     1     -11.849   6.430 127.776  0.00  0.00    +0.000 OA
ENDBRANCH  23  24
ENDBRANCH  18  23
ENDBRANCH   4  16
TORSDOF 7
ENDMDL
MODEL 5
REMARK VINA RESULT:      -7.5      2.337      8.405
REMARK  Name = CHEMBL474609
REMARK  9 active torsions:
REMARK  status: ('A' for Active; 'I' for Inactive)
REMARK    1  A    between atoms: C_1  and  O_2
REMARK    2  A    between atoms: O_2  and  C_3
REMARK    3  A    between atoms: C_6  and  C_7
REMARK    4  A    between atoms: C_9  and  C_10
REMARK    5  A    between atoms: C_13  and  C_14
REMARK    6  A    between atoms: N_16  and  C_17
REMARK    7  A    between atoms: N_16  and  C_21
REMARK    8  A    between atoms: C_17  and  C_18
REMARK    9  A    between atoms: C_21  and  C_22
REMARK                            x       y       z     vdW  Elec       q    Type
REMARK                         _______ _______ _______ _____ _____    ______ ____
ROOT
ATOM      1  C   UNL     1      -6.231  -1.233 126.453  0.00  0.00    +0.000 A 
ATOM      2  C   UNL     1      -7.268  -1.843 127.088  0.00  0.00    +0.000 A 
ATOM      3  C   UNL     1      -7.818  -1.250 128.203  0.00  0.00    +0.000 A 
ATOM      4  C   UNL     1      -7.061  -0.524 129.101  0.00  0.00    +0.000 A 
ATOM      5  C   UNL     1      -5.983   0.126 128.487  0.00  0.00    +0.000 A 
ATOM      6  C   UNL     1      -5.614  -0.177 127.139  0.00  0.00    +0.000 A 
ENDROOT
BRANCH   1  13
ATOM      7  C   UNL     1      -6.600  -1.070 123.968  0.00  0.00    +0.000 A 
ATOM      8  C   UNL     1      -6.359  -1.554 122.692  0.00  0.00    +0.000 A 
ATOM      9  C   UNL     1      -5.567  -2.692 122.534  0.00  0.00    +0.000 A 
ATOM     10  C   UNL     1      -5.060  -3.388 123.642  0.00  0.00    +0.000 A 
ATOM     11  C   UNL     1      -4.224  -4.619 123.494  0.00  0.00    +0.000 C 
ATOM     12  C   UNL     1      -5.307  -2.911 124.923  0.00  0.00    +0.000 A 
ATOM     13  C   UNL     1      -6.000  -1.717 125.098  0.00  0.00    +0.000 A 
BRANCH   7  15
ATOM     14  C   UNL     1      -8.621   0.184 123.580  0.00  0.00    +0.000 C 
ATOM     15  O   UNL     1      -7.324   0.087 124.177  0.00  0.00    +0.000 OA
ENDBRANCH   7  15
ENDBRANCH   1  13
BRANCH   4  16
ATOM     16  C   UNL     1      -7.390  -0.397 130.603  0.00  0.00    +0.000 C 
ATOM     17  O   UNL     1      -8.261   0.458 130.898  0.00  0.00    +0.000 OA
ATOM     18  N   UNL     1      -6.762  -1.124 131.661  0.00  0.00    +0.000 N 
BRANCH  18  19
ATOM     19  C   UNL     1      -5.598  -1.984 131.580  0.00  0.00    +0.000 C 
BRANCH  19  20
ATOM     20  C   UNL     1      -5.491  -3.080 130.661  0.00  0.00    +0.000 C 
ATOM     21  C   UNL     1      -5.520  -4.457 131.275  0.00  0.00    +0.000 C 
ATOM     22  C   UNL     1      -6.443  -4.105 130.162  0.00  0.00    +0.000 C 
ENDBRANCH  19  20
ENDBRANCH  18  19
BRANCH  18  23
ATOM     23  C   UNL     1      -7.373  -1.129 133.054  0.00  0.00    +0.000 C 
BRANCH  23  24
ATOM     24  C   UNL     1      -7.142  -2.441 133.943  0.00  0.00    +0.000 C 
ATOM     25  C   UNL     1      -8.205  -3.523 133.772  0.00  0.00    +0.000 C 
ATOM     26  C   UNL     1      -8.298  -4.275 135.035  0.00  0.00    +0.000 C 
ATOM     27  C   UNL     1      -7.986  -3.183 136.013  0.00  0.00    +0.000 C 
ATOM     28  O   UNL     1      -7.144  -2.200 135.364  0.00  0.00    +0.000 OA
ENDBRANCH  23  24
ENDBRANCH  18  23
ENDBRANCH   4  16
TORSDOF 7
ENDMDL
MODEL 6
REMARK VINA RESULT:      -7.4      2.514      8.619
REMARK  Name = CHEMBL474609
REMARK  9 active torsions:
REMARK  status: ('A' for Active; 'I' for Inactive)
REMARK    1  A    between atoms: C_1  and  O_2
REMARK    2  A    between atoms: O_2  and  C_3
REMARK    3  A    between atoms: C_6  and  C_7
REMARK    4  A    between atoms: C_9  and  C_10
REMARK    5  A    between atoms: C_13  and  C_14
REMARK    6  A    between atoms: N_16  and  C_17
REMARK    7  A    between atoms: N_16  and  C_21
REMARK    8  A    between atoms: C_17  and  C_18
REMARK    9  A    between atoms: C_21  and  C_22
REMARK                            x       y       z     vdW  Elec       q    Type
REMARK                         _______ _______ _______ _____ _____    ______ ____
ROOT
ATOM      1  C   UNL     1      -7.351  -1.791 127.332  0.00  0.00    +0.000 A 
ATOM      2  C   UNL     1      -7.697  -2.954 127.947  0.00  0.00    +0.000 A 
ATOM      3  C   UNL     1      -8.112  -2.923 129.261  0.00  0.00    +0.000 A 
ATOM      4  C   UNL     1      -7.599  -2.025 130.176  0.00  0.00    +0.000 A 
ATOM      5  C   UNL     1      -7.234  -0.810 129.583  0.00  0.00    +0.000 A 
ATOM      6  C   UNL     1      -7.181  -0.673 128.161  0.00  0.00    +0.000 A 
ENDROOT
BRANCH   1  13
ATOM      7  C   UNL     1      -8.445  -1.475 125.086  0.00  0.00    +0.000 A 
ATOM      8  C   UNL     1      -8.383  -1.569 123.705  0.00  0.00    +0.000 A 
ATOM      9  C   UNL     1      -7.236  -2.097 123.110  0.00  0.00    +0.000 A 
ATOM     10  C   UNL     1      -6.172  -2.586 123.882  0.00  0.00    +0.000 A 
ATOM     11  C   UNL     1      -4.942  -3.171 123.264  0.00  0.00    +0.000 C 
ATOM     12  C   UNL     1      -6.234  -2.502 125.268  0.00  0.00    +0.000 A 
ATOM     13  C   UNL     1      -7.320  -1.879 125.877  0.00  0.00    +0.000 A 
BRANCH   7  15
ATOM     14  C   UNL     1      -9.695   0.513 125.627  0.00  0.00    +0.000 C 
ATOM     15  O   UNL     1      -9.529  -0.905 125.724  0.00  0.00    +0.000 OA
ENDBRANCH   7  15
ENDBRANCH   1  13
BRANCH   4  16
ATOM     16  C   UNL     1      -7.486  -2.304 131.689  0.00  0.00    +0.000 C 
ATOM     17  O   UNL     1      -8.102  -1.505 132.436  0.00  0.00    +0.000 OA
ATOM     18  N   UNL     1      -6.717  -3.347 132.292  0.00  0.00    +0.000 N 
BRANCH  18  19
ATOM     19  C   UNL     1      -5.766  -4.234 131.651  0.00  0.00    +0.000 C 
BRANCH  19  20
ATOM     20  C   UNL     1      -4.490  -3.798 131.161  0.00  0.00    +0.000 C 
ATOM     21  C   UNL     1      -4.341  -3.760 129.661  0.00  0.00    +0.000 C 
ATOM     22  C   UNL     1      -4.010  -2.566 130.485  0.00  0.00    +0.000 C 
ENDBRANCH  19  20
ENDBRANCH  18  19
BRANCH  18  23
ATOM     23  C   UNL     1      -6.921  -3.699 133.757  0.00  0.00    +0.000 C 
BRANCH  23  24
ATOM     24  C   UNL     1      -6.173  -5.008 134.298  0.00  0.00    +0.000 C 
ATOM     25  C   UNL     1      -6.987  -5.848 135.280  0.00  0.00    +0.000 C 
ATOM     26  C   UNL     1      -6.046  -6.532 136.184  0.00  0.00    +0.000 C 
ATOM     27  C   UNL     1      -4.957  -5.505 136.254  0.00  0.00    +0.000 C 
ATOM     28  O   UNL     1      -4.959  -4.736 135.026  0.00  0.00    +0.000 OA
ENDBRANCH  23  24
ENDBRANCH  18  23
ENDBRANCH   4  16
TORSDOF 7
ENDMDL
MODEL 7
REMARK VINA RESULT:      -7.3      4.278      8.239
REMARK  Name = CHEMBL474609
REMARK  9 active torsions:
REMARK  status: ('A' for Active; 'I' for Inactive)
REMARK    1  A    between atoms: C_1  and  O_2
REMARK    2  A    between atoms: O_2  and  C_3
REMARK    3  A    between atoms: C_6  and  C_7
REMARK    4  A    between atoms: C_9  and  C_10
REMARK    5  A    between atoms: C_13  and  C_14
REMARK    6  A    between atoms: N_16  and  C_17
REMARK    7  A    between atoms: N_16  and  C_21
REMARK    8  A    between atoms: C_17  and  C_18
REMARK    9  A    between atoms: C_21  and  C_22
REMARK                            x       y       z     vdW  Elec       q    Type
REMARK                         _______ _______ _______ _____ _____    ______ ____
ROOT
ATOM      1  C   UNL     1      -7.538   0.017 127.181  0.00  0.00    +0.000 A 
ATOM      2  C   UNL     1      -8.482   0.995 127.249  0.00  0.00    +0.000 A 
ATOM      3  C   UNL     1      -8.086   2.300 127.443  0.00  0.00    +0.000 A 
ATOM      4  C   UNL     1      -6.989   2.632 128.213  0.00  0.00    +0.000 A 
ATOM      5  C   UNL     1      -5.990   1.652 128.167  0.00  0.00    +0.000 A 
ATOM      6  C   UNL     1      -6.243   0.370 127.585  0.00  0.00    +0.000 A 
ENDROOT
BRANCH   1  13
ATOM      7  C   UNL     1      -8.227  -2.396 127.386  0.00  0.00    +0.000 A 
ATOM      8  C   UNL     1      -8.684  -3.561 126.791  0.00  0.00    +0.000 A 
ATOM      9  C   UNL     1      -8.893  -3.583 125.411  0.00  0.00    +0.000 A 
ATOM     10  C   UNL     1      -8.593  -2.472 124.609  0.00  0.00    +0.000 A 
ATOM     11  C   UNL     1      -8.793  -2.482 123.127  0.00  0.00    +0.000 C 
ATOM     12  C   UNL     1      -8.126  -1.305 125.201  0.00  0.00    +0.000 A 
ATOM     13  C   UNL     1      -8.016  -1.225 126.587  0.00  0.00    +0.000 A 
BRANCH   7  15
ATOM     14  C   UNL     1      -6.991  -3.033 129.354  0.00  0.00    +0.000 C 
ATOM     15  O   UNL     1      -8.063  -2.300 128.754  0.00  0.00    +0.000 OA
ENDBRANCH   7  15
ENDBRANCH   1  13
BRANCH   4  16
ATOM     16  C   UNL     1      -6.853   3.954 128.997  0.00  0.00    +0.000 C 
ATOM     17  O   UNL     1      -6.278   4.889 128.388  0.00  0.00    +0.000 OA
ATOM     18  N   UNL     1      -7.276   4.175 130.344  0.00  0.00    +0.000 N 
BRANCH  18  19
ATOM     19  C   UNL     1      -7.751   3.193 131.299  0.00  0.00    +0.000 C 
BRANCH  19  20
ATOM     20  C   UNL     1      -8.966   2.451 131.127  0.00  0.00    +0.000 C 
ATOM     21  C   UNL     1      -8.815   0.953 131.049  0.00  0.00    +0.000 C 
ATOM     22  C   UNL     1      -9.770   1.568 132.011  0.00  0.00    +0.000 C 
ENDBRANCH  19  20
ENDBRANCH  18  19
BRANCH  18  23
ATOM     23  C   UNL     1      -7.357   5.588 130.899  0.00  0.00    +0.000 C 
BRANCH  23  24
ATOM     24  C   UNL     1      -8.789   6.305 130.852  0.00  0.00    +0.000 C 
ATOM     25  C   UNL     1      -9.582   6.230 132.154  0.00  0.00    +0.000 C 
ATOM     26  C   UNL     1     -11.016   6.258 131.816  0.00  0.00    +0.000 C 
ATOM     27  C   UNL     1     -10.989   5.539 130.502  0.00  0.00    +0.000 C 
ATOM     28  O   UNL     1      -9.697   5.746 129.881  0.00  0.00    +0.000 OA
ENDBRANCH  23  24
ENDBRANCH  18  23
ENDBRANCH   4  16
TORSDOF 7
ENDMDL
MODEL 8
REMARK VINA RESULT:      -7.1      5.166      8.260
REMARK  Name = CHEMBL474609
REMARK  9 active torsions:
REMARK  status: ('A' for Active; 'I' for Inactive)
REMARK    1  A    between atoms: C_1  and  O_2
REMARK    2  A    between atoms: O_2  and  C_3
REMARK    3  A    between atoms: C_6  and  C_7
REMARK    4  A    between atoms: C_9  and  C_10
REMARK    5  A    between atoms: C_13  and  C_14
REMARK    6  A    between atoms: N_16  and  C_17
REMARK    7  A    between atoms: N_16  and  C_21
REMARK    8  A    between atoms: C_17  and  C_18
REMARK    9  A    between atoms: C_21  and  C_22
REMARK                            x       y       z     vdW  Elec       q    Type
REMARK                         _______ _______ _______ _____ _____    ______ ____
ROOT
ATOM      1  C   UNL     1      -7.308   0.505 129.534  0.00  0.00    +0.000 A 
ATOM      2  C   UNL     1      -8.542   0.960 129.883  0.00  0.00    +0.000 A 
ATOM      3  C   UNL     1      -8.973   2.177 129.402  0.00  0.00    +0.000 A 
ATOM      4  C   UNL     1      -8.108   3.234 129.192  0.00  0.00    +0.000 A 
ATOM      5  C   UNL     1      -6.826   2.809 128.826  0.00  0.00    +0.000 A 
ATOM      6  C   UNL     1      -6.450   1.433 128.928  0.00  0.00    +0.000 A 
ENDROOT
BRANCH   1  13
ATOM      7  C   UNL     1      -6.147  -1.408 130.687  0.00  0.00    +0.000 A 
ATOM      8  C   UNL     1      -5.994  -2.772 130.875  0.00  0.00    +0.000 A 
ATOM      9  C   UNL     1      -6.768  -3.654 130.119  0.00  0.00    +0.000 A 
ATOM     10  C   UNL     1      -7.652  -3.189 129.133  0.00  0.00    +0.000 A 
ATOM     11  C   UNL     1      -8.476  -4.117 128.301  0.00  0.00    +0.000 C 
ATOM     12  C   UNL     1      -7.800  -1.821 128.935  0.00  0.00    +0.000 A 
ATOM     13  C   UNL     1      -7.121  -0.923 129.754  0.00  0.00    +0.000 A 
BRANCH   7  15
ATOM     14  C   UNL     1      -5.712  -0.456 132.858  0.00  0.00    +0.000 C 
ATOM     15  O   UNL     1      -5.452  -0.491 131.452  0.00  0.00    +0.000 OA
ENDBRANCH   7  15
ENDBRANCH   1  13
BRANCH   4  16
ATOM     16  C   UNL     1      -8.519   4.718 129.299  0.00  0.00    +0.000 C 
ATOM     17  O   UNL     1      -8.705   5.309 128.207  0.00  0.00    +0.000 OA
ATOM     18  N   UNL     1      -8.652   5.464 130.510  0.00  0.00    +0.000 N 
BRANCH  18  19
ATOM     19  C   UNL     1      -8.276   5.058 131.850  0.00  0.00    +0.000 C 
BRANCH  19  20
ATOM     20  C   UNL     1      -9.140   4.311 132.718  0.00  0.00    +0.000 C 
ATOM     21  C   UNL     1      -8.683   2.915 133.058  0.00  0.00    +0.000 C 
ATOM     22  C   UNL     1      -9.052   3.874 134.135  0.00  0.00    +0.000 C 
ENDBRANCH  19  20
ENDBRANCH  18  19
BRANCH  18  23
ATOM     23  C   UNL     1      -9.342   6.819 130.502  0.00  0.00    +0.000 C 
BRANCH  23  24
ATOM     24  C   UNL     1     -10.917   6.828 130.211  0.00  0.00    +0.000 C 
ATOM     25  C   UNL     1     -11.445   8.121 129.594  0.00  0.00    +0.000 C 
ATOM     26  C   UNL     1     -12.847   8.288 130.013  0.00  0.00    +0.000 C 
ATOM     27  C   UNL     1     -12.790   7.662 131.372  0.00  0.00    +0.000 C 
ATOM     28  O   UNL     1     -11.736   6.668 131.387  0.00  0.00    +0.000 OA
ENDBRANCH  23  24
ENDBRANCH  18  23
ENDBRANCH   4  16
TORSDOF 7
ENDMDL
MODEL 9
REMARK VINA RESULT:      -7.1      4.689      8.121
REMARK  Name = CHEMBL474609
REMARK  9 active torsions:
REMARK  status: ('A' for Active; 'I' for Inactive)
REMARK    1  A    between atoms: C_1  and  O_2
REMARK    2  A    between atoms: O_2  and  C_3
REMARK    3  A    between atoms: C_6  and  C_7
REMARK    4  A    between atoms: C_9  and  C_10
REMARK    5  A    between atoms: C_13  and  C_14
REMARK    6  A    between atoms: N_16  and  C_17
REMARK    7  A    between atoms: N_16  and  C_21
REMARK    8  A    between atoms: C_17  and  C_18
REMARK    9  A    between atoms: C_21  and  C_22
REMARK                            x       y       z     vdW  Elec       q    Type
REMARK                         _______ _______ _______ _____ _____    ______ ____
ROOT
ATOM      1  C   UNL     1      -7.956  -0.428 126.964  0.00  0.00    +0.000 A 
ATOM      2  C   UNL     1      -8.666   0.661 126.564  0.00  0.00    +0.000 A 
ATOM      3  C   UNL     1      -8.535   1.843 127.259  0.00  0.00    +0.000 A 
ATOM      4  C   UNL     1      -8.324   1.877 128.624  0.00  0.00    +0.000 A 
ATOM      5  C   UNL     1      -7.591   0.773 129.077  0.00  0.00    +0.000 A 
ATOM      6  C   UNL     1      -7.346  -0.347 128.223  0.00  0.00    +0.000 A 
ENDROOT
BRANCH   1  13
ATOM      7  C   UNL     1      -8.401  -2.780 126.183  0.00  0.00    +0.000 A 
ATOM      8  C   UNL     1      -8.293  -3.752 125.201  0.00  0.00    +0.000 A 
ATOM      9  C   UNL     1      -7.620  -3.450 124.016  0.00  0.00    +0.000 A 
ATOM     10  C   UNL     1      -7.000  -2.205 123.825  0.00  0.00    +0.000 A 
ATOM     11  C   UNL     1      -6.260  -1.868 122.571  0.00  0.00    +0.000 C 
ATOM     12  C   UNL     1      -7.098  -1.232 124.812  0.00  0.00    +0.000 A 
ATOM     13  C   UNL     1      -7.859  -1.474 125.953  0.00  0.00    +0.000 A 
BRANCH   7  15
ATOM     14  C   UNL     1      -8.520  -3.855 128.337  0.00  0.00    +0.000 C 
ATOM     15  O   UNL     1      -9.109  -3.006 127.348  0.00  0.00    +0.000 OA
ENDBRANCH   7  15
ENDBRANCH   1  13
BRANCH   4  16
ATOM     16  C   UNL     1      -8.797   3.024 129.542  0.00  0.00    +0.000 C 
ATOM     17  O   UNL     1     -10.041   3.156 129.647  0.00  0.00    +0.000 OA
ATOM     18  N   UNL     1      -7.951   3.951 130.225  0.00  0.00    +0.000 N 
BRANCH  18  19
ATOM     19  C   UNL     1      -6.520   4.125 130.075  0.00  0.00    +0.000 C 
BRANCH  19  20
ATOM     20  C   UNL     1      -5.890   4.433 128.824  0.00  0.00    +0.000 C 
ATOM     21  C   UNL     1      -4.383   4.419 128.825  0.00  0.00    +0.000 C 
ATOM     22  C   UNL     1      -5.146   3.633 127.818  0.00  0.00    +0.000 C 
ENDBRANCH  19  20
ENDBRANCH  18  19
BRANCH  18  23
ATOM     23  C   UNL     1      -8.517   4.838 131.322  0.00  0.00    +0.000 C 
BRANCH  23  24
ATOM     24  C   UNL     1      -9.138   6.243 130.870  0.00  0.00    +0.000 C 
ATOM     25  C   UNL     1     -10.636   6.390 131.124  0.00  0.00    +0.000 C 
ATOM     26  C   UNL     1     -11.183   7.308 130.109  0.00  0.00    +0.000 C 
ATOM     27  C   UNL     1     -10.291   6.980 128.952  0.00  0.00    +0.000 C 
ATOM     28  O   UNL     1      -9.016   6.517 129.460  0.00  0.00    +0.000 OA
ENDBRANCH  23  24
ENDBRANCH  18  23
ENDBRANCH   4  16
TORSDOF 7
ENDMDL
