MODEL 1
REMARK VINA RESULT:      -8.9      0.000      0.000
REMARK  Name = CHEMBL196974
REMARK  7 active torsions:
REMARK  status: ('A' for Active; 'I' for Inactive)
REMARK    1  A    between atoms: C_1  and  C_2
REMARK    2  A    between atoms: C_8  and  N_9
REMARK    3  A    between atoms: C_10  and  C_12
REMARK    4  A    between atoms: C_12  and  N_13
REMARK    5  A    between atoms: N_13  and  C_14
REMARK    6  A    between atoms: N_13  and  S_21
REMARK    7  A    between atoms: S_21  and  C_24
REMARK                            x       y       z     vdW  Elec       q    Type
REMARK                         _______ _______ _______ _____ _____    ______ ____
ROOT
ATOM      1  N   UNL     1      -8.085   2.496 123.822  0.00  0.00    +0.000 N 
ENDROOT
BRANCH   1   2
ATOM      2  C   UNL     1      -7.699   2.965 122.526  0.00  0.00    +0.000 A 
ATOM      3  C   UNL     1      -8.719   3.370 121.660  0.00  0.00    +0.000 A 
ATOM      4  C   UNL     1      -8.418   3.891 120.395  0.00  0.00    +0.000 A 
ATOM      5  C   UNL     1      -7.095   4.106 120.030  0.00  0.00    +0.000 A 
ATOM      6 CL   UNL     1      -6.738   4.808 118.503  0.00  0.00    +0.000 Cl
ATOM      7  C   UNL     1      -6.068   3.756 120.903  0.00  0.00    +0.000 A 
ATOM      8  C   UNL     1      -6.362   3.103 122.115  0.00  0.00    +0.000 A 
ENDBRANCH   1   2
BRANCH   1   9
ATOM      9  S   UNL     1      -8.502   0.859 124.105  0.00  0.00    +0.000 S 
ATOM     10  O   UNL     1      -8.976   0.790 125.475  0.00  0.00    +0.000 OA
ATOM     11  O   UNL     1      -9.390   0.475 123.023  0.00  0.00    +0.000 OA
BRANCH   9  12
ATOM     12  C   UNL     1      -7.090  -0.273 124.011  0.00  0.00    +0.000 A 
ATOM     13  C   UNL     1      -6.782  -1.028 122.887  0.00  0.00    +0.000 A 
ATOM     14  C   UNL     1      -6.031  -2.198 122.957  0.00  0.00    +0.000 A 
ATOM     15  C   UNL     1      -5.265  -2.423 124.079  0.00  0.00    +0.000 A 
ATOM     16  C   UNL     1      -5.340  -1.518 125.140  0.00  0.00    +0.000 A 
ATOM     17  C   UNL     1      -6.303  -0.490 125.142  0.00  0.00    +0.000 A 
ENDBRANCH   9  12
ENDBRANCH   1   9
BRANCH   1  18
ATOM     18  C   UNL     1      -8.392   3.506 124.931  0.00  0.00    +0.000 C 
BRANCH  18  20
ATOM     19  N   UNL     1      -6.420   3.124 126.544  0.00  0.00    +0.000 N 
ATOM     20  C   UNL     1      -7.131   3.979 125.709  0.00  0.00    +0.000 C 
ATOM     21  O   UNL     1      -6.826   5.175 125.636  0.00  0.00    +0.000 OA
ATOM     22  H   UNL     1      -6.987   2.523 127.138  0.00  0.00    +0.000 HD
BRANCH  19  30
ATOM     23  C   UNL     1      -5.715   4.513 129.228  0.00  0.00    +0.000 C 
ATOM     24  C   UNL     1      -4.708   4.029 128.245  0.00  0.00    +0.000 A 
ATOM     25  C   UNL     1      -3.355   4.301 128.556  0.00  0.00    +0.000 A 
ATOM     26 CL   UNL     1      -2.861   5.153 129.989  0.00  0.00    +0.000 Cl
ATOM     27  C   UNL     1      -2.341   3.920 127.697  0.00  0.00    +0.000 A 
ATOM     28  C   UNL     1      -2.660   3.262 126.517  0.00  0.00    +0.000 A 
ATOM     29  C   UNL     1      -4.000   3.004 126.174  0.00  0.00    +0.000 A 
ATOM     30  C   UNL     1      -5.060   3.373 127.023  0.00  0.00    +0.000 A 
ENDBRANCH  19  30
ENDBRANCH  18  20
ENDBRANCH   1  18
TORSDOF 6
ENDMDL
MODEL 2
REMARK VINA RESULT:      -8.8      2.923      3.442
REMARK  Name = CHEMBL196974
REMARK  7 active torsions:
REMARK  status: ('A' for Active; 'I' for Inactive)
REMARK    1  A    between atoms: C_1  and  C_2
REMARK    2  A    between atoms: C_8  and  N_9
REMARK    3  A    between atoms: C_10  and  C_12
REMARK    4  A    between atoms: C_12  and  N_13
REMARK    5  A    between atoms: N_13  and  C_14
REMARK    6  A    between atoms: N_13  and  S_21
REMARK    7  A    between atoms: S_21  and  C_24
REMARK                            x       y       z     vdW  Elec       q    Type
REMARK                         _______ _______ _______ _____ _____    ______ ____
ROOT
ATOM      1  N   UNL     1      -8.620   2.146 123.380  0.00  0.00    +0.000 N 
ENDROOT
BRANCH   1   2
ATOM      2  C   UNL     1      -7.981   2.767 122.259  0.00  0.00    +0.000 A 
ATOM      3  C   UNL     1      -8.807   3.365 121.302  0.00  0.00    +0.000 A 
ATOM      4  C   UNL     1      -8.255   4.039 120.205  0.00  0.00    +0.000 A 
ATOM      5  C   UNL     1      -6.879   4.207 120.113  0.00  0.00    +0.000 A 
ATOM      6 CL   UNL     1      -6.217   5.093 118.798  0.00  0.00    +0.000 Cl
ATOM      7  C   UNL     1      -6.046   3.660 121.086  0.00  0.00    +0.000 A 
ATOM      8  C   UNL     1      -6.587   2.863 122.113  0.00  0.00    +0.000 A 
ENDBRANCH   1   2
BRANCH   1   9
ATOM      9  S   UNL     1      -9.578   0.736 123.210  0.00  0.00    +0.000 S 
ATOM     10  O   UNL     1     -10.470   0.710 124.354  0.00  0.00    +0.000 OA
ATOM     11  O   UNL     1     -10.137   0.786 121.871  0.00  0.00    +0.000 OA
BRANCH   9  12
ATOM     12  C   UNL     1      -8.623  -0.802 123.289  0.00  0.00    +0.000 A 
ATOM     13  C   UNL     1      -9.197  -2.065 123.319  0.00  0.00    +0.000 A 
ATOM     14  C   UNL     1      -8.536  -3.173 123.841  0.00  0.00    +0.000 A 
ATOM     15  C   UNL     1      -7.168  -3.115 123.987  0.00  0.00    +0.000 A 
ATOM     16  C   UNL     1      -6.508  -1.920 123.695  0.00  0.00    +0.000 A 
ATOM     17  C   UNL     1      -7.234  -0.745 123.421  0.00  0.00    +0.000 A 
ENDBRANCH   9  12
ENDBRANCH   1   9
BRANCH   1  18
ATOM     18  C   UNL     1      -8.677   2.883 124.721  0.00  0.00    +0.000 C 
BRANCH  18  20
ATOM     19  N   UNL     1      -8.763   1.272 126.729  0.00  0.00    +0.000 N 
ATOM     20  C   UNL     1      -8.021   2.098 125.892  0.00  0.00    +0.000 C 
ATOM     21  O   UNL     1      -6.822   2.300 126.118  0.00  0.00    +0.000 OA
ATOM     22  H   UNL     1      -9.662   1.646 127.025  0.00  0.00    +0.000 HD
BRANCH  19  30
ATOM     23  C   UNL     1      -7.961   1.730 129.692  0.00  0.00    +0.000 C 
ATOM     24  C   UNL     1      -7.793   0.440 128.968  0.00  0.00    +0.000 A 
ATOM     25  C   UNL     1      -7.160  -0.599 129.688  0.00  0.00    +0.000 A 
ATOM     26 CL   UNL     1      -6.591  -0.416 131.321  0.00  0.00    +0.000 Cl
ATOM     27  C   UNL     1      -6.930  -1.829 129.100  0.00  0.00    +0.000 A 
ATOM     28  C   UNL     1      -7.327  -2.041 127.788  0.00  0.00    +0.000 A 
ATOM     29  C   UNL     1      -7.936  -1.014 127.043  0.00  0.00    +0.000 A 
ATOM     30  C   UNL     1      -8.191   0.251 127.606  0.00  0.00    +0.000 A 
ENDBRANCH  19  30
ENDBRANCH  18  20
ENDBRANCH   1  18
TORSDOF 6
ENDMDL
MODEL 3
REMARK VINA RESULT:      -8.7      2.484      6.035
REMARK  Name = CHEMBL196974
REMARK  7 active torsions:
REMARK  status: ('A' for Active; 'I' for Inactive)
REMARK    1  A    between atoms: C_1  and  C_2
REMARK    2  A    between atoms: C_8  and  N_9
REMARK    3  A    between atoms: C_10  and  C_12
REMARK    4  A    between atoms: C_12  and  N_13
REMARK    5  A    between atoms: N_13  and  C_14
REMARK    6  A    between atoms: N_13  and  S_21
REMARK    7  A    between atoms: S_21  and  C_24
REMARK                            x       y       z     vdW  Elec       q    Type
REMARK                         _______ _______ _______ _____ _____    ______ ____
ROOT
ATOM      1  N   UNL     1      -8.728   0.474 125.374  0.00  0.00    +0.000 N 
ENDROOT
BRANCH   1   2
ATOM      2  C   UNL     1      -7.659   0.572 126.322  0.00  0.00    +0.000 A 
ATOM      3  C   UNL     1      -7.992   0.472 127.676  0.00  0.00    +0.000 A 
ATOM      4  C   UNL     1      -6.996   0.504 128.660  0.00  0.00    +0.000 A 
ATOM      5  C   UNL     1      -5.656   0.534 128.292  0.00  0.00    +0.000 A 
ATOM      6 CL   UNL     1      -4.440   0.505 129.506  0.00  0.00    +0.000 Cl
ATOM      7  C   UNL     1      -5.307   0.582 126.945  0.00  0.00    +0.000 A 
ATOM      8  C   UNL     1      -6.307   0.692 125.959  0.00  0.00    +0.000 A 
ENDBRANCH   1   2
BRANCH   1   9
ATOM      9  S   UNL     1      -9.068  -0.984 124.541  0.00  0.00    +0.000 S 
ATOM     10  O   UNL     1      -9.754  -1.842 125.488  0.00  0.00    +0.000 OA
ATOM     11  O   UNL     1      -9.737  -0.600 123.311  0.00  0.00    +0.000 OA
BRANCH   9  12
ATOM     12  C   UNL     1      -7.583  -1.890 124.034  0.00  0.00    +0.000 A 
ATOM     13  C   UNL     1      -6.915  -2.792 124.851  0.00  0.00    +0.000 A 
ATOM     14  C   UNL     1      -5.573  -3.114 124.667  0.00  0.00    +0.000 A 
ATOM     15  C   UNL     1      -4.990  -2.835 123.450  0.00  0.00    +0.000 A 
ATOM     16  C   UNL     1      -5.737  -2.160 122.483  0.00  0.00    +0.000 A 
ATOM     17  C   UNL     1      -7.000  -1.621 122.795  0.00  0.00    +0.000 A 
ENDBRANCH   9  12
ENDBRANCH   1   9
BRANCH   1  18
ATOM     18  C   UNL     1      -9.424   1.747 124.886  0.00  0.00    +0.000 C 
BRANCH  18  20
ATOM     19  N   UNL     1      -7.644   2.276 123.101  0.00  0.00    +0.000 N 
ATOM     20  C   UNL     1      -8.483   2.718 124.118  0.00  0.00    +0.000 C 
ATOM     21  O   UNL     1      -8.433   3.893 124.501  0.00  0.00    +0.000 OA
ATOM     22  H   UNL     1      -7.160   1.400 123.285  0.00  0.00    +0.000 HD
BRANCH  19  30
ATOM     23  C   UNL     1      -9.012   3.341 120.527  0.00  0.00    +0.000 C 
ATOM     24  C   UNL     1      -7.605   3.636 120.912  0.00  0.00    +0.000 A 
ATOM     25  C   UNL     1      -6.853   4.395 119.984  0.00  0.00    +0.000 A 
ATOM     26 CL   UNL     1      -7.499   4.960 118.472  0.00  0.00    +0.000 Cl
ATOM     27  C   UNL     1      -5.528   4.701 120.230  0.00  0.00    +0.000 A 
ATOM     28  C   UNL     1      -4.933   4.257 121.403  0.00  0.00    +0.000 A 
ATOM     29  C   UNL     1      -5.653   3.479 122.328  0.00  0.00    +0.000 A 
ATOM     30  C   UNL     1      -7.005   3.148 122.115  0.00  0.00    +0.000 A 
ENDBRANCH  19  30
ENDBRANCH  18  20
ENDBRANCH   1  18
TORSDOF 6
ENDMDL
MODEL 4
REMARK VINA RESULT:      -8.4      6.493      7.967
REMARK  Name = CHEMBL196974
REMARK  7 active torsions:
REMARK  status: ('A' for Active; 'I' for Inactive)
REMARK    1  A    between atoms: C_1  and  C_2
REMARK    2  A    between atoms: C_8  and  N_9
REMARK    3  A    between atoms: C_10  and  C_12
REMARK    4  A    between atoms: C_12  and  N_13
REMARK    5  A    between atoms: N_13  and  C_14
REMARK    6  A    between atoms: N_13  and  S_21
REMARK    7  A    between atoms: S_21  and  C_24
REMARK                            x       y       z     vdW  Elec       q    Type
REMARK                         _______ _______ _______ _____ _____    ______ ____
ROOT
ATOM      1  N   UNL     1      -9.673   5.948 130.479  0.00  0.00    +0.000 N 
ENDROOT
BRANCH   1   2
ATOM      2  C   UNL     1     -10.635   6.864 129.943  0.00  0.00    +0.000 A 
ATOM      3  C   UNL     1     -11.750   7.158 130.733  0.00  0.00    +0.000 A 
ATOM      4  C   UNL     1     -12.707   8.084 130.300  0.00  0.00    +0.000 A 
ATOM      5  C   UNL     1     -12.502   8.797 129.125  0.00  0.00    +0.000 A 
ATOM      6 CL   UNL     1     -13.649   9.980 128.637  0.00  0.00    +0.000 Cl
ATOM      7  C   UNL     1     -11.369   8.552 128.353  0.00  0.00    +0.000 A 
ATOM      8  C   UNL     1     -10.478   7.523 128.712  0.00  0.00    +0.000 A 
ENDBRANCH   1   2
BRANCH   1   9
ATOM      9  S   UNL     1      -9.693   4.281 130.086  0.00  0.00    +0.000 S 
ATOM     10  O   UNL     1     -11.086   3.875 130.106  0.00  0.00    +0.000 OA
ATOM     11  O   UNL     1      -8.928   4.146 128.859  0.00  0.00    +0.000 OA
BRANCH   9  12
ATOM     12  C   UNL     1      -8.853   3.240 131.309  0.00  0.00    +0.000 A 
ATOM     13  C   UNL     1      -9.239   3.151 132.639  0.00  0.00    +0.000 A 
ATOM     14  C   UNL     1      -8.362   2.757 133.646  0.00  0.00    +0.000 A 
ATOM     15  C   UNL     1      -7.212   2.087 133.292  0.00  0.00    +0.000 A 
ATOM     16  C   UNL     1      -6.923   1.910 131.937  0.00  0.00    +0.000 A 
ATOM     17  C   UNL     1      -7.697   2.548 130.947  0.00  0.00    +0.000 A 
ENDBRANCH   9  12
ENDBRANCH   1   9
BRANCH   1  18
ATOM     18  C   UNL     1      -8.766   6.394 131.629  0.00  0.00    +0.000 C 
BRANCH  18  20
ATOM     19  N   UNL     1      -6.201   6.159 131.673  0.00  0.00    +0.000 N 
ATOM     20  C   UNL     1      -7.333   6.792 131.173  0.00  0.00    +0.000 C 
ATOM     21  O   UNL     1      -7.222   7.760 130.412  0.00  0.00    +0.000 OA
ATOM     22  H   UNL     1      -6.207   5.982 132.675  0.00  0.00    +0.000 HD
BRANCH  19  30
ATOM     23  C   UNL     1      -5.359   4.616 129.115  0.00  0.00    +0.000 C 
ATOM     24  C   UNL     1      -4.455   5.507 129.892  0.00  0.00    +0.000 A 
ATOM     25  C   UNL     1      -3.114   5.574 129.446  0.00  0.00    +0.000 A 
ATOM     26 CL   UNL     1      -2.521   4.678 128.079  0.00  0.00    +0.000 Cl
ATOM     27  C   UNL     1      -2.185   6.349 130.113  0.00  0.00    +0.000 A 
ATOM     28  C   UNL     1      -2.576   7.069 131.233  0.00  0.00    +0.000 A 
ATOM     29  C   UNL     1      -3.899   6.999 131.710  0.00  0.00    +0.000 A 
ATOM     30  C   UNL     1      -4.875   6.223 131.058  0.00  0.00    +0.000 A 
ENDBRANCH  19  30
ENDBRANCH  18  20
ENDBRANCH   1  18
TORSDOF 6
ENDMDL
MODEL 5
REMARK VINA RESULT:      -8.4      3.455      6.959
REMARK  Name = CHEMBL196974
REMARK  7 active torsions:
REMARK  status: ('A' for Active; 'I' for Inactive)
REMARK    1  A    between atoms: C_1  and  C_2
REMARK    2  A    between atoms: C_8  and  N_9
REMARK    3  A    between atoms: C_10  and  C_12
REMARK    4  A    between atoms: C_12  and  N_13
REMARK    5  A    between atoms: N_13  and  C_14
REMARK    6  A    between atoms: N_13  and  S_21
REMARK    7  A    between atoms: S_21  and  C_24
REMARK                            x       y       z     vdW  Elec       q    Type
REMARK                         _______ _______ _______ _____ _____    ______ ____
ROOT
ATOM      1  N   UNL     1      -8.030  -1.369 127.374  0.00  0.00    +0.000 N 
ENDROOT
BRANCH   1   2
ATOM      2  C   UNL     1      -7.342  -2.211 128.306  0.00  0.00    +0.000 A 
ATOM      3  C   UNL     1      -5.952  -2.300 128.185  0.00  0.00    +0.000 A 
ATOM      4  C   UNL     1      -5.204  -3.061 129.093  0.00  0.00    +0.000 A 
ATOM      5  C   UNL     1      -5.828  -3.651 130.184  0.00  0.00    +0.000 A 
ATOM      6 CL   UNL     1      -4.891  -4.526 131.329  0.00  0.00    +0.000 Cl
ATOM      7  C   UNL     1      -7.206  -3.527 130.347  0.00  0.00    +0.000 A 
ATOM      8  C   UNL     1      -7.979  -2.883 129.362  0.00  0.00    +0.000 A 
ENDBRANCH   1   2
BRANCH   1   9
ATOM      9  S   UNL     1      -8.781  -1.999 125.969  0.00  0.00    +0.000 S 
ATOM     10  O   UNL     1      -9.364  -3.270 126.355  0.00  0.00    +0.000 OA
ATOM     11  O   UNL     1      -9.642  -0.944 125.463  0.00  0.00    +0.000 OA
BRANCH   9  12
ATOM     12  C   UNL     1      -7.617  -2.370 124.631  0.00  0.00    +0.000 A 
ATOM     13  C   UNL     1      -6.613  -3.324 124.727  0.00  0.00    +0.000 A 
ATOM     14  C   UNL     1      -5.468  -3.286 123.935  0.00  0.00    +0.000 A 
ATOM     15  C   UNL     1      -5.488  -2.525 122.788  0.00  0.00    +0.000 A 
ATOM     16  C   UNL     1      -6.616  -1.750 122.510  0.00  0.00    +0.000 A 
ATOM     17  C   UNL     1      -7.645  -1.611 123.461  0.00  0.00    +0.000 A 
ENDBRANCH   9  12
ENDBRANCH   1   9
BRANCH   1  18
ATOM     18  C   UNL     1      -7.880   0.151 127.475  0.00  0.00    +0.000 C 
BRANCH  18  20
ATOM     19  N   UNL     1      -7.816   1.707 125.423  0.00  0.00    +0.000 N 
ATOM     20  C   UNL     1      -7.172   0.790 126.247  0.00  0.00    +0.000 C 
ATOM     21  O   UNL     1      -6.036   0.390 125.965  0.00  0.00    +0.000 OA
ATOM     22  H   UNL     1      -8.779   1.479 125.186  0.00  0.00    +0.000 HD
BRANCH  19  30
ATOM     23  C   UNL     1      -8.682   2.176 122.480  0.00  0.00    +0.000 C 
ATOM     24  C   UNL     1      -7.501   2.819 123.119  0.00  0.00    +0.000 A 
ATOM     25  C   UNL     1      -6.707   3.634 122.279  0.00  0.00    +0.000 A 
ATOM     26 CL   UNL     1      -7.055   3.887 120.594  0.00  0.00    +0.000 Cl
ATOM     27  C   UNL     1      -5.572   4.255 122.764  0.00  0.00    +0.000 A 
ATOM     28  C   UNL     1      -5.212   4.075 124.092  0.00  0.00    +0.000 A 
ATOM     29  C   UNL     1      -5.972   3.248 124.940  0.00  0.00    +0.000 A 
ATOM     30  C   UNL     1      -7.136   2.600 124.485  0.00  0.00    +0.000 A 
ENDBRANCH  19  30
ENDBRANCH  18  20
ENDBRANCH   1  18
TORSDOF 6
ENDMDL
MODEL 6
REMARK VINA RESULT:      -8.4      1.682      2.191
REMARK  Name = CHEMBL196974
REMARK  7 active torsions:
REMARK  status: ('A' for Active; 'I' for Inactive)
REMARK    1  A    between atoms: C_1  and  C_2
REMARK    2  A    between atoms: C_8  and  N_9
REMARK    3  A    between atoms: C_10  and  C_12
REMARK    4  A    between atoms: C_12  and  N_13
REMARK    5  A    between atoms: N_13  and  C_14
REMARK    6  A    between atoms: N_13  and  S_21
REMARK    7  A    between atoms: S_21  and  C_24
REMARK                            x       y       z     vdW  Elec       q    Type
REMARK                         _______ _______ _______ _____ _____    ______ ____
ROOT
ATOM      1  N   UNL     1      -8.674   1.042 124.264  0.00  0.00    +0.000 N 
ENDROOT
BRANCH   1   2
ATOM      2  C   UNL     1      -8.099   1.802 123.195  0.00  0.00    +0.000 A 
ATOM      3  C   UNL     1      -8.967   2.583 122.425  0.00  0.00    +0.000 A 
ATOM      4  C   UNL     1      -8.473   3.395 121.397  0.00  0.00    +0.000 A 
ATOM      5  C   UNL     1      -7.102   3.510 121.199  0.00  0.00    +0.000 A 
ATOM      6 CL   UNL     1      -6.504   4.561 119.978  0.00  0.00    +0.000 Cl
ATOM      7  C   UNL     1      -6.223   2.778 121.993  0.00  0.00    +0.000 A 
ATOM      8  C   UNL     1      -6.720   1.854 122.932  0.00  0.00    +0.000 A 
ENDBRANCH   1   2
BRANCH   1   9
ATOM      9  S   UNL     1      -9.027  -0.627 124.100  0.00  0.00    +0.000 S 
ATOM     10  O   UNL     1      -9.656  -1.033 125.343  0.00  0.00    +0.000 OA
ATOM     11  O   UNL     1      -9.757  -0.765 122.853  0.00  0.00    +0.000 OA
BRANCH   9  12
ATOM     12  C   UNL     1      -7.551  -1.664 123.927  0.00  0.00    +0.000 A 
ATOM     13  C   UNL     1      -6.919  -2.287 124.993  0.00  0.00    +0.000 A 
ATOM     14  C   UNL     1      -5.580  -2.669 124.948  0.00  0.00    +0.000 A 
ATOM     15  C   UNL     1      -4.968  -2.777 123.719  0.00  0.00    +0.000 A 
ATOM     16  C   UNL     1      -5.681  -2.414 122.575  0.00  0.00    +0.000 A 
ATOM     17  C   UNL     1      -6.939  -1.788 122.679  0.00  0.00    +0.000 A 
ENDBRANCH   9  12
ENDBRANCH   1   9
BRANCH   1  18
ATOM     18  C   UNL     1      -9.233   1.767 125.491  0.00  0.00    +0.000 C 
BRANCH  18  20
ATOM     19  N   UNL     1      -6.933   1.406 126.593  0.00  0.00    +0.000 N 
ATOM     20  C   UNL     1      -8.168   2.043 126.590  0.00  0.00    +0.000 C 
ATOM     21  O   UNL     1      -8.487   2.789 127.524  0.00  0.00    +0.000 OA
ATOM     22  H   UNL     1      -6.956   0.411 126.378  0.00  0.00    +0.000 HD
BRANCH  19  30
ATOM     23  C   UNL     1      -4.892   3.538 125.633  0.00  0.00    +0.000 C 
ATOM     24  C   UNL     1      -4.803   2.817 126.933  0.00  0.00    +0.000 A 
ATOM     25  C   UNL     1      -3.664   3.098 127.723  0.00  0.00    +0.000 A 
ATOM     26 CL   UNL     1      -2.417   4.207 127.234  0.00  0.00    +0.000 Cl
ATOM     27  C   UNL     1      -3.469   2.463 128.935  0.00  0.00    +0.000 A 
ATOM     28  C   UNL     1      -4.406   1.540 129.378  0.00  0.00    +0.000 A 
ATOM     29  C   UNL     1      -5.535   1.226 128.598  0.00  0.00    +0.000 A 
ATOM     30  C   UNL     1      -5.770   1.853 127.360  0.00  0.00    +0.000 A 
ENDBRANCH  19  30
ENDBRANCH  18  20
ENDBRANCH   1  18
TORSDOF 6
ENDMDL
MODEL 7
REMARK VINA RESULT:      -8.3      3.815      6.193
REMARK  Name = CHEMBL196974
REMARK  7 active torsions:
REMARK  status: ('A' for Active; 'I' for Inactive)
REMARK    1  A    between atoms: C_1  and  C_2
REMARK    2  A    between atoms: C_8  and  N_9
REMARK    3  A    between atoms: C_10  and  C_12
REMARK    4  A    between atoms: C_12  and  N_13
REMARK    5  A    between atoms: N_13  and  C_14
REMARK    6  A    between atoms: N_13  and  S_21
REMARK    7  A    between atoms: S_21  and  C_24
REMARK                            x       y       z     vdW  Elec       q    Type
REMARK                         _______ _______ _______ _____ _____    ______ ____
ROOT
ATOM      1  N   UNL     1      -7.109   1.593 125.075  0.00  0.00    +0.000 N 
ENDROOT
BRANCH   1   2
ATOM      2  C   UNL     1      -7.818   0.415 124.675  0.00  0.00    +0.000 A 
ATOM      3  C   UNL     1      -7.408  -0.208 123.492  0.00  0.00    +0.000 A 
ATOM      4  C   UNL     1      -8.017  -1.394 123.062  0.00  0.00    +0.000 A 
ATOM      5  C   UNL     1      -8.965  -2.018 123.863  0.00  0.00    +0.000 A 
ATOM      6 CL   UNL     1      -9.656  -3.508 123.359  0.00  0.00    +0.000 Cl
ATOM      7  C   UNL     1      -9.345  -1.436 125.070  0.00  0.00    +0.000 A 
ATOM      8  C   UNL     1      -8.840  -0.174 125.437  0.00  0.00    +0.000 A 
ENDBRANCH   1   2
BRANCH   1   9
ATOM      9  S   UNL     1      -7.518   3.144 124.473  0.00  0.00    +0.000 S 
ATOM     10  O   UNL     1      -8.928   3.333 124.758  0.00  0.00    +0.000 OA
ATOM     11  O   UNL     1      -6.547   4.065 125.035  0.00  0.00    +0.000 OA
BRANCH   9  12
ATOM     12  C   UNL     1      -7.351   3.288 122.674  0.00  0.00    +0.000 A 
ATOM     13  C   UNL     1      -6.130   3.355 122.017  0.00  0.00    +0.000 A 
ATOM     14  C   UNL     1      -5.993   3.922 120.753  0.00  0.00    +0.000 A 
ATOM     15  C   UNL     1      -7.119   4.081 119.977  0.00  0.00    +0.000 A 
ATOM     16  C   UNL     1      -8.364   3.755 120.520  0.00  0.00    +0.000 A 
ATOM     17  C   UNL     1      -8.492   3.433 121.885  0.00  0.00    +0.000 A 
ENDBRANCH   9  12
ENDBRANCH   1   9
BRANCH   1  18
ATOM     18  C   UNL     1      -5.795   1.458 125.849  0.00  0.00    +0.000 C 
BRANCH  18  20
ATOM     19  N   UNL     1      -6.181   0.045 127.968  0.00  0.00    +0.000 N 
ATOM     20  C   UNL     1      -5.689   0.143 126.672  0.00  0.00    +0.000 C 
ATOM     21  O   UNL     1      -5.067  -0.800 126.168  0.00  0.00    +0.000 OA
ATOM     22  H   UNL     1      -5.988   0.844 128.569  0.00  0.00    +0.000 HD
BRANCH  19  30
ATOM     23  C   UNL     1      -4.165  -1.375 129.853  0.00  0.00    +0.000 C 
ATOM     24  C   UNL     1      -5.518  -1.901 129.523  0.00  0.00    +0.000 A 
ATOM     25  C   UNL     1      -5.843  -3.166 130.067  0.00  0.00    +0.000 A 
ATOM     26 CL   UNL     1      -4.749  -4.084 131.059  0.00  0.00    +0.000 Cl
ATOM     27  C   UNL     1      -7.063  -3.758 129.800  0.00  0.00    +0.000 A 
ATOM     28  C   UNL     1      -7.977  -3.100 128.990  0.00  0.00    +0.000 A 
ATOM     29  C   UNL     1      -7.667  -1.852 128.417  0.00  0.00    +0.000 A 
ATOM     30  C   UNL     1      -6.436  -1.215 128.666  0.00  0.00    +0.000 A 
ENDBRANCH  19  30
ENDBRANCH  18  20
ENDBRANCH   1  18
TORSDOF 6
ENDMDL
MODEL 8
REMARK VINA RESULT:      -8.1      4.536      6.984
REMARK  Name = CHEMBL196974
REMARK  7 active torsions:
REMARK  status: ('A' for Active; 'I' for Inactive)
REMARK    1  A    between atoms: C_1  and  C_2
REMARK    2  A    between atoms: C_8  and  N_9
REMARK    3  A    between atoms: C_10  and  C_12
REMARK    4  A    between atoms: C_12  and  N_13
REMARK    5  A    between atoms: N_13  and  C_14
REMARK    6  A    between atoms: N_13  and  S_21
REMARK    7  A    between atoms: S_21  and  C_24
REMARK                            x       y       z     vdW  Elec       q    Type
REMARK                         _______ _______ _______ _____ _____    ______ ____
ROOT
ATOM      1  N   UNL     1      -7.611   3.170 127.018  0.00  0.00    +0.000 N 
ENDROOT
BRANCH   1   2
ATOM      2  C   UNL     1      -7.045   1.869 127.208  0.00  0.00    +0.000 A 
ATOM      3  C   UNL     1      -7.822   0.924 127.885  0.00  0.00    +0.000 A 
ATOM      4  C   UNL     1      -7.359  -0.386 128.062  0.00  0.00    +0.000 A 
ATOM      5  C   UNL     1      -6.165  -0.787 127.476  0.00  0.00    +0.000 A 
ATOM      6 CL   UNL     1      -5.639  -2.414 127.643  0.00  0.00    +0.000 Cl
ATOM      7  C   UNL     1      -5.405   0.130 126.754  0.00  0.00    +0.000 A 
ATOM      8  C   UNL     1      -5.796   1.481 126.693  0.00  0.00    +0.000 A 
ENDBRANCH   1   2
BRANCH   1   9
ATOM      9  S   UNL     1      -8.298   3.649 125.523  0.00  0.00    +0.000 S 
ATOM     10  O   UNL     1      -9.316   2.665 125.210  0.00  0.00    +0.000 OA
ATOM     11  O   UNL     1      -8.676   5.042 125.680  0.00  0.00    +0.000 OA
BRANCH   9  12
ATOM     12  C   UNL     1      -7.124   3.608 124.143  0.00  0.00    +0.000 A 
ATOM     13  C   UNL     1      -5.855   4.167 124.195  0.00  0.00    +0.000 A 
ATOM     14  C   UNL     1      -5.161   4.551 123.050  0.00  0.00    +0.000 A 
ATOM     15  C   UNL     1      -5.560   4.038 121.836  0.00  0.00    +0.000 A 
ATOM     16  C   UNL     1      -6.696   3.228 121.785  0.00  0.00    +0.000 A 
ATOM     17  C   UNL     1      -7.521   3.074 122.916  0.00  0.00    +0.000 A 
ENDBRANCH   9  12
ENDBRANCH   1   9
BRANCH   1  18
ATOM     18  C   UNL     1      -7.375   4.257 128.070  0.00  0.00    +0.000 C 
BRANCH  18  20
ATOM     19  N   UNL     1      -8.825   5.890 129.436  0.00  0.00    +0.000 N 
ATOM     20  C   UNL     1      -8.650   4.628 128.879  0.00  0.00    +0.000 C 
ATOM     21  O   UNL     1      -9.475   3.732 129.094  0.00  0.00    +0.000 OA
ATOM     22  H   UNL     1      -8.003   6.284 129.888  0.00  0.00    +0.000 HD
BRANCH  19  30
ATOM     23  C   UNL     1     -10.493   8.033 127.934  0.00  0.00    +0.000 C 
ATOM     24  C   UNL     1     -10.886   7.425 129.235  0.00  0.00    +0.000 A 
ATOM     25  C   UNL     1     -12.065   7.933 129.827  0.00  0.00    +0.000 A 
ATOM     26 CL   UNL     1     -13.021   9.197 129.112  0.00  0.00    +0.000 Cl
ATOM     27  C   UNL     1     -12.505   7.458 131.048  0.00  0.00    +0.000 A 
ATOM     28  C   UNL     1     -11.777   6.470 131.697  0.00  0.00    +0.000 A 
ATOM     29  C   UNL     1     -10.587   5.967 131.139  0.00  0.00    +0.000 A 
ATOM     30  C   UNL     1     -10.107   6.423 129.896  0.00  0.00    +0.000 A 
ENDBRANCH  19  30
ENDBRANCH  18  20
ENDBRANCH   1  18
TORSDOF 6
ENDMDL
MODEL 9
REMARK VINA RESULT:      -8.0      6.502      9.098
REMARK  Name = CHEMBL196974
REMARK  7 active torsions:
REMARK  status: ('A' for Active; 'I' for Inactive)
REMARK    1  A    between atoms: C_1  and  C_2
REMARK    2  A    between atoms: C_8  and  N_9
REMARK    3  A    between atoms: C_10  and  C_12
REMARK    4  A    between atoms: C_12  and  N_13
REMARK    5  A    between atoms: N_13  and  C_14
REMARK    6  A    between atoms: N_13  and  S_21
REMARK    7  A    between atoms: S_21  and  C_24
REMARK                            x       y       z     vdW  Elec       q    Type
REMARK                         _______ _______ _______ _____ _____    ______ ____
ROOT
ATOM      1  N   UNL     1      -8.982   5.015 131.175  0.00  0.00    +0.000 N 
ENDROOT
BRANCH   1   2
ATOM      2  C   UNL     1      -8.465   3.725 131.522  0.00  0.00    +0.000 A 
ATOM      3  C   UNL     1      -8.454   3.382 132.877  0.00  0.00    +0.000 A 
ATOM      4  C   UNL     1      -8.013   2.118 133.289  0.00  0.00    +0.000 A 
ATOM      5  C   UNL     1      -7.678   1.156 132.344  0.00  0.00    +0.000 A 
ATOM      6 CL   UNL     1      -7.203  -0.413 132.859  0.00  0.00    +0.000 Cl
ATOM      7  C   UNL     1      -7.734   1.467 130.988  0.00  0.00    +0.000 A 
ATOM      8  C   UNL     1      -8.041   2.778 130.575  0.00  0.00    +0.000 A 
ENDBRANCH   1   2
BRANCH   1   9
ATOM      9  S   UNL     1     -10.014   5.243 129.826  0.00  0.00    +0.000 S 
ATOM     10  O   UNL     1      -9.149   5.341 128.665  0.00  0.00    +0.000 OA
ATOM     11  O   UNL     1     -11.005   4.184 129.891  0.00  0.00    +0.000 OA
BRANCH   9  12
ATOM     12  C   UNL     1     -10.945   6.796 129.884  0.00  0.00    +0.000 A 
ATOM     13  C   UNL     1     -11.885   7.094 130.861  0.00  0.00    +0.000 A 
ATOM     14  C   UNL     1     -12.903   8.022 130.659  0.00  0.00    +0.000 A 
ATOM     15  C   UNL     1     -12.771   8.932 129.634  0.00  0.00    +0.000 A 
ATOM     16  C   UNL     1     -11.670   8.832 128.781  0.00  0.00    +0.000 A 
ATOM     17  C   UNL     1     -10.800   7.726 128.854  0.00  0.00    +0.000 A 
ENDBRANCH   9  12
ENDBRANCH   1   9
BRANCH   1  18
ATOM     18  C   UNL     1      -8.410   6.265 131.848  0.00  0.00    +0.000 C 
BRANCH  18  20
ATOM     19  N   UNL     1      -5.840   6.117 131.760  0.00  0.00    +0.000 N 
ATOM     20  C   UNL     1      -7.019   6.688 131.296  0.00  0.00    +0.000 C 
ATOM     21  O   UNL     1      -6.983   7.622 130.487  0.00  0.00    +0.000 OA
ATOM     22  H   UNL     1      -5.786   5.987 132.769  0.00  0.00    +0.000 HD
BRANCH  19  30
ATOM     23  C   UNL     1      -5.174   4.688 129.087  0.00  0.00    +0.000 C 
ATOM     24  C   UNL     1      -4.212   5.531 129.850  0.00  0.00    +0.000 A 
ATOM     25  C   UNL     1      -2.899   5.603 129.327  0.00  0.00    +0.000 A 
ATOM     26 CL   UNL     1      -2.401   4.767 127.887  0.00  0.00    +0.000 Cl
ATOM     27  C   UNL     1      -1.921   6.336 129.973  0.00  0.00    +0.000 A 
ATOM     28  C   UNL     1      -2.235   7.006 131.147  0.00  0.00    +0.000 A 
ATOM     29  C   UNL     1      -3.528   6.928 131.699  0.00  0.00    +0.000 A 
ATOM     30  C   UNL     1      -4.552   6.195 131.071  0.00  0.00    +0.000 A 
ENDBRANCH  19  30
ENDBRANCH  18  20
ENDBRANCH   1  18
TORSDOF 6
ENDMDL
