MODEL 1
REMARK VINA RESULT:      -7.9      0.000      0.000
REMARK  Name = CHEMBL590349
REMARK  8 active torsions:
REMARK  status: ('A' for Active; 'I' for Inactive)
REMARK    1  A    between atoms: C_1  and  O_2
REMARK    2  A    between atoms: O_2  and  C_3
REMARK    3  A    between atoms: C_3  and  C_4
REMARK    4  A    between atoms: C_10  and  O_11
REMARK    5  A    between atoms: O_11  and  C_12
REMARK    6  A    between atoms: N_20  and  C_21
REMARK    7  A    between atoms: C_24  and  O_25
REMARK    8  A    between atoms: O_25  and  C_26
REMARK                            x       y       z     vdW  Elec       q    Type
REMARK                         _______ _______ _______ _____ _____    ______ ____
ROOT
ATOM      1  C   UNL     1      -8.758  -2.355 124.717  0.00  0.00    +0.000 A 
ATOM      2  N   UNL     1      -9.602  -2.298 123.701  0.00  0.00    +0.000 NA
ATOM      3  N   UNL     1      -9.679  -0.975 123.258  0.00  0.00    +0.000 NA
ATOM      4  C   UNL     1      -8.839  -0.235 123.967  0.00  0.00    +0.000 A 
ATOM      5  N   UNL     1      -8.516   1.079 123.897  0.00  0.00    +0.000 N 
ATOM      6  C   UNL     1      -9.252   2.291 123.762  0.00  0.00    +0.000 C 
ATOM      7  C   UNL     1      -8.020   2.878 122.997  0.00  0.00    +0.000 C 
ATOM      8  C   UNL     1      -7.260   1.753 123.754  0.00  0.00    +0.000 C 
ATOM      9  N   UNL     1      -8.245  -1.079 124.895  0.00  0.00    +0.000 N 
ENDROOT
BRANCH   9  10
ATOM     10  C   UNL     1      -7.374  -0.673 125.912  0.00  0.00    +0.000 A 
ATOM     11  C   UNL     1      -6.005  -0.798 125.741  0.00  0.00    +0.000 A 
ATOM     12  C   UNL     1      -5.185  -0.269 126.725  0.00  0.00    +0.000 A 
ATOM     13  C   UNL     1      -5.759   0.347 127.836  0.00  0.00    +0.000 A 
ATOM     14  N   UNL     1      -7.095   0.447 128.009  0.00  0.00    +0.000 NA
ATOM     15  C   UNL     1      -7.884  -0.061 127.044  0.00  0.00    +0.000 A 
BRANCH  13  16
ATOM     16  O   UNL     1      -5.054   0.920 128.853  0.00  0.00    +0.000 OA
ATOM     17  C   UNL     1      -4.904   0.132 130.023  0.00  0.00    +0.000 C 
ENDBRANCH  13  16
ENDBRANCH   9  10
BRANCH   1  18
ATOM     18  C   UNL     1      -8.425  -3.492 125.659  0.00  0.00    +0.000 C 
BRANCH  18  20
ATOM     19  C   UNL     1      -8.540  -3.643 128.015  0.00  0.00    +0.000 C 
ATOM     20  O   UNL     1      -9.292  -3.546 126.798  0.00  0.00    +0.000 OA
ENDBRANCH  18  20
ENDBRANCH   1  18
BRANCH   7  21
ATOM     21  O   UNL     1      -8.104   2.822 121.537  0.00  0.00    +0.000 OA
BRANCH  21  22
ATOM     22  C   UNL     1      -7.246   3.633 120.825  0.00  0.00    +0.000 A 
ATOM     23  C   UNL     1      -6.002   3.928 121.404  0.00  0.00    +0.000 A 
ATOM     24  C   UNL     1      -5.101   4.789 120.755  0.00  0.00    +0.000 A 
ATOM     25  C   UNL     1      -5.422   5.333 119.515  0.00  0.00    +0.000 A 
ATOM     26  C   UNL     1      -6.665   5.070 118.954  0.00  0.00    +0.000 A 
ATOM     27  C   UNL     1      -7.595   4.278 119.632  0.00  0.00    +0.000 A 
ATOM     28 CL   UNL     1      -9.184   4.332 118.975  0.00  0.00    +0.000 Cl
ENDBRANCH  21  22
ENDBRANCH   7  21
TORSDOF 6
ENDMDL
MODEL 2
REMARK VINA RESULT:      -7.3      3.846      7.891
REMARK  Name = CHEMBL590349
REMARK  8 active torsions:
REMARK  status: ('A' for Active; 'I' for Inactive)
REMARK    1  A    between atoms: C_1  and  O_2
REMARK    2  A    between atoms: O_2  and  C_3
REMARK    3  A    between atoms: C_3  and  C_4
REMARK    4  A    between atoms: C_10  and  O_11
REMARK    5  A    between atoms: O_11  and  C_12
REMARK    6  A    between atoms: N_20  and  C_21
REMARK    7  A    between atoms: C_24  and  O_25
REMARK    8  A    between atoms: O_25  and  C_26
REMARK                            x       y       z     vdW  Elec       q    Type
REMARK                         _______ _______ _______ _____ _____    ______ ____
ROOT
ATOM      1  C   UNL     1      -6.068   3.746 121.884  0.00  0.00    +0.000 A 
ATOM      2  N   UNL     1      -5.248   4.749 122.144  0.00  0.00    +0.000 NA
ATOM      3  N   UNL     1      -5.107   4.863 123.529  0.00  0.00    +0.000 NA
ATOM      4  C   UNL     1      -5.797   3.894 124.113  0.00  0.00    +0.000 A 
ATOM      5  N   UNL     1      -5.944   3.552 125.416  0.00  0.00    +0.000 N 
ATOM      6  C   UNL     1      -6.192   4.265 126.622  0.00  0.00    +0.000 C 
ATOM      7  C   UNL     1      -5.363   3.167 127.366  0.00  0.00    +0.000 C 
ATOM      8  C   UNL     1      -5.729   2.320 126.114  0.00  0.00    +0.000 C 
ATOM      9  N   UNL     1      -6.413   3.174 123.099  0.00  0.00    +0.000 N 
ENDROOT
BRANCH   9  10
ATOM     10  C   UNL     1      -7.326   2.131 123.292  0.00  0.00    +0.000 A 
ATOM     11  C   UNL     1      -8.669   2.413 123.478  0.00  0.00    +0.000 A 
ATOM     12  C   UNL     1      -9.547   1.343 123.542  0.00  0.00    +0.000 A 
ATOM     13  C   UNL     1      -9.052   0.045 123.430  0.00  0.00    +0.000 A 
ATOM     14  N   UNL     1      -7.738  -0.227 123.271  0.00  0.00    +0.000 NA
ATOM     15  C   UNL     1      -6.894   0.819 123.201  0.00  0.00    +0.000 A 
BRANCH  13  16
ATOM     16  O   UNL     1      -9.821  -1.081 123.457  0.00  0.00    +0.000 OA
ATOM     17  C   UNL     1      -9.126  -2.310 123.305  0.00  0.00    +0.000 C 
ENDBRANCH  13  16
ENDBRANCH   9  10
BRANCH   1  18
ATOM     18  C   UNL     1      -6.684   3.288 120.579  0.00  0.00    +0.000 C 
BRANCH  18  20
ATOM     19  C   UNL     1      -8.933   3.926 120.232  0.00  0.00    +0.000 C 
ATOM     20  O   UNL     1      -7.559   4.264 120.001  0.00  0.00    +0.000 OA
ENDBRANCH  18  20
ENDBRANCH   1  18
BRANCH   7  21
ATOM     21  O   UNL     1      -3.960   3.500 127.614  0.00  0.00    +0.000 OA
BRANCH  21  22
ATOM     22  C   UNL     1      -3.610   3.837 128.905  0.00  0.00    +0.000 A 
ATOM     23  C   UNL     1      -4.099   3.027 129.941  0.00  0.00    +0.000 A 
ATOM     24  C   UNL     1      -3.823   3.344 131.282  0.00  0.00    +0.000 A 
ATOM     25  C   UNL     1      -3.034   4.446 131.593  0.00  0.00    +0.000 A 
ATOM     26  C   UNL     1      -2.574   5.268 130.572  0.00  0.00    +0.000 A 
ATOM     27  C   UNL     1      -2.912   5.003 129.243  0.00  0.00    +0.000 A 
ATOM     28 CL   UNL     1      -2.561   6.287 128.153  0.00  0.00    +0.000 Cl
ENDBRANCH  21  22
ENDBRANCH   7  21
TORSDOF 6
ENDMDL
MODEL 3
REMARK VINA RESULT:      -7.2      5.668      7.531
REMARK  Name = CHEMBL590349
REMARK  8 active torsions:
REMARK  status: ('A' for Active; 'I' for Inactive)
REMARK    1  A    between atoms: C_1  and  O_2
REMARK    2  A    between atoms: O_2  and  C_3
REMARK    3  A    between atoms: C_3  and  C_4
REMARK    4  A    between atoms: C_10  and  O_11
REMARK    5  A    between atoms: O_11  and  C_12
REMARK    6  A    between atoms: N_20  and  C_21
REMARK    7  A    between atoms: C_24  and  O_25
REMARK    8  A    between atoms: O_25  and  C_26
REMARK                            x       y       z     vdW  Elec       q    Type
REMARK                         _______ _______ _______ _____ _____    ______ ____
ROOT
ATOM      1  C   UNL     1      -6.877   1.546 126.783  0.00  0.00    +0.000 A 
ATOM      2  N   UNL     1      -8.104   1.056 126.726  0.00  0.00    +0.000 NA
ATOM      3  N   UNL     1      -8.893   1.716 127.670  0.00  0.00    +0.000 NA
ATOM      4  C   UNL     1      -8.162   2.647 128.266  0.00  0.00    +0.000 A 
ATOM      5  N   UNL     1      -8.473   3.569 129.209  0.00  0.00    +0.000 N 
ATOM      6  C   UNL     1      -9.198   3.552 130.434  0.00  0.00    +0.000 C 
ATOM      7  C   UNL     1      -9.592   5.038 130.148  0.00  0.00    +0.000 C 
ATOM      8  C   UNL     1      -8.329   4.994 129.243  0.00  0.00    +0.000 C 
ATOM      9  N   UNL     1      -6.887   2.563 127.726  0.00  0.00    +0.000 N 
ENDROOT
BRANCH   9  10
ATOM     10  C   UNL     1      -5.779   3.298 128.160  0.00  0.00    +0.000 A 
ATOM     11  C   UNL     1      -5.030   2.851 129.237  0.00  0.00    +0.000 A 
ATOM     12  C   UNL     1      -3.874   3.548 129.549  0.00  0.00    +0.000 A 
ATOM     13  C   UNL     1      -3.520   4.661 128.787  0.00  0.00    +0.000 A 
ATOM     14  N   UNL     1      -4.264   5.107 127.751  0.00  0.00    +0.000 NA
ATOM     15  C   UNL     1      -5.380   4.418 127.450  0.00  0.00    +0.000 A 
BRANCH  13  16
ATOM     16  O   UNL     1      -2.397   5.409 128.987  0.00  0.00    +0.000 OA
ATOM     17  C   UNL     1      -2.369   6.670 128.335  0.00  0.00    +0.000 C 
ENDBRANCH  13  16
ENDBRANCH   9  10
BRANCH   1  18
ATOM     18  C   UNL     1      -5.602   1.095 126.104  0.00  0.00    +0.000 C 
BRANCH  18  20
ATOM     19  C   UNL     1      -5.486  -1.141 125.348  0.00  0.00    +0.000 C 
ATOM     20  O   UNL     1      -5.234  -0.248 126.441  0.00  0.00    +0.000 OA
ENDBRANCH  18  20
ENDBRANCH   1  18
BRANCH   7  21
ATOM     21  O   UNL     1     -10.904   5.232 129.529  0.00  0.00    +0.000 OA
BRANCH  21  22
ATOM     22  C   UNL     1     -11.446   6.499 129.582  0.00  0.00    +0.000 A 
ATOM     23  C   UNL     1     -12.310   6.790 130.649  0.00  0.00    +0.000 A 
ATOM     24  C   UNL     1     -12.936   8.044 130.735  0.00  0.00    +0.000 A 
ATOM     25  C   UNL     1     -12.680   9.022 129.779  0.00  0.00    +0.000 A 
ATOM     26  C   UNL     1     -11.851   8.727 128.704  0.00  0.00    +0.000 A 
ATOM     27  C   UNL     1     -11.289   7.456 128.572  0.00  0.00    +0.000 A 
ATOM     28 CL   UNL     1     -10.582   7.151 127.033  0.00  0.00    +0.000 Cl
ENDBRANCH  21  22
ENDBRANCH   7  21
TORSDOF 6
ENDMDL
MODEL 4
REMARK VINA RESULT:      -7.1      6.645      8.893
REMARK  Name = CHEMBL590349
REMARK  8 active torsions:
REMARK  status: ('A' for Active; 'I' for Inactive)
REMARK    1  A    between atoms: C_1  and  O_2
REMARK    2  A    between atoms: O_2  and  C_3
REMARK    3  A    between atoms: C_3  and  C_4
REMARK    4  A    between atoms: C_10  and  O_11
REMARK    5  A    between atoms: O_11  and  C_12
REMARK    6  A    between atoms: N_20  and  C_21
REMARK    7  A    between atoms: C_24  and  O_25
REMARK    8  A    between atoms: O_25  and  C_26
REMARK                            x       y       z     vdW  Elec       q    Type
REMARK                         _______ _______ _______ _____ _____    ______ ____
ROOT
ATOM      1  C   UNL     1      -6.111   3.940 128.194  0.00  0.00    +0.000 A 
ATOM      2  N   UNL     1      -6.941   3.525 127.253  0.00  0.00    +0.000 NA
ATOM      3  N   UNL     1      -8.243   3.557 127.760  0.00  0.00    +0.000 NA
ATOM      4  C   UNL     1      -8.213   4.046 128.991  0.00  0.00    +0.000 A 
ATOM      5  N   UNL     1      -9.202   4.314 129.878  0.00  0.00    +0.000 N 
ATOM      6  C   UNL     1     -10.364   3.625 130.329  0.00  0.00    +0.000 C 
ATOM      7  C   UNL     1     -11.030   5.024 130.542  0.00  0.00    +0.000 C 
ATOM      8  C   UNL     1      -9.552   5.504 130.594  0.00  0.00    +0.000 C 
ATOM      9  N   UNL     1      -6.881   4.296 129.291  0.00  0.00    +0.000 N 
ENDROOT
BRANCH   9  10
ATOM     10  C   UNL     1      -6.402   4.715 130.537  0.00  0.00    +0.000 A 
ATOM     11  C   UNL     1      -6.108   6.052 130.751  0.00  0.00    +0.000 A 
ATOM     12  C   UNL     1      -5.754   6.434 132.035  0.00  0.00    +0.000 A 
ATOM     13  C   UNL     1      -5.696   5.472 133.043  0.00  0.00    +0.000 A 
ATOM     14  N   UNL     1      -5.962   4.166 132.825  0.00  0.00    +0.000 NA
ATOM     15  C   UNL     1      -6.314   3.806 131.577  0.00  0.00    +0.000 A 
BRANCH  13  16
ATOM     16  O   UNL     1      -5.382   5.734 134.344  0.00  0.00    +0.000 OA
ATOM     17  C   UNL     1      -4.607   4.745 135.004  0.00  0.00    +0.000 C 
ENDBRANCH  13  16
ENDBRANCH   9  10
BRANCH   1  18
ATOM     18  C   UNL     1      -4.598   3.955 128.239  0.00  0.00    +0.000 C 
BRANCH  18  20
ATOM     19  C   UNL     1      -3.760   6.130 127.850  0.00  0.00    +0.000 C 
ATOM     20  O   UNL     1      -4.020   4.843 127.274  0.00  0.00    +0.000 OA
ENDBRANCH  18  20
ENDBRANCH   1  18
BRANCH   7  21
ATOM     21  O   UNL     1     -11.888   5.484 129.449  0.00  0.00    +0.000 OA
BRANCH  21  22
ATOM     22  C   UNL     1     -12.247   6.815 129.445  0.00  0.00    +0.000 A 
ATOM     23  C   UNL     1     -12.557   7.407 130.680  0.00  0.00    +0.000 A 
ATOM     24  C   UNL     1     -12.979   8.745 130.741  0.00  0.00    +0.000 A 
ATOM     25  C   UNL     1     -13.062   9.508 129.580  0.00  0.00    +0.000 A 
ATOM     26  C   UNL     1     -12.787   8.918 128.354  0.00  0.00    +0.000 A 
ATOM     27  C   UNL     1     -12.444   7.565 128.279  0.00  0.00    +0.000 A 
ATOM     28 CL   UNL     1     -12.473   6.914 126.687  0.00  0.00    +0.000 Cl
ENDBRANCH  21  22
ENDBRANCH   7  21
TORSDOF 6
ENDMDL
MODEL 5
REMARK VINA RESULT:      -7.1      4.736      7.484
REMARK  Name = CHEMBL590349
REMARK  8 active torsions:
REMARK  status: ('A' for Active; 'I' for Inactive)
REMARK    1  A    between atoms: C_1  and  O_2
REMARK    2  A    between atoms: O_2  and  C_3
REMARK    3  A    between atoms: C_3  and  C_4
REMARK    4  A    between atoms: C_10  and  O_11
REMARK    5  A    between atoms: O_11  and  C_12
REMARK    6  A    between atoms: N_20  and  C_21
REMARK    7  A    between atoms: C_24  and  O_25
REMARK    8  A    between atoms: O_25  and  C_26
REMARK                            x       y       z     vdW  Elec       q    Type
REMARK                         _______ _______ _______ _____ _____    ______ ____
ROOT
ATOM      1  C   UNL     1      -8.986   5.404 129.485  0.00  0.00    +0.000 A 
ATOM      2  N   UNL     1      -9.034   5.688 128.195  0.00  0.00    +0.000 NA
ATOM      3  N   UNL     1      -8.520   4.604 127.480  0.00  0.00    +0.000 NA
ATOM      4  C   UNL     1      -8.209   3.636 128.330  0.00  0.00    +0.000 A 
ATOM      5  N   UNL     1      -7.724   2.386 128.133  0.00  0.00    +0.000 N 
ATOM      6  C   UNL     1      -6.694   1.821 127.330  0.00  0.00    +0.000 C 
ATOM      7  C   UNL     1      -7.558   0.519 127.252  0.00  0.00    +0.000 C 
ATOM      8  C   UNL     1      -8.195   1.098 128.547  0.00  0.00    +0.000 C 
ATOM      9  N   UNL     1      -8.493   4.113 129.602  0.00  0.00    +0.000 N 
ENDROOT
BRANCH   9  10
ATOM     10  C   UNL     1      -8.206   3.442 130.795  0.00  0.00    +0.000 A 
ATOM     11  C   UNL     1      -9.209   2.760 131.465  0.00  0.00    +0.000 A 
ATOM     12  C   UNL     1      -8.848   2.013 132.574  0.00  0.00    +0.000 A 
ATOM     13  C   UNL     1      -7.513   1.986 132.974  0.00  0.00    +0.000 A 
ATOM     14  N   UNL     1      -6.541   2.670 132.332  0.00  0.00    +0.000 NA
ATOM     15  C   UNL     1      -6.900   3.386 131.251  0.00  0.00    +0.000 A 
BRANCH  13  16
ATOM     16  O   UNL     1      -7.038   1.270 134.034  0.00  0.00    +0.000 OA
ATOM     17  C   UNL     1      -5.728   1.603 134.469  0.00  0.00    +0.000 C 
ENDBRANCH  13  16
ENDBRANCH   9  10
BRANCH   1  18
ATOM     18  C   UNL     1      -9.264   6.268 130.696  0.00  0.00    +0.000 C 
BRANCH  18  20
ATOM     19  C   UNL     1     -11.302   6.389 131.888  0.00  0.00    +0.000 C 
ATOM     20  O   UNL     1     -10.594   6.799 130.710  0.00  0.00    +0.000 OA
ENDBRANCH  18  20
ENDBRANCH   1  18
BRANCH   7  21
ATOM     21  O   UNL     1      -8.385   0.385 126.052  0.00  0.00    +0.000 OA
BRANCH  21  22
ATOM     22  C   UNL     1      -8.429  -0.856 125.452  0.00  0.00    +0.000 A 
ATOM     23  C   UNL     1      -8.894  -1.933 126.224  0.00  0.00    +0.000 A 
ATOM     24  C   UNL     1      -8.917  -3.232 125.691  0.00  0.00    +0.000 A 
ATOM     25  C   UNL     1      -8.509  -3.459 124.380  0.00  0.00    +0.000 A 
ATOM     26  C   UNL     1      -8.018  -2.402 123.624  0.00  0.00    +0.000 A 
ATOM     27  C   UNL     1      -7.919  -1.123 124.176  0.00  0.00    +0.000 A 
ATOM     28 CL   UNL     1      -6.985  -0.020 123.243  0.00  0.00    +0.000 Cl
ENDBRANCH  21  22
ENDBRANCH   7  21
TORSDOF 6
ENDMDL
MODEL 6
REMARK VINA RESULT:      -7.0      4.156      7.275
REMARK  Name = CHEMBL590349
REMARK  8 active torsions:
REMARK  status: ('A' for Active; 'I' for Inactive)
REMARK    1  A    between atoms: C_1  and  O_2
REMARK    2  A    between atoms: O_2  and  C_3
REMARK    3  A    between atoms: C_3  and  C_4
REMARK    4  A    between atoms: C_10  and  O_11
REMARK    5  A    between atoms: O_11  and  C_12
REMARK    6  A    between atoms: N_20  and  C_21
REMARK    7  A    between atoms: C_24  and  O_25
REMARK    8  A    between atoms: O_25  and  C_26
REMARK                            x       y       z     vdW  Elec       q    Type
REMARK                         _______ _______ _______ _____ _____    ______ ____
ROOT
ATOM      1  C   UNL     1      -9.112  -0.099 124.110  0.00  0.00    +0.000 A 
ATOM      2  N   UNL     1      -9.348  -0.618 125.303  0.00  0.00    +0.000 NA
ATOM      3  N   UNL     1      -8.877   0.267 126.276  0.00  0.00    +0.000 NA
ATOM      4  C   UNL     1      -8.404   1.351 125.679  0.00  0.00    +0.000 A 
ATOM      5  N   UNL     1      -7.883   2.499 126.177  0.00  0.00    +0.000 N 
ATOM      6  C   UNL     1      -6.942   2.819 127.195  0.00  0.00    +0.000 C 
ATOM      7  C   UNL     1      -7.737   4.146 127.424  0.00  0.00    +0.000 C 
ATOM      8  C   UNL     1      -8.225   3.875 125.973  0.00  0.00    +0.000 C 
ATOM      9  N   UNL     1      -8.540   1.148 124.313  0.00  0.00    +0.000 N 
ENDROOT
BRANCH   9  10
ATOM     10  C   UNL     1      -8.060   2.008 123.319  0.00  0.00    +0.000 A 
ATOM     11  C   UNL     1      -6.705   2.047 123.033  0.00  0.00    +0.000 A 
ATOM     12  C   UNL     1      -6.297   2.823 121.960  0.00  0.00    +0.000 A 
ATOM     13  C   UNL     1      -7.249   3.532 121.229  0.00  0.00    +0.000 A 
ATOM     14  N   UNL     1      -8.567   3.509 121.525  0.00  0.00    +0.000 NA
ATOM     15  C   UNL     1      -8.954   2.746 122.563  0.00  0.00    +0.000 A 
BRANCH  13  16
ATOM     16  O   UNL     1      -6.968   4.309 120.144  0.00  0.00    +0.000 OA
ATOM     17  C   UNL     1      -7.957   4.332 119.126  0.00  0.00    +0.000 C 
ENDBRANCH  13  16
ENDBRANCH   9  10
BRANCH   1  18
ATOM     18  C   UNL     1      -9.271  -0.693 122.727  0.00  0.00    +0.000 C 
BRANCH  18  20
ATOM     19  C   UNL     1      -7.143  -1.720 122.672  0.00  0.00    +0.000 C 
ATOM     20  O   UNL     1      -8.558  -1.924 122.563  0.00  0.00    +0.000 OA
ENDBRANCH  18  20
ENDBRANCH   1  18
BRANCH   7  21
ATOM     21  O   UNL     1      -8.709   4.114 128.518  0.00  0.00    +0.000 OA
BRANCH  21  22
ATOM     22  C   UNL     1      -8.433   4.882 129.630  0.00  0.00    +0.000 A 
ATOM     23  C   UNL     1      -7.566   4.341 130.592  0.00  0.00    +0.000 A 
ATOM     24  C   UNL     1      -7.283   5.048 131.772  0.00  0.00    +0.000 A 
ATOM     25  C   UNL     1      -7.835   6.308 131.983  0.00  0.00    +0.000 A 
ATOM     26  C   UNL     1      -8.718   6.833 131.049  0.00  0.00    +0.000 A 
ATOM     27  C   UNL     1      -9.064   6.099 129.912  0.00  0.00    +0.000 A 
ATOM     28 CL   UNL     1     -10.410   6.730 129.045  0.00  0.00    +0.000 Cl
ENDBRANCH  21  22
ENDBRANCH   7  21
TORSDOF 6
ENDMDL
MODEL 7
REMARK VINA RESULT:      -7.0      6.961      8.864
REMARK  Name = CHEMBL590349
REMARK  8 active torsions:
REMARK  status: ('A' for Active; 'I' for Inactive)
REMARK    1  A    between atoms: C_1  and  O_2
REMARK    2  A    between atoms: O_2  and  C_3
REMARK    3  A    between atoms: C_3  and  C_4
REMARK    4  A    between atoms: C_10  and  O_11
REMARK    5  A    between atoms: O_11  and  C_12
REMARK    6  A    between atoms: N_20  and  C_21
REMARK    7  A    between atoms: C_24  and  O_25
REMARK    8  A    between atoms: O_25  and  C_26
REMARK                            x       y       z     vdW  Elec       q    Type
REMARK                         _______ _______ _______ _____ _____    ______ ____
ROOT
ATOM      1  C   UNL     1      -3.768   4.540 127.773  0.00  0.00    +0.000 A 
ATOM      2  N   UNL     1      -4.481   4.886 126.714  0.00  0.00    +0.000 NA
ATOM      3  N   UNL     1      -5.830   4.915 127.075  0.00  0.00    +0.000 NA
ATOM      4  C   UNL     1      -5.936   4.643 128.367  0.00  0.00    +0.000 A 
ATOM      5  N   UNL     1      -7.010   4.592 129.191  0.00  0.00    +0.000 N 
ATOM      6  C   UNL     1      -8.318   4.034 129.109  0.00  0.00    +0.000 C 
ATOM      7  C   UNL     1      -8.803   5.200 130.032  0.00  0.00    +0.000 C 
ATOM      8  C   UNL     1      -7.301   5.250 130.430  0.00  0.00    +0.000 C 
ATOM      9  N   UNL     1      -4.651   4.402 128.833  0.00  0.00    +0.000 N 
ENDROOT
BRANCH   9  10
ATOM     10  C   UNL     1      -4.331   3.970 130.124  0.00  0.00    +0.000 A 
ATOM     11  C   UNL     1      -4.421   2.626 130.446  0.00  0.00    +0.000 A 
ATOM     12  C   UNL     1      -3.976   2.234 131.699  0.00  0.00    +0.000 A 
ATOM     13  C   UNL     1      -3.474   3.193 132.576  0.00  0.00    +0.000 A 
ATOM     14  N   UNL     1      -3.408   4.507 132.267  0.00  0.00    +0.000 NA
ATOM     15  C   UNL     1      -3.834   4.876 131.045  0.00  0.00    +0.000 A 
BRANCH  13  16
ATOM     16  O   UNL     1      -2.989   2.923 133.822  0.00  0.00    +0.000 OA
ATOM     17  C   UNL     1      -3.875   3.183 134.901  0.00  0.00    +0.000 C 
ENDBRANCH  13  16
ENDBRANCH   9  10
BRANCH   1  18
ATOM     18  C   UNL     1      -2.297   4.208 127.906  0.00  0.00    +0.000 C 
BRANCH  18  20
ATOM     19  C   UNL     1      -1.479   2.966 126.069  0.00  0.00    +0.000 C 
ATOM     20  O   UNL     1      -1.973   2.903 127.414  0.00  0.00    +0.000 OA
ENDBRANCH  18  20
ENDBRANCH   1  18
BRANCH   7  21
ATOM     21  O   UNL     1      -9.392   6.346 129.338  0.00  0.00    +0.000 OA
BRANCH  21  22
ATOM     22  C   UNL     1     -10.538   6.890 129.878  0.00  0.00    +0.000 A 
ATOM     23  C   UNL     1     -11.034   6.316 131.059  0.00  0.00    +0.000 A 
ATOM     24  C   UNL     1     -12.225   6.788 131.635  0.00  0.00    +0.000 A 
ATOM     25  C   UNL     1     -12.909   7.853 131.055  0.00  0.00    +0.000 A 
ATOM     26  C   UNL     1     -12.440   8.402 129.869  0.00  0.00    +0.000 A 
ATOM     27  C   UNL     1     -11.299   7.884 129.251  0.00  0.00    +0.000 A 
ATOM     28 CL   UNL     1     -11.053   8.438 127.641  0.00  0.00    +0.000 Cl
ENDBRANCH  21  22
ENDBRANCH   7  21
TORSDOF 6
ENDMDL
MODEL 8
REMARK VINA RESULT:      -6.9      4.797      7.750
REMARK  Name = CHEMBL590349
REMARK  8 active torsions:
REMARK  status: ('A' for Active; 'I' for Inactive)
REMARK    1  A    between atoms: C_1  and  O_2
REMARK    2  A    between atoms: O_2  and  C_3
REMARK    3  A    between atoms: C_3  and  C_4
REMARK    4  A    between atoms: C_10  and  O_11
REMARK    5  A    between atoms: O_11  and  C_12
REMARK    6  A    between atoms: N_20  and  C_21
REMARK    7  A    between atoms: C_24  and  O_25
REMARK    8  A    between atoms: O_25  and  C_26
REMARK                            x       y       z     vdW  Elec       q    Type
REMARK                         _______ _______ _______ _____ _____    ______ ____
ROOT
ATOM      1  C   UNL     1      -8.470   3.515 125.164  0.00  0.00    +0.000 A 
ATOM      2  N   UNL     1      -8.824   4.765 125.411  0.00  0.00    +0.000 NA
ATOM      3  N   UNL     1      -8.337   5.126 126.669  0.00  0.00    +0.000 NA
ATOM      4  C   UNL     1      -7.637   4.117 127.166  0.00  0.00    +0.000 A 
ATOM      5  N   UNL     1      -6.937   3.987 128.319  0.00  0.00    +0.000 N 
ATOM      6  C   UNL     1      -7.177   4.310 129.684  0.00  0.00    +0.000 C 
ATOM      7  C   UNL     1      -5.636   4.534 129.835  0.00  0.00    +0.000 C 
ATOM      8  C   UNL     1      -5.578   3.618 128.580  0.00  0.00    +0.000 C 
ATOM      9  N   UNL     1      -7.704   3.087 126.238  0.00  0.00    +0.000 N 
ENDROOT
BRANCH   9  10
ATOM     10  C   UNL     1      -7.190   1.800 126.425  0.00  0.00    +0.000 A 
ATOM     11  C   UNL     1      -7.921   0.859 127.132  0.00  0.00    +0.000 A 
ATOM     12  C   UNL     1      -7.424  -0.434 127.184  0.00  0.00    +0.000 A 
ATOM     13  C   UNL     1      -6.222  -0.730 126.543  0.00  0.00    +0.000 A 
ATOM     14  N   UNL     1      -5.501   0.195 125.873  0.00  0.00    +0.000 NA
ATOM     15  C   UNL     1      -5.996   1.445 125.820  0.00  0.00    +0.000 A 
BRANCH  13  16
ATOM     16  O   UNL     1      -5.649  -1.967 126.508  0.00  0.00    +0.000 OA
ATOM     17  C   UNL     1      -5.636  -2.608 125.242  0.00  0.00    +0.000 C 
ENDBRANCH  13  16
ENDBRANCH   9  10
BRANCH   1  18
ATOM     18  C   UNL     1      -8.860   2.585 124.036  0.00  0.00    +0.000 C 
BRANCH  18  20
ATOM     19  C   UNL     1      -7.294   3.168 122.365  0.00  0.00    +0.000 C 
ATOM     20  O   UNL     1      -8.678   3.169 122.741  0.00  0.00    +0.000 OA
ENDBRANCH  18  20
ENDBRANCH   1  18
BRANCH   7  21
ATOM     21  O   UNL     1      -5.190   5.923 129.722  0.00  0.00    +0.000 OA
BRANCH  21  22
ATOM     22  C   UNL     1      -4.079   6.290 130.452  0.00  0.00    +0.000 A 
ATOM     23  C   UNL     1      -4.294   6.964 131.665  0.00  0.00    +0.000 A 
ATOM     24  C   UNL     1      -3.206   7.411 132.432  0.00  0.00    +0.000 A 
ATOM     25  C   UNL     1      -1.902   7.162 132.013  0.00  0.00    +0.000 A 
ATOM     26  C   UNL     1      -1.686   6.525 130.798  0.00  0.00    +0.000 A 
ATOM     27  C   UNL     1      -2.764   6.148 129.993  0.00  0.00    +0.000 A 
ATOM     28 CL   UNL     1      -2.327   5.693 128.393  0.00  0.00    +0.000 Cl
ENDBRANCH  21  22
ENDBRANCH   7  21
TORSDOF 6
ENDMDL
MODEL 9
REMARK VINA RESULT:      -6.8      2.978      4.108
REMARK  Name = CHEMBL590349
REMARK  8 active torsions:
REMARK  status: ('A' for Active; 'I' for Inactive)
REMARK    1  A    between atoms: C_1  and  O_2
REMARK    2  A    between atoms: O_2  and  C_3
REMARK    3  A    between atoms: C_3  and  C_4
REMARK    4  A    between atoms: C_10  and  O_11
REMARK    5  A    between atoms: O_11  and  C_12
REMARK    6  A    between atoms: N_20  and  C_21
REMARK    7  A    between atoms: C_24  and  O_25
REMARK    8  A    between atoms: O_25  and  C_26
REMARK                            x       y       z     vdW  Elec       q    Type
REMARK                         _______ _______ _______ _____ _____    ______ ____
ROOT
ATOM      1  C   UNL     1      -6.430   0.591 128.266  0.00  0.00    +0.000 A 
ATOM      2  N   UNL     1      -7.147  -0.076 127.377  0.00  0.00    +0.000 NA
ATOM      3  N   UNL     1      -7.352   0.742 126.264  0.00  0.00    +0.000 NA
ATOM      4  C   UNL     1      -6.713   1.888 126.448  0.00  0.00    +0.000 A 
ATOM      5  N   UNL     1      -6.570   2.977 125.655  0.00  0.00    +0.000 N 
ATOM      6  C   UNL     1      -7.444   3.755 124.845  0.00  0.00    +0.000 C 
ATOM      7  C   UNL     1      -6.223   4.034 123.907  0.00  0.00    +0.000 C 
ATOM      8  C   UNL     1      -5.411   3.674 125.183  0.00  0.00    +0.000 C 
ATOM      9  N   UNL     1      -6.123   1.821 127.702  0.00  0.00    +0.000 N 
ENDROOT
BRANCH   9  10
ATOM     10  C   UNL     1      -5.445   2.871 128.330  0.00  0.00    +0.000 A 
ATOM     11  C   UNL     1      -4.060   2.889 128.345  0.00  0.00    +0.000 A 
ATOM     12  C   UNL     1      -3.437   4.010 128.871  0.00  0.00    +0.000 A 
ATOM     13  C   UNL     1      -4.217   5.054 129.367  0.00  0.00    +0.000 A 
ATOM     14  N   UNL     1      -5.567   5.023 129.371  0.00  0.00    +0.000 NA
ATOM     15  C   UNL     1      -6.162   3.934 128.850  0.00  0.00    +0.000 A 
BRANCH  13  16
ATOM     16  O   UNL     1      -3.717   6.212 129.887  0.00  0.00    +0.000 OA
ATOM     17  C   UNL     1      -2.302   6.316 129.919  0.00  0.00    +0.000 C 
ENDBRANCH  13  16
ENDBRANCH   9  10
BRANCH   1  18
ATOM     18  C   UNL     1      -6.058   0.247 129.692  0.00  0.00    +0.000 C 
BRANCH  18  20
ATOM     19  C   UNL     1      -7.712  -0.474 131.218  0.00  0.00    +0.000 C 
ATOM     20  O   UNL     1      -7.047   0.659 130.642  0.00  0.00    +0.000 OA
ENDBRANCH  18  20
ENDBRANCH   1  18
BRANCH   7  21
ATOM     21  O   UNL     1      -6.123   3.167 122.733  0.00  0.00    +0.000 OA
BRANCH  21  22
ATOM     22  C   UNL     1      -6.219   3.767 121.495  0.00  0.00    +0.000 A 
ATOM     23  C   UNL     1      -5.115   4.511 121.049  0.00  0.00    +0.000 A 
ATOM     24  C   UNL     1      -5.165   5.191 119.821  0.00  0.00    +0.000 A 
ATOM     25  C   UNL     1      -6.299   5.106 119.019  0.00  0.00    +0.000 A 
ATOM     26  C   UNL     1      -7.405   4.398 119.471  0.00  0.00    +0.000 A 
ATOM     27  C   UNL     1      -7.389   3.786 120.727  0.00  0.00    +0.000 A 
ATOM     28 CL   UNL     1      -8.931   3.254 121.275  0.00  0.00    +0.000 Cl
ENDBRANCH  21  22
ENDBRANCH   7  21
TORSDOF 6
ENDMDL
