MODEL 1
REMARK VINA RESULT:      -9.0      0.000      0.000
REMARK  Name = CHEMBL4205046
REMARK  3 active torsions:
REMARK  status: ('A' for Active; 'I' for Inactive)
REMARK    1  A    between atoms: C_1  and  C_2
REMARK    2  A    between atoms: N_8  and  C_9
REMARK    3  A    between atoms: C_12  and  C_13
REMARK                            x       y       z     vdW  Elec       q    Type
REMARK                         _______ _______ _______ _____ _____    ______ ____
ROOT
ATOM      1  C   UNL     1      -9.624   3.065 130.649  0.00  0.00    +0.000 A 
ATOM      2  C   UNL     1      -9.082   2.032 129.882  0.00  0.00    +0.000 A 
ATOM      3  C   UNL     1      -8.284   0.988 130.475  0.00  0.00    +0.000 A 
ATOM      4  C   UNL     1      -7.971   0.968 131.866  0.00  0.00    +0.000 A 
ATOM      5  C   UNL     1      -8.478   2.095 132.529  0.00  0.00    +0.000 A 
ATOM      6 CL   UNL     1      -7.881   2.862 133.908  0.00  0.00    +0.000 Cl
ATOM      7  C   UNL     1      -9.348   3.051 131.978  0.00  0.00    +0.000 A 
ENDROOT
BRANCH   4   8
ATOM      8  C   UNL     1      -7.002  -0.117 132.477  0.00  0.00    +0.000 C 
ATOM      9  O   UNL     1      -7.150  -0.384 133.674  0.00  0.00    +0.000 OA
ATOM     10  N   UNL     1      -6.061  -0.819 131.643  0.00  0.00    +0.000 N 
ATOM     11  C   UNL     1      -4.885  -0.136 131.009  0.00  0.00    +0.000 C 
ATOM     12  C   UNL     1      -4.835  -0.108 129.472  0.00  0.00    +0.000 C 
ATOM     13  C   UNL     1      -5.084  -1.447 128.765  0.00  0.00    +0.000 C 
ATOM     14  C   UNL     1      -6.276  -2.294 129.201  0.00  0.00    +0.000 C 
ATOM     15  C   UNL     1      -5.982  -2.990 130.478  0.00  0.00    +0.000 A 
ATOM     16  C   UNL     1      -5.854  -4.382 130.370  0.00  0.00    +0.000 A 
ATOM     17  C   UNL     1      -5.539  -5.128 131.478  0.00  0.00    +0.000 A 
ATOM     18  C   UNL     1      -5.389  -4.467 132.698  0.00  0.00    +0.000 A 
ATOM     19  C   UNL     1      -5.585  -3.059 132.824  0.00  0.00    +0.000 A 
ATOM     20  C   UNL     1      -5.892  -2.281 131.700  0.00  0.00    +0.000 A 
ENDBRANCH   4   8
BRANCH   1  28
ATOM     21  C   UNL     1     -13.646   7.730 128.042  0.00  0.00    +0.000 C 
ATOM     22  C   UNL     1     -12.272   7.406 128.517  0.00  0.00    +0.000 A 
ATOM     23  C   UNL     1     -11.199   8.322 128.538  0.00  0.00    +0.000 A 
ATOM     24  C   UNL     1     -10.150   7.617 129.045  0.00  0.00    +0.000 A 
ATOM     25  N   UNL     1     -10.594   6.345 129.333  0.00  0.00    +0.000 N 
ATOM     26  C   UNL     1      -9.787   5.347 129.927  0.00  0.00    +0.000 C 
ATOM     27  O   UNL     1      -8.594   5.617 130.147  0.00  0.00    +0.000 OA
ATOM     28  N   UNL     1     -10.395   4.146 130.157  0.00  0.00    +0.000 N 
ATOM     29  N   UNL     1     -11.918   6.188 128.983  0.00  0.00    +0.000 NA
ATOM     30  H   UNL     1     -11.263   3.966 129.646  0.00  0.00    +0.000 HD
ENDBRANCH   1  28
TORSDOF 2
ENDMDL
MODEL 2
REMARK VINA RESULT:      -9.0      2.148      9.792
REMARK  Name = CHEMBL4205046
REMARK  3 active torsions:
REMARK  status: ('A' for Active; 'I' for Inactive)
REMARK    1  A    between atoms: C_1  and  C_2
REMARK    2  A    between atoms: N_8  and  C_9
REMARK    3  A    between atoms: C_12  and  C_13
REMARK                            x       y       z     vdW  Elec       q    Type
REMARK                         _______ _______ _______ _____ _____    ______ ____
ROOT
ATOM      1  C   UNL     1      -7.588   0.804 130.352  0.00  0.00    +0.000 A 
ATOM      2  C   UNL     1      -8.781   1.444 130.694  0.00  0.00    +0.000 A 
ATOM      3  C   UNL     1      -9.142   2.722 130.133  0.00  0.00    +0.000 A 
ATOM      4  C   UNL     1      -8.292   3.422 129.228  0.00  0.00    +0.000 A 
ATOM      5  C   UNL     1      -7.080   2.745 129.023  0.00  0.00    +0.000 A 
ATOM      6 CL   UNL     1      -5.570   3.386 128.631  0.00  0.00    +0.000 Cl
ATOM      7  C   UNL     1      -6.775   1.452 129.479  0.00  0.00    +0.000 A 
ENDROOT
BRANCH   4   8
ATOM      8  C   UNL     1      -8.650   4.870 128.713  0.00  0.00    +0.000 C 
ATOM      9  O   UNL     1      -8.434   5.106 127.520  0.00  0.00    +0.000 OA
ATOM     10  N   UNL     1      -9.286   5.825 129.583  0.00  0.00    +0.000 N 
ATOM     11  C   UNL     1      -8.582   6.427 130.764  0.00  0.00    +0.000 C 
ATOM     12  C   UNL     1      -9.174   6.139 132.154  0.00  0.00    +0.000 C 
ATOM     13  C   UNL     1     -10.686   6.355 132.302  0.00  0.00    +0.000 C 
ATOM     14  C   UNL     1     -11.615   5.770 131.242  0.00  0.00    +0.000 C 
ATOM     15  C   UNL     1     -11.588   6.596 130.010  0.00  0.00    +0.000 A 
ATOM     16  C   UNL     1     -12.776   7.291 129.744  0.00  0.00    +0.000 A 
ATOM     17  C   UNL     1     -12.854   8.121 128.655  0.00  0.00    +0.000 A 
ATOM     18  C   UNL     1     -11.742   8.219 127.819  0.00  0.00    +0.000 A 
ATOM     19  C   UNL     1     -10.554   7.462 128.049  0.00  0.00    +0.000 A 
ATOM     20  C   UNL     1     -10.453   6.621 129.165  0.00  0.00    +0.000 A 
ENDBRANCH   4   8
BRANCH   1  28
ATOM     21  C   UNL     1      -5.102  -4.700 133.223  0.00  0.00    +0.000 C 
ATOM     22  C   UNL     1      -5.641  -4.092 131.975  0.00  0.00    +0.000 A 
ATOM     23  C   UNL     1      -5.810  -4.785 130.758  0.00  0.00    +0.000 A 
ATOM     24  C   UNL     1      -6.328  -3.862 129.901  0.00  0.00    +0.000 A 
ATOM     25  N   UNL     1      -6.480  -2.680 130.593  0.00  0.00    +0.000 N 
ATOM     26  C   UNL     1      -7.044  -1.511 130.034  0.00  0.00    +0.000 C 
ATOM     27  O   UNL     1      -7.367  -1.535 128.834  0.00  0.00    +0.000 OA
ATOM     28  N   UNL     1      -7.134  -0.433 130.868  0.00  0.00    +0.000 N 
ATOM     29  N   UNL     1      -6.029  -2.800 131.889  0.00  0.00    +0.000 NA
ATOM     30  H   UNL     1      -6.552  -0.455 131.710  0.00  0.00    +0.000 HD
ENDBRANCH   1  28
TORSDOF 2
ENDMDL
MODEL 3
REMARK VINA RESULT:      -8.9      5.595      7.923
REMARK  Name = CHEMBL4205046
REMARK  3 active torsions:
REMARK  status: ('A' for Active; 'I' for Inactive)
REMARK    1  A    between atoms: C_1  and  C_2
REMARK    2  A    between atoms: N_8  and  C_9
REMARK    3  A    between atoms: C_12  and  C_13
REMARK                            x       y       z     vdW  Elec       q    Type
REMARK                         _______ _______ _______ _____ _____    ______ ____
ROOT
ATOM      1  C   UNL     1      -7.638   3.611 125.547  0.00  0.00    +0.000 A 
ATOM      2  C   UNL     1      -7.771   4.621 126.503  0.00  0.00    +0.000 A 
ATOM      3  C   UNL     1      -7.961   4.320 127.900  0.00  0.00    +0.000 A 
ATOM      4  C   UNL     1      -8.061   2.982 128.383  0.00  0.00    +0.000 A 
ATOM      5  C   UNL     1      -8.012   2.047 127.338  0.00  0.00    +0.000 A 
ATOM      6 CL   UNL     1      -8.708   0.512 127.267  0.00  0.00    +0.000 Cl
ATOM      7  C   UNL     1      -7.715   2.331 125.995  0.00  0.00    +0.000 A 
ENDROOT
BRANCH   4   8
ATOM      8  C   UNL     1      -8.383   2.674 129.896  0.00  0.00    +0.000 C 
ATOM      9  O   UNL     1      -7.916   1.631 130.364  0.00  0.00    +0.000 OA
ATOM     10  N   UNL     1      -9.108   3.621 130.703  0.00  0.00    +0.000 N 
ATOM     11  C   UNL     1     -10.557   3.935 130.466  0.00  0.00    +0.000 C 
ATOM     12  C   UNL     1     -10.907   5.381 130.077  0.00  0.00    +0.000 C 
ATOM     13  C   UNL     1     -10.287   6.482 130.948  0.00  0.00    +0.000 C 
ATOM     14  C   UNL     1      -8.797   6.408 131.270  0.00  0.00    +0.000 C 
ATOM     15  C   UNL     1      -8.541   5.392 132.321  0.00  0.00    +0.000 A 
ATOM     16  C   UNL     1      -8.124   5.916 133.553  0.00  0.00    +0.000 A 
ATOM     17  C   UNL     1      -7.899   5.075 134.613  0.00  0.00    +0.000 A 
ATOM     18  C   UNL     1      -8.062   3.704 134.414  0.00  0.00    +0.000 A 
ATOM     19  C   UNL     1      -8.421   3.162 133.144  0.00  0.00    +0.000 A 
ATOM     20  C   UNL     1      -8.670   4.008 132.055  0.00  0.00    +0.000 A 
ENDBRANCH   4   8
BRANCH   1  28
ATOM     21  C   UNL     1      -7.399   4.155 118.886  0.00  0.00    +0.000 C 
ATOM     22  C   UNL     1      -6.622   4.169 120.157  0.00  0.00    +0.000 A 
ATOM     23  C   UNL     1      -5.232   4.392 120.240  0.00  0.00    +0.000 A 
ATOM     24  C   UNL     1      -4.948   4.326 121.571  0.00  0.00    +0.000 A 
ATOM     25  N   UNL     1      -6.127   4.097 122.245  0.00  0.00    +0.000 N 
ATOM     26  C   UNL     1      -6.224   4.021 123.653  0.00  0.00    +0.000 C 
ATOM     27  O   UNL     1      -5.177   4.110 124.315  0.00  0.00    +0.000 OA
ATOM     28  N   UNL     1      -7.476   3.804 124.155  0.00  0.00    +0.000 N 
ATOM     29  N   UNL     1      -7.185   3.969 121.370  0.00  0.00    +0.000 NA
ATOM     30  H   UNL     1      -8.175   3.440 123.502  0.00  0.00    +0.000 HD
ENDBRANCH   1  28
TORSDOF 2
ENDMDL
MODEL 4
REMARK VINA RESULT:      -8.8      2.363      2.891
REMARK  Name = CHEMBL4205046
REMARK  3 active torsions:
REMARK  status: ('A' for Active; 'I' for Inactive)
REMARK    1  A    between atoms: C_1  and  C_2
REMARK    2  A    between atoms: N_8  and  C_9
REMARK    3  A    between atoms: C_12  and  C_13
REMARK                            x       y       z     vdW  Elec       q    Type
REMARK                         _______ _______ _______ _____ _____    ______ ____
ROOT
ATOM      1  C   UNL     1      -8.695   3.793 129.499  0.00  0.00    +0.000 A 
ATOM      2  C   UNL     1      -9.013   2.437 129.595  0.00  0.00    +0.000 A 
ATOM      3  C   UNL     1      -7.996   1.416 129.563  0.00  0.00    +0.000 A 
ATOM      4  C   UNL     1      -6.614   1.726 129.395  0.00  0.00    +0.000 A 
ATOM      5  C   UNL     1      -6.408   3.101 129.212  0.00  0.00    +0.000 A 
ATOM      6 CL   UNL     1      -5.172   3.876 128.364  0.00  0.00    +0.000 Cl
ATOM      7  C   UNL     1      -7.381   4.104 129.355  0.00  0.00    +0.000 A 
ENDROOT
BRANCH   4   8
ATOM      8  C   UNL     1      -5.527   0.592 129.248  0.00  0.00    +0.000 C 
ATOM      9  O   UNL     1      -4.400   0.840 129.688  0.00  0.00    +0.000 OA
ATOM     10  N   UNL     1      -5.875  -0.698 128.710  0.00  0.00    +0.000 N 
ATOM     11  C   UNL     1      -6.261  -0.890 127.272  0.00  0.00    +0.000 C 
ATOM     12  C   UNL     1      -7.683  -1.404 126.990  0.00  0.00    +0.000 C 
ATOM     13  C   UNL     1      -8.131  -2.626 127.802  0.00  0.00    +0.000 C 
ATOM     14  C   UNL     1      -7.900  -2.628 129.311  0.00  0.00    +0.000 C 
ATOM     15  C   UNL     1      -6.476  -2.909 129.620  0.00  0.00    +0.000 A 
ATOM     16  C   UNL     1      -6.243  -4.149 130.232  0.00  0.00    +0.000 A 
ATOM     17  C   UNL     1      -4.961  -4.536 130.525  0.00  0.00    +0.000 A 
ATOM     18  C   UNL     1      -3.920  -3.654 130.230  0.00  0.00    +0.000 A 
ATOM     19  C   UNL     1      -4.159  -2.364 129.668  0.00  0.00    +0.000 A 
ATOM     20  C   UNL     1      -5.462  -1.959 129.349  0.00  0.00    +0.000 A 
ENDBRANCH   4   8
BRANCH   1  28
ATOM     21  C   UNL     1     -12.691   9.134 129.032  0.00  0.00    +0.000 C 
ATOM     22  C   UNL     1     -12.213   8.019 129.895  0.00  0.00    +0.000 A 
ATOM     23  C   UNL     1     -12.671   7.773 131.206  0.00  0.00    +0.000 A 
ATOM     24  C   UNL     1     -11.983   6.670 131.613  0.00  0.00    +0.000 A 
ATOM     25  N   UNL     1     -11.172   6.269 130.574  0.00  0.00    +0.000 N 
ATOM     26  C   UNL     1     -10.349   5.121 130.619  0.00  0.00    +0.000 C 
ATOM     27  O   UNL     1     -10.313   4.469 131.676  0.00  0.00    +0.000 OA
ATOM     28  N   UNL     1      -9.621   4.863 129.492  0.00  0.00    +0.000 N 
ATOM     29  N   UNL     1     -11.284   7.122 129.497  0.00  0.00    +0.000 NA
ATOM     30  H   UNL     1      -9.505   5.637 128.834  0.00  0.00    +0.000 HD
ENDBRANCH   1  28
TORSDOF 2
ENDMDL
MODEL 5
REMARK VINA RESULT:      -8.2      4.633      5.042
REMARK  Name = CHEMBL4205046
REMARK  3 active torsions:
REMARK  status: ('A' for Active; 'I' for Inactive)
REMARK    1  A    between atoms: C_1  and  C_2
REMARK    2  A    between atoms: N_8  and  C_9
REMARK    3  A    between atoms: C_12  and  C_13
REMARK                            x       y       z     vdW  Elec       q    Type
REMARK                         _______ _______ _______ _____ _____    ______ ____
ROOT
ATOM      1  C   UNL     1      -8.064   1.151 126.452  0.00  0.00    +0.000 A 
ATOM      2  C   UNL     1      -7.614  -0.154 126.667  0.00  0.00    +0.000 A 
ATOM      3  C   UNL     1      -7.529  -0.716 127.992  0.00  0.00    +0.000 A 
ATOM      4  C   UNL     1      -7.862   0.034 129.159  0.00  0.00    +0.000 A 
ATOM      5  C   UNL     1      -8.208   1.357 128.845  0.00  0.00    +0.000 A 
ATOM      6 CL   UNL     1      -8.040   2.741 129.794  0.00  0.00    +0.000 Cl
ATOM      7  C   UNL     1      -8.400   1.871 127.552  0.00  0.00    +0.000 A 
ENDROOT
BRANCH   4   8
ATOM      8  C   UNL     1      -7.654  -0.558 130.606  0.00  0.00    +0.000 C 
ATOM      9  O   UNL     1      -8.638  -0.561 131.353  0.00  0.00    +0.000 OA
ATOM     10  N   UNL     1      -6.397  -1.148 130.988  0.00  0.00    +0.000 N 
ATOM     11  C   UNL     1      -5.145  -0.336 131.148  0.00  0.00    +0.000 C 
ATOM     12  C   UNL     1      -3.971  -0.664 130.209  0.00  0.00    +0.000 C 
ATOM     13  C   UNL     1      -3.600  -2.147 130.087  0.00  0.00    +0.000 C 
ATOM     14  C   UNL     1      -4.714  -3.164 129.853  0.00  0.00    +0.000 C 
ATOM     15  C   UNL     1      -5.456  -3.423 131.111  0.00  0.00    +0.000 A 
ATOM     16  C   UNL     1      -5.276  -4.708 131.643  0.00  0.00    +0.000 A 
ATOM     17  C   UNL     1      -5.879  -5.048 132.828  0.00  0.00    +0.000 A 
ATOM     18  C   UNL     1      -6.690  -4.100 133.452  0.00  0.00    +0.000 A 
ATOM     19  C   UNL     1      -6.930  -2.815 132.879  0.00  0.00    +0.000 A 
ATOM     20  C   UNL     1      -6.310  -2.446 131.678  0.00  0.00    +0.000 A 
ENDBRANCH   4   8
BRANCH   1  28
ATOM     21  C   UNL     1      -9.013   3.835 120.401  0.00  0.00    +0.000 C 
ATOM     22  C   UNL     1      -8.028   3.516 121.472  0.00  0.00    +0.000 A 
ATOM     23  C   UNL     1      -6.656   3.838 121.416  0.00  0.00    +0.000 A 
ATOM     24  C   UNL     1      -6.142   3.375 122.589  0.00  0.00    +0.000 A 
ATOM     25  N   UNL     1      -7.174   2.824 123.316  0.00  0.00    +0.000 N 
ATOM     26  C   UNL     1      -7.021   2.289 124.616  0.00  0.00    +0.000 C 
ATOM     27  O   UNL     1      -5.880   2.264 125.105  0.00  0.00    +0.000 OA
ATOM     28  N   UNL     1      -8.156   1.798 125.197  0.00  0.00    +0.000 N 
ATOM     29  N   UNL     1      -8.361   2.880 122.617  0.00  0.00    +0.000 NA
ATOM     30  H   UNL     1      -8.941   1.596 124.572  0.00  0.00    +0.000 HD
ENDBRANCH   1  28
TORSDOF 2
ENDMDL
MODEL 6
REMARK VINA RESULT:      -8.2      6.117      6.748
REMARK  Name = CHEMBL4205046
REMARK  3 active torsions:
REMARK  status: ('A' for Active; 'I' for Inactive)
REMARK    1  A    between atoms: C_1  and  C_2
REMARK    2  A    between atoms: N_8  and  C_9
REMARK    3  A    between atoms: C_12  and  C_13
REMARK                            x       y       z     vdW  Elec       q    Type
REMARK                         _______ _______ _______ _____ _____    ______ ____
ROOT
ATOM      1  C   UNL     1      -7.568   1.192 124.269  0.00  0.00    +0.000 A 
ATOM      2  C   UNL     1      -8.466   1.387 125.320  0.00  0.00    +0.000 A 
ATOM      3  C   UNL     1      -8.510   0.496 126.453  0.00  0.00    +0.000 A 
ATOM      4  C   UNL     1      -7.670  -0.652 126.550  0.00  0.00    +0.000 A 
ATOM      5  C   UNL     1      -6.876  -0.814 125.405  0.00  0.00    +0.000 A 
ATOM      6 CL   UNL     1      -6.260  -2.238 124.745  0.00  0.00    +0.000 Cl
ATOM      7  C   UNL     1      -6.750   0.111 124.355  0.00  0.00    +0.000 A 
ENDROOT
BRANCH   4   8
ATOM      8  C   UNL     1      -7.811  -1.678 127.740  0.00  0.00    +0.000 C 
ATOM      9  O   UNL     1      -8.414  -2.729 127.501  0.00  0.00    +0.000 OA
ATOM     10  N   UNL     1      -7.179  -1.426 129.010  0.00  0.00    +0.000 N 
ATOM     11  C   UNL     1      -7.622  -0.319 129.921  0.00  0.00    +0.000 C 
ATOM     12  C   UNL     1      -6.600   0.791 130.224  0.00  0.00    +0.000 C 
ATOM     13  C   UNL     1      -5.200   0.322 130.641  0.00  0.00    +0.000 C 
ATOM     14  C   UNL     1      -4.515  -0.762 129.814  0.00  0.00    +0.000 C 
ATOM     15  C   UNL     1      -5.086  -2.096 130.126  0.00  0.00    +0.000 A 
ATOM     16  C   UNL     1      -4.214  -2.963 130.800  0.00  0.00    +0.000 A 
ATOM     17  C   UNL     1      -4.646  -4.208 131.180  0.00  0.00    +0.000 A 
ATOM     18  C   UNL     1      -5.948  -4.585 130.847  0.00  0.00    +0.000 A 
ATOM     19  C   UNL     1      -6.815  -3.731 130.102  0.00  0.00    +0.000 A 
ATOM     20  C   UNL     1      -6.394  -2.451 129.720  0.00  0.00    +0.000 A 
ENDBRANCH   4   8
BRANCH   1  28
ATOM     21  C   UNL     1      -7.391   4.493 118.456  0.00  0.00    +0.000 C 
ATOM     22  C   UNL     1      -6.746   4.289 119.783  0.00  0.00    +0.000 A 
ATOM     23  C   UNL     1      -5.612   4.996 120.235  0.00  0.00    +0.000 A 
ATOM     24  C   UNL     1      -5.371   4.504 121.483  0.00  0.00    +0.000 A 
ATOM     25  N   UNL     1      -6.338   3.564 121.762  0.00  0.00    +0.000 N 
ATOM     26  C   UNL     1      -6.435   2.880 122.995  0.00  0.00    +0.000 C 
ATOM     27  O   UNL     1      -5.564   3.098 123.853  0.00  0.00    +0.000 OA
ATOM     28  N   UNL     1      -7.467   1.992 123.106  0.00  0.00    +0.000 N 
ATOM     29  N   UNL     1      -7.194   3.398 120.694  0.00  0.00    +0.000 NA
ATOM     30  H   UNL     1      -7.904   1.685 122.233  0.00  0.00    +0.000 HD
ENDBRANCH   1  28
TORSDOF 2
ENDMDL
MODEL 7
REMARK VINA RESULT:      -8.2      4.355      6.430
REMARK  Name = CHEMBL4205046
REMARK  3 active torsions:
REMARK  status: ('A' for Active; 'I' for Inactive)
REMARK    1  A    between atoms: C_1  and  C_2
REMARK    2  A    between atoms: N_8  and  C_9
REMARK    3  A    between atoms: C_12  and  C_13
REMARK                            x       y       z     vdW  Elec       q    Type
REMARK                         _______ _______ _______ _____ _____    ______ ____
ROOT
ATOM      1  C   UNL     1      -7.240   0.846 131.189  0.00  0.00    +0.000 A 
ATOM      2  C   UNL     1      -7.351   1.171 129.836  0.00  0.00    +0.000 A 
ATOM      3  C   UNL     1      -7.617   0.167 128.836  0.00  0.00    +0.000 A 
ATOM      4  C   UNL     1      -7.744  -1.216 129.163  0.00  0.00    +0.000 A 
ATOM      5  C   UNL     1      -7.522  -1.450 130.528  0.00  0.00    +0.000 A 
ATOM      6 CL   UNL     1      -6.925  -2.841 131.272  0.00  0.00    +0.000 Cl
ATOM      7  C   UNL     1      -7.376  -0.464 131.518  0.00  0.00    +0.000 A 
ENDROOT
BRANCH   4   8
ATOM      8  C   UNL     1      -7.921  -2.314 128.044  0.00  0.00    +0.000 C 
ATOM      9  O   UNL     1      -8.618  -3.293 128.329  0.00  0.00    +0.000 OA
ATOM     10  N   UNL     1      -7.366  -2.122 126.729  0.00  0.00    +0.000 N 
ATOM     11  C   UNL     1      -5.887  -2.111 126.476  0.00  0.00    +0.000 C 
ATOM     12  C   UNL     1      -5.279  -0.810 125.926  0.00  0.00    +0.000 C 
ATOM     13  C   UNL     1      -6.002  -0.182 124.727  0.00  0.00    +0.000 C 
ATOM     14  C   UNL     1      -7.519  -0.028 124.786  0.00  0.00    +0.000 C 
ATOM     15  C   UNL     1      -8.186  -1.331 124.543  0.00  0.00    +0.000 A 
ATOM     16  C   UNL     1      -8.887  -1.413 123.332  0.00  0.00    +0.000 A 
ATOM     17  C   UNL     1      -9.508  -2.584 122.979  0.00  0.00    +0.000 A 
ATOM     18  C   UNL     1      -9.446  -3.658 123.868  0.00  0.00    +0.000 A 
ATOM     19  C   UNL     1      -8.791  -3.557 125.131  0.00  0.00    +0.000 A 
ATOM     20  C   UNL     1      -8.139  -2.373 125.500  0.00  0.00    +0.000 A 
ENDBRANCH   4   8
BRANCH   1  28
ATOM     21  C   UNL     1      -5.461   4.701 136.356  0.00  0.00    +0.000 C 
ATOM     22  C   UNL     1      -6.543   4.336 135.400  0.00  0.00    +0.000 A 
ATOM     23  C   UNL     1      -7.816   4.942 135.368  0.00  0.00    +0.000 A 
ATOM     24  C   UNL     1      -8.473   4.317 134.351  0.00  0.00    +0.000 A 
ATOM     25  N   UNL     1      -7.612   3.399 133.792  0.00  0.00    +0.000 N 
ATOM     26  C   UNL     1      -7.936   2.600 132.671  0.00  0.00    +0.000 C 
ATOM     27  O   UNL     1      -9.082   2.692 132.202  0.00  0.00    +0.000 OA
ATOM     28  N   UNL     1      -6.955   1.753 132.238  0.00  0.00    +0.000 N 
ATOM     29  N   UNL     1      -6.404   3.379 134.456  0.00  0.00    +0.000 NA
ATOM     30  H   UNL     1      -6.196   1.555 132.895  0.00  0.00    +0.000 HD
ENDBRANCH   1  28
TORSDOF 2
ENDMDL
MODEL 8
REMARK VINA RESULT:      -8.1      5.858      7.715
REMARK  Name = CHEMBL4205046
REMARK  3 active torsions:
REMARK  status: ('A' for Active; 'I' for Inactive)
REMARK    1  A    between atoms: C_1  and  C_2
REMARK    2  A    between atoms: N_8  and  C_9
REMARK    3  A    between atoms: C_12  and  C_13
REMARK                            x       y       z     vdW  Elec       q    Type
REMARK                         _______ _______ _______ _____ _____    ______ ____
ROOT
ATOM      1  C   UNL     1      -3.610   4.217 128.458  0.00  0.00    +0.000 A 
ATOM      2  C   UNL     1      -3.858   2.848 128.580  0.00  0.00    +0.000 A 
ATOM      3  C   UNL     1      -4.563   2.113 127.560  0.00  0.00    +0.000 A 
ATOM      4  C   UNL     1      -5.079   2.742 126.390  0.00  0.00    +0.000 A 
ATOM      5  C   UNL     1      -4.865   4.128 126.407  0.00  0.00    +0.000 A 
ATOM      6 CL   UNL     1      -5.780   5.344 125.680  0.00  0.00    +0.000 Cl
ATOM      7  C   UNL     1      -4.082   4.827 127.341  0.00  0.00    +0.000 A 
ENDROOT
BRANCH   4   8
ATOM      8  C   UNL     1      -5.947   1.946 125.340  0.00  0.00    +0.000 C 
ATOM      9  O   UNL     1      -6.041   2.434 124.210  0.00  0.00    +0.000 OA
ATOM     10  N   UNL     1      -6.516   0.665 125.674  0.00  0.00    +0.000 N 
ATOM     11  C   UNL     1      -7.614   0.514 126.686  0.00  0.00    +0.000 C 
ATOM     12  C   UNL     1      -7.302  -0.320 127.940  0.00  0.00    +0.000 C 
ATOM     13  C   UNL     1      -6.649  -1.687 127.695  0.00  0.00    +0.000 C 
ATOM     14  C   UNL     1      -5.459  -1.768 126.743  0.00  0.00    +0.000 C 
ATOM     15  C   UNL     1      -5.913  -1.700 125.332  0.00  0.00    +0.000 A 
ATOM     16  C   UNL     1      -5.752  -2.889 124.607  0.00  0.00    +0.000 A 
ATOM     17  C   UNL     1      -6.177  -2.958 123.304  0.00  0.00    +0.000 A 
ATOM     18  C   UNL     1      -6.732  -1.815 122.729  0.00  0.00    +0.000 A 
ATOM     19  C   UNL     1      -6.836  -0.584 123.443  0.00  0.00    +0.000 A 
ATOM     20  C   UNL     1      -6.421  -0.501 124.779  0.00  0.00    +0.000 A 
ENDBRANCH   4   8
BRANCH   1  28
ATOM     21  C   UNL     1      -0.015   7.630 132.946  0.00  0.00    +0.000 C 
ATOM     22  C   UNL     1      -1.378   7.291 132.454  0.00  0.00    +0.000 A 
ATOM     23  C   UNL     1      -2.574   7.805 132.999  0.00  0.00    +0.000 A 
ATOM     24  C   UNL     1      -3.566   7.245 132.252  0.00  0.00    +0.000 A 
ATOM     25  N   UNL     1      -2.976   6.453 131.291  0.00  0.00    +0.000 N 
ATOM     26  C   UNL     1      -3.700   5.754 130.298  0.00  0.00    +0.000 C 
ATOM     27  O   UNL     1      -4.940   5.812 130.330  0.00  0.00    +0.000 OA
ATOM     28  N   UNL     1      -2.953   5.028 129.414  0.00  0.00    +0.000 N 
ATOM     29  N   UNL     1      -1.604   6.450 131.420  0.00  0.00    +0.000 NA
ATOM     30  H   UNL     1      -1.991   4.817 129.691  0.00  0.00    +0.000 HD
ENDBRANCH   1  28
TORSDOF 2
ENDMDL
MODEL 9
REMARK VINA RESULT:      -8.0      5.299      9.625
REMARK  Name = CHEMBL4205046
REMARK  3 active torsions:
REMARK  status: ('A' for Active; 'I' for Inactive)
REMARK    1  A    between atoms: C_1  and  C_2
REMARK    2  A    between atoms: N_8  and  C_9
REMARK    3  A    between atoms: C_12  and  C_13
REMARK                            x       y       z     vdW  Elec       q    Type
REMARK                         _______ _______ _______ _____ _____    ______ ____
ROOT
ATOM      1  C   UNL     1      -6.470  -3.377 130.054  0.00  0.00    +0.000 A 
ATOM      2  C   UNL     1      -5.468  -2.858 129.231  0.00  0.00    +0.000 A 
ATOM      3  C   UNL     1      -5.744  -2.432 127.881  0.00  0.00    +0.000 A 
ATOM      4  C   UNL     1      -7.040  -2.549 127.297  0.00  0.00    +0.000 A 
ATOM      5  C   UNL     1      -7.949  -3.168 128.168  0.00  0.00    +0.000 A 
ATOM      6 CL   UNL     1      -9.306  -4.093 127.787  0.00  0.00    +0.000 Cl
ATOM      7  C   UNL     1      -7.712  -3.479 129.517  0.00  0.00    +0.000 A 
ENDROOT
BRANCH   4   8
ATOM      8  C   UNL     1      -7.298  -2.184 125.784  0.00  0.00    +0.000 C 
ATOM      9  O   UNL     1      -7.525  -3.125 125.016  0.00  0.00    +0.000 OA
ATOM     10  N   UNL     1      -7.355  -0.810 125.356  0.00  0.00    +0.000 N 
ATOM     11  C   UNL     1      -6.148   0.081 125.358  0.00  0.00    +0.000 C 
ATOM     12  C   UNL     1      -6.191   1.318 126.271  0.00  0.00    +0.000 C 
ATOM     13  C   UNL     1      -7.457   2.180 126.180  0.00  0.00    +0.000 C 
ATOM     14  C   UNL     1      -8.817   1.489 126.225  0.00  0.00    +0.000 C 
ATOM     15  C   UNL     1      -9.122   0.852 124.920  0.00  0.00    +0.000 A 
ATOM     16  C   UNL     1     -10.169   1.451 124.206  0.00  0.00    +0.000 A 
ATOM     17  C   UNL     1     -10.512   0.974 122.966  0.00  0.00    +0.000 A 
ATOM     18  C   UNL     1      -9.817  -0.129 122.467  0.00  0.00    +0.000 A 
ATOM     19  C   UNL     1      -8.796  -0.782 123.220  0.00  0.00    +0.000 A 
ATOM     20  C   UNL     1      -8.424  -0.298 124.481  0.00  0.00    +0.000 A 
ENDBRANCH   4   8
BRANCH   1  28
ATOM     21  C   UNL     1      -5.769  -6.183 136.084  0.00  0.00    +0.000 C 
ATOM     22  C   UNL     1      -6.111  -4.948 135.327  0.00  0.00    +0.000 A 
ATOM     23  C   UNL     1      -6.445  -3.714 135.924  0.00  0.00    +0.000 A 
ATOM     24  C   UNL     1      -6.674  -2.872 134.878  0.00  0.00    +0.000 A 
ATOM     25  N   UNL     1      -6.460  -3.576 133.713  0.00  0.00    +0.000 N 
ATOM     26  C   UNL     1      -6.553  -3.006 132.423  0.00  0.00    +0.000 C 
ATOM     27  O   UNL     1      -6.904  -1.817 132.335  0.00  0.00    +0.000 OA
ATOM     28  N   UNL     1      -6.293  -3.846 131.378  0.00  0.00    +0.000 N 
ATOM     29  N   UNL     1      -6.131  -4.888 133.977  0.00  0.00    +0.000 NA
ATOM     30  H   UNL     1      -6.330  -4.849 131.576  0.00  0.00    +0.000 HD
ENDBRANCH   1  28
TORSDOF 2
ENDMDL
