MODEL 1
REMARK VINA RESULT:      -7.5      0.000      0.000
REMARK  Name = CHEMBL1092459
REMARK  10 active torsions:
REMARK  status: ('A' for Active; 'I' for Inactive)
REMARK    1  A    between atoms: C_1  and  O_2
REMARK    2  A    between atoms: O_2  and  C_3
REMARK    3  A    between atoms: C_6  and  N_7
REMARK    4  A    between atoms: N_7  and  C_24
REMARK    5  A    between atoms: C_8  and  C_10
REMARK    6  A    between atoms: C_13  and  C_14
REMARK    7  A    between atoms: C_18  and  C_19
REMARK    8  A    between atoms: C_20  and  C_21
REMARK    9  A    between atoms: C_24  and  C_25
REMARK   10  A    between atoms: C_24  and  C_26
REMARK                            x       y       z     vdW  Elec       q    Type
REMARK                         _______ _______ _______ _____ _____    ______ ____
ROOT
ATOM      1  N   UNL     1      -7.541   2.740 123.508  0.00  0.00    +0.000 N 
ATOM      2  C   UNL     1      -7.363   3.388 124.776  0.00  0.00    +0.000 C 
ATOM      3  O   UNL     1      -7.065   4.582 124.921  0.00  0.00    +0.000 OA
ENDROOT
BRANCH   1   7
ATOM      4  C   UNL     1      -9.111  -1.222 123.181  0.00  0.00    +0.000 A 
ATOM      5  C   UNL     1      -7.741  -1.053 123.197  0.00  0.00    +0.000 A 
ATOM      6  C   UNL     1      -7.212   0.240 123.346  0.00  0.00    +0.000 A 
ATOM      7  C   UNL     1      -8.039   1.369 123.338  0.00  0.00    +0.000 A 
ATOM      8  C   UNL     1      -9.376   1.052 123.105  0.00  0.00    +0.000 A 
ATOM      9  N   UNL     1      -9.937  -0.180 123.123  0.00  0.00    +0.000 NA
BRANCH   4  11
ATOM     10  C   UNL     1      -9.329  -3.389 124.026  0.00  0.00    +0.000 C 
ATOM     11  O   UNL     1      -9.747  -2.421 123.078  0.00  0.00    +0.000 OA
ENDBRANCH   4  11
ENDBRANCH   1   7
BRANCH   2  12
ATOM     12  C   UNL     1      -7.467   2.703 126.076  0.00  0.00    +0.000 A 
ATOM     13  C   UNL     1      -6.344   2.381 126.820  0.00  0.00    +0.000 A 
ATOM     14  N   UNL     1      -6.417   1.614 127.929  0.00  0.00    +0.000 NA
ATOM     15  C   UNL     1      -7.666   1.249 128.323  0.00  0.00    +0.000 A 
ATOM     16  C   UNL     1      -8.794   1.688 127.638  0.00  0.00    +0.000 A 
ATOM     17  N   UNL     1      -8.725   2.385 126.486  0.00  0.00    +0.000 NA
BRANCH  15  18
ATOM     18  C   UNL     1      -7.735   0.390 129.504  0.00  0.00    +0.000 A 
ATOM     19  C   UNL     1      -7.905   1.009 130.754  0.00  0.00    +0.000 A 
ATOM     20  C   UNL     1      -7.970   0.262 131.921  0.00  0.00    +0.000 A 
ATOM     21  C   UNL     1      -7.830  -1.120 131.861  0.00  0.00    +0.000 A 
ATOM     22  C   UNL     1      -7.639  -1.774 130.634  0.00  0.00    +0.000 A 
ATOM     23  C   UNL     1      -7.454  -3.267 130.630  0.00  0.00    +0.000 C 
ATOM     24  C   UNL     1      -7.608  -1.024 129.437  0.00  0.00    +0.000 A 
ATOM     25  C   UNL     1      -7.421  -1.707 128.099  0.00  0.00    +0.000 C 
ENDBRANCH  15  18
ENDBRANCH   2  12
BRANCH   1  26
ATOM     26  C   UNL     1      -7.183   3.505 122.254  0.00  0.00    +0.000 C 
ATOM     27  C   UNL     1      -5.940   2.934 121.544  0.00  0.00    +0.000 C 
ATOM     28  C   UNL     1      -8.274   3.587 121.168  0.00  0.00    +0.000 C 
ENDBRANCH   1  26
TORSDOF 5
ENDMDL
MODEL 2
REMARK VINA RESULT:      -7.5      3.637      6.716
REMARK  Name = CHEMBL1092459
REMARK  10 active torsions:
REMARK  status: ('A' for Active; 'I' for Inactive)
REMARK    1  A    between atoms: C_1  and  O_2
REMARK    2  A    between atoms: O_2  and  C_3
REMARK    3  A    between atoms: C_6  and  N_7
REMARK    4  A    between atoms: N_7  and  C_24
REMARK    5  A    between atoms: C_8  and  C_10
REMARK    6  A    between atoms: C_13  and  C_14
REMARK    7  A    between atoms: C_18  and  C_19
REMARK    8  A    between atoms: C_20  and  C_21
REMARK    9  A    between atoms: C_24  and  C_25
REMARK   10  A    between atoms: C_24  and  C_26
REMARK                            x       y       z     vdW  Elec       q    Type
REMARK                         _______ _______ _______ _____ _____    ______ ____
ROOT
ATOM      1  N   UNL     1      -7.112   3.693 129.866  0.00  0.00    +0.000 N 
ATOM      2  C   UNL     1      -8.220   2.795 129.710  0.00  0.00    +0.000 C 
ATOM      3  O   UNL     1      -9.276   2.861 130.356  0.00  0.00    +0.000 OA
ENDROOT
BRANCH   1   7
ATOM      4  C   UNL     1      -3.767   3.627 127.205  0.00  0.00    +0.000 A 
ATOM      5  C   UNL     1      -3.588   3.195 128.504  0.00  0.00    +0.000 A 
ATOM      6  C   UNL     1      -4.688   3.172 129.378  0.00  0.00    +0.000 A 
ATOM      7  C   UNL     1      -5.925   3.707 129.001  0.00  0.00    +0.000 A 
ATOM      8  C   UNL     1      -5.893   4.293 127.737  0.00  0.00    +0.000 A 
ATOM      9  N   UNL     1      -4.909   4.187 126.814  0.00  0.00    +0.000 NA
BRANCH   4  11
ATOM     10  C   UNL     1      -1.602   2.984 126.611  0.00  0.00    +0.000 C 
ATOM     11  O   UNL     1      -2.794   3.663 126.255  0.00  0.00    +0.000 OA
ENDBRANCH   4  11
ENDBRANCH   1   7
BRANCH   2  12
ATOM     12  C   UNL     1      -8.228   1.644 128.791  0.00  0.00    +0.000 A 
ATOM     13  C   UNL     1      -7.767   0.398 129.182  0.00  0.00    +0.000 A 
ATOM     14  N   UNL     1      -7.620  -0.617 128.304  0.00  0.00    +0.000 NA
ATOM     15  C   UNL     1      -8.034  -0.373 127.032  0.00  0.00    +0.000 A 
ATOM     16  C   UNL     1      -8.615   0.842 126.685  0.00  0.00    +0.000 A 
ATOM     17  N   UNL     1      -8.690   1.886 127.534  0.00  0.00    +0.000 NA
BRANCH  15  18
ATOM     18  C   UNL     1      -7.839  -1.464 126.079  0.00  0.00    +0.000 A 
ATOM     19  C   UNL     1      -8.912  -2.348 125.869  0.00  0.00    +0.000 A 
ATOM     20  C   UNL     1      -8.801  -3.414 124.988  0.00  0.00    +0.000 A 
ATOM     21  C   UNL     1      -7.598  -3.635 124.326  0.00  0.00    +0.000 A 
ATOM     22  C   UNL     1      -6.497  -2.787 124.524  0.00  0.00    +0.000 A 
ATOM     23  C   UNL     1      -5.209  -3.097 123.813  0.00  0.00    +0.000 C 
ATOM     24  C   UNL     1      -6.614  -1.679 125.392  0.00  0.00    +0.000 A 
ATOM     25  C   UNL     1      -5.447  -0.739 125.610  0.00  0.00    +0.000 C 
ENDBRANCH  15  18
ENDBRANCH   2  12
BRANCH   1  26
ATOM     26  C   UNL     1      -7.148   4.690 131.003  0.00  0.00    +0.000 C 
ATOM     27  C   UNL     1      -6.581   4.116 132.315  0.00  0.00    +0.000 C 
ATOM     28  C   UNL     1      -6.396   6.016 130.775  0.00  0.00    +0.000 C 
ENDBRANCH   1  26
TORSDOF 5
ENDMDL
MODEL 3
REMARK VINA RESULT:      -7.4      4.031      7.709
REMARK  Name = CHEMBL1092459
REMARK  10 active torsions:
REMARK  status: ('A' for Active; 'I' for Inactive)
REMARK    1  A    between atoms: C_1  and  O_2
REMARK    2  A    between atoms: O_2  and  C_3
REMARK    3  A    between atoms: C_6  and  N_7
REMARK    4  A    between atoms: N_7  and  C_24
REMARK    5  A    between atoms: C_8  and  C_10
REMARK    6  A    between atoms: C_13  and  C_14
REMARK    7  A    between atoms: C_18  and  C_19
REMARK    8  A    between atoms: C_20  and  C_21
REMARK    9  A    between atoms: C_24  and  C_25
REMARK   10  A    between atoms: C_24  and  C_26
REMARK                            x       y       z     vdW  Elec       q    Type
REMARK                         _______ _______ _______ _____ _____    ______ ____
ROOT
ATOM      1  N   UNL     1      -8.056   4.913 130.474  0.00  0.00    +0.000 N 
ATOM      2  C   UNL     1      -7.373   3.841 129.809  0.00  0.00    +0.000 C 
ATOM      3  O   UNL     1      -6.310   3.335 130.198  0.00  0.00    +0.000 OA
ENDROOT
BRANCH   1   7
ATOM      4  C   UNL     1     -11.954   6.187 129.267  0.00  0.00    +0.000 A 
ATOM      5  C   UNL     1     -10.892   7.054 129.096  0.00  0.00    +0.000 A 
ATOM      6  C   UNL     1      -9.600   6.632 129.449  0.00  0.00    +0.000 A 
ATOM      7  C   UNL     1      -9.386   5.411 130.099  0.00  0.00    +0.000 A 
ATOM      8  C   UNL     1     -10.575   4.743 130.389  0.00  0.00    +0.000 A 
ATOM      9  N   UNL     1     -11.810   5.037 129.921  0.00  0.00    +0.000 NA
BRANCH   4  11
ATOM     10  C   UNL     1     -13.407   7.611 128.120  0.00  0.00    +0.000 C 
ATOM     11  O   UNL     1     -13.244   6.461 128.933  0.00  0.00    +0.000 OA
ENDBRANCH   4  11
ENDBRANCH   1   7
BRANCH   2  12
ATOM     12  C   UNL     1      -7.824   3.229 128.547  0.00  0.00    +0.000 A 
ATOM     13  C   UNL     1      -8.658   2.124 128.531  0.00  0.00    +0.000 A 
ATOM     14  N   UNL     1      -8.945   1.461 127.390  0.00  0.00    +0.000 NA
ATOM     15  C   UNL     1      -8.440   1.994 126.246  0.00  0.00    +0.000 A 
ATOM     16  C   UNL     1      -7.712   3.178 126.263  0.00  0.00    +0.000 A 
ATOM     17  N   UNL     1      -7.353   3.800 127.404  0.00  0.00    +0.000 NA
BRANCH  15  18
ATOM     18  C   UNL     1      -8.725   1.252 125.019  0.00  0.00    +0.000 A 
ATOM     19  C   UNL     1      -9.874   1.607 124.292  0.00  0.00    +0.000 A 
ATOM     20  C   UNL     1     -10.217   0.943 123.123  0.00  0.00    +0.000 A 
ATOM     21  C   UNL     1      -9.432  -0.115 122.679  0.00  0.00    +0.000 A 
ATOM     22  C   UNL     1      -8.287  -0.514 123.387  0.00  0.00    +0.000 A 
ATOM     23  C   UNL     1      -7.497  -1.689 122.883  0.00  0.00    +0.000 C 
ATOM     24  C   UNL     1      -7.912   0.181 124.558  0.00  0.00    +0.000 A 
ATOM     25  C   UNL     1      -6.672  -0.217 125.331  0.00  0.00    +0.000 C 
ENDBRANCH  15  18
ENDBRANCH   2  12
BRANCH   1  26
ATOM     26  C   UNL     1      -7.366   5.596 131.633  0.00  0.00    +0.000 C 
ATOM     27  C   UNL     1      -6.627   6.881 131.211  0.00  0.00    +0.000 C 
ATOM     28  C   UNL     1      -8.263   6.009 132.816  0.00  0.00    +0.000 C 
ENDBRANCH   1  26
TORSDOF 5
ENDMDL
MODEL 4
REMARK VINA RESULT:      -7.4      4.619      7.142
REMARK  Name = CHEMBL1092459
REMARK  10 active torsions:
REMARK  status: ('A' for Active; 'I' for Inactive)
REMARK    1  A    between atoms: C_1  and  O_2
REMARK    2  A    between atoms: O_2  and  C_3
REMARK    3  A    between atoms: C_6  and  N_7
REMARK    4  A    between atoms: N_7  and  C_24
REMARK    5  A    between atoms: C_8  and  C_10
REMARK    6  A    between atoms: C_13  and  C_14
REMARK    7  A    between atoms: C_18  and  C_19
REMARK    8  A    between atoms: C_20  and  C_21
REMARK    9  A    between atoms: C_24  and  C_25
REMARK   10  A    between atoms: C_24  and  C_26
REMARK                            x       y       z     vdW  Elec       q    Type
REMARK                         _______ _______ _______ _____ _____    ______ ____
ROOT
ATOM      1  N   UNL     1      -7.180   1.542 129.053  0.00  0.00    +0.000 N 
ATOM      2  C   UNL     1      -7.548   2.093 130.325  0.00  0.00    +0.000 C 
ATOM      3  O   UNL     1      -7.128   1.684 131.418  0.00  0.00    +0.000 OA
ENDROOT
BRANCH   1   7
ATOM      4  C   UNL     1      -8.245   3.033 125.191  0.00  0.00    +0.000 A 
ATOM      5  C   UNL     1      -7.311   3.728 125.934  0.00  0.00    +0.000 A 
ATOM      6  C   UNL     1      -6.921   3.226 127.187  0.00  0.00    +0.000 A 
ATOM      7  C   UNL     1      -7.559   2.118 127.757  0.00  0.00    +0.000 A 
ATOM      8  C   UNL     1      -8.619   1.653 126.981  0.00  0.00    +0.000 A 
ATOM      9  N   UNL     1      -8.913   2.003 125.707  0.00  0.00    +0.000 NA
BRANCH   4  11
ATOM     10  C   UNL     1      -8.908   2.304 123.073  0.00  0.00    +0.000 C 
ATOM     11  O   UNL     1      -8.679   3.392 123.953  0.00  0.00    +0.000 OA
ENDBRANCH   4  11
ENDBRANCH   1   7
BRANCH   2  12
ATOM     12  C   UNL     1      -8.514   3.191 130.503  0.00  0.00    +0.000 A 
ATOM     13  C   UNL     1      -9.873   3.003 130.311  0.00  0.00    +0.000 A 
ATOM     14  N   UNL     1     -10.744   4.034 130.314  0.00  0.00    +0.000 NA
ATOM     15  C   UNL     1     -10.224   5.256 130.601  0.00  0.00    +0.000 A 
ATOM     16  C   UNL     1      -8.879   5.410 130.918  0.00  0.00    +0.000 A 
ATOM     17  N   UNL     1      -7.989   4.401 130.839  0.00  0.00    +0.000 NA
BRANCH  15  18
ATOM     18  C   UNL     1     -11.167   6.373 130.566  0.00  0.00    +0.000 A 
ATOM     19  C   UNL     1     -11.920   6.629 131.725  0.00  0.00    +0.000 A 
ATOM     20  C   UNL     1     -12.843   7.665 131.766  0.00  0.00    +0.000 A 
ATOM     21  C   UNL     1     -13.053   8.443 130.633  0.00  0.00    +0.000 A 
ATOM     22  C   UNL     1     -12.335   8.207 129.450  0.00  0.00    +0.000 A 
ATOM     23  C   UNL     1     -12.631   9.053 128.243  0.00  0.00    +0.000 C 
ATOM     24  C   UNL     1     -11.368   7.177 129.412  0.00  0.00    +0.000 A 
ATOM     25  C   UNL     1     -10.568   6.912 128.154  0.00  0.00    +0.000 C 
ENDBRANCH  15  18
ENDBRANCH   2  12
BRANCH   1  26
ATOM     26  C   UNL     1      -6.358   0.273 129.030  0.00  0.00    +0.000 C 
ATOM     27  C   UNL     1      -7.219  -0.997 129.164  0.00  0.00    +0.000 C 
ATOM     28  C   UNL     1      -5.485   0.047 127.779  0.00  0.00    +0.000 C 
ENDBRANCH   1  26
TORSDOF 5
ENDMDL
MODEL 5
REMARK VINA RESULT:      -7.4      2.853      8.686
REMARK  Name = CHEMBL1092459
REMARK  10 active torsions:
REMARK  status: ('A' for Active; 'I' for Inactive)
REMARK    1  A    between atoms: C_1  and  O_2
REMARK    2  A    between atoms: O_2  and  C_3
REMARK    3  A    between atoms: C_6  and  N_7
REMARK    4  A    between atoms: N_7  and  C_24
REMARK    5  A    between atoms: C_8  and  C_10
REMARK    6  A    between atoms: C_13  and  C_14
REMARK    7  A    between atoms: C_18  and  C_19
REMARK    8  A    between atoms: C_20  and  C_21
REMARK    9  A    between atoms: C_24  and  C_25
REMARK   10  A    between atoms: C_24  and  C_26
REMARK                            x       y       z     vdW  Elec       q    Type
REMARK                         _______ _______ _______ _____ _____    ______ ____
ROOT
ATOM      1  N   UNL     1      -7.235   2.552 128.935  0.00  0.00    +0.000 N 
ATOM      2  C   UNL     1      -7.921   2.385 127.686  0.00  0.00    +0.000 C 
ATOM      3  O   UNL     1      -9.028   1.843 127.557  0.00  0.00    +0.000 OA
ENDROOT
BRANCH   1   7
ATOM      4  C   UNL     1      -3.685   4.909 129.266  0.00  0.00    +0.000 A 
ATOM      5  C   UNL     1      -3.568   3.533 129.273  0.00  0.00    +0.000 A 
ATOM      6  C   UNL     1      -4.723   2.747 129.123  0.00  0.00    +0.000 A 
ATOM      7  C   UNL     1      -5.998   3.324 129.108  0.00  0.00    +0.000 A 
ATOM      8  C   UNL     1      -5.965   4.701 129.318  0.00  0.00    +0.000 A 
ATOM      9  N   UNL     1      -4.875   5.503 129.301  0.00  0.00    +0.000 NA
BRANCH   4  11
ATOM     10  C   UNL     1      -2.540   6.697 128.291  0.00  0.00    +0.000 C 
ATOM     11  O   UNL     1      -2.644   5.779 129.367  0.00  0.00    +0.000 OA
ENDBRANCH   4  11
ENDBRANCH   1   7
BRANCH   2  12
ATOM     12  C   UNL     1      -7.374   2.796 126.381  0.00  0.00    +0.000 A 
ATOM     13  C   UNL     1      -7.380   4.120 125.975  0.00  0.00    +0.000 A 
ATOM     14  N   UNL     1      -7.031   4.485 124.723  0.00  0.00    +0.000 NA
ATOM     15  C   UNL     1      -6.590   3.489 123.910  0.00  0.00    +0.000 A 
ATOM     16  C   UNL     1      -6.467   2.183 124.373  0.00  0.00    +0.000 A 
ATOM     17  N   UNL     1      -6.889   1.798 125.594  0.00  0.00    +0.000 NA
BRANCH  15  18
ATOM     18  C   UNL     1      -6.249   3.885 122.545  0.00  0.00    +0.000 A 
ATOM     19  C   UNL     1      -4.970   4.424 122.321  0.00  0.00    +0.000 A 
ATOM     20  C   UNL     1      -4.575   4.833 121.056  0.00  0.00    +0.000 A 
ATOM     21  C   UNL     1      -5.469   4.741 119.994  0.00  0.00    +0.000 A 
ATOM     22  C   UNL     1      -6.762   4.227 120.181  0.00  0.00    +0.000 A 
ATOM     23  C   UNL     1      -7.701   4.187 119.007  0.00  0.00    +0.000 C 
ATOM     24  C   UNL     1      -7.159   3.775 121.459  0.00  0.00    +0.000 A 
ATOM     25  C   UNL     1      -8.541   3.201 121.683  0.00  0.00    +0.000 C 
ENDBRANCH  15  18
ENDBRANCH   2  12
BRANCH   1  26
ATOM     26  C   UNL     1      -7.807   1.882 130.164  0.00  0.00    +0.000 C 
ATOM     27  C   UNL     1      -7.344   0.420 130.314  0.00  0.00    +0.000 C 
ATOM     28  C   UNL     1      -7.494   2.553 131.517  0.00  0.00    +0.000 C 
ENDBRANCH   1  26
TORSDOF 5
ENDMDL
MODEL 6
REMARK VINA RESULT:      -7.3      4.819      7.883
REMARK  Name = CHEMBL1092459
REMARK  10 active torsions:
REMARK  status: ('A' for Active; 'I' for Inactive)
REMARK    1  A    between atoms: C_1  and  O_2
REMARK    2  A    between atoms: O_2  and  C_3
REMARK    3  A    between atoms: C_6  and  N_7
REMARK    4  A    between atoms: N_7  and  C_24
REMARK    5  A    between atoms: C_8  and  C_10
REMARK    6  A    between atoms: C_13  and  C_14
REMARK    7  A    between atoms: C_18  and  C_19
REMARK    8  A    between atoms: C_20  and  C_21
REMARK    9  A    between atoms: C_24  and  C_25
REMARK   10  A    between atoms: C_24  and  C_26
REMARK                            x       y       z     vdW  Elec       q    Type
REMARK                         _______ _______ _______ _____ _____    ______ ____
ROOT
ATOM      1  N   UNL     1      -8.116   1.041 130.331  0.00  0.00    +0.000 N 
ATOM      2  C   UNL     1      -8.796   1.889 131.267  0.00  0.00    +0.000 C 
ATOM      3  O   UNL     1      -8.968   1.619 132.465  0.00  0.00    +0.000 OA
ENDROOT
BRANCH   1   7
ATOM      4  C   UNL     1      -7.225   1.971 126.255  0.00  0.00    +0.000 A 
ATOM      5  C   UNL     1      -6.217   2.075 127.192  0.00  0.00    +0.000 A 
ATOM      6  C   UNL     1      -6.485   1.733 128.528  0.00  0.00    +0.000 A 
ATOM      7  C   UNL     1      -7.782   1.424 128.952  0.00  0.00    +0.000 A 
ATOM      8  C   UNL     1      -8.726   1.563 127.936  0.00  0.00    +0.000 A 
ATOM      9  N   UNL     1      -8.483   1.728 126.615  0.00  0.00    +0.000 NA
BRANCH   4  11
ATOM     10  C   UNL     1      -8.137   3.009 124.371  0.00  0.00    +0.000 C 
ATOM     11  O   UNL     1      -7.085   2.238 124.928  0.00  0.00    +0.000 OA
ENDBRANCH   4  11
ENDBRANCH   1   7
BRANCH   2  12
ATOM     12  C   UNL     1      -9.424   3.174 130.914  0.00  0.00    +0.000 A 
ATOM     13  C   UNL     1     -10.747   3.252 130.515  0.00  0.00    +0.000 A 
ATOM     14  N   UNL     1     -11.284   4.395 130.037  0.00  0.00    +0.000 NA
ATOM     15  C   UNL     1     -10.475   5.487 130.052  0.00  0.00    +0.000 A 
ATOM     16  C   UNL     1      -9.189   5.423 130.576  0.00  0.00    +0.000 A 
ATOM     17  N   UNL     1      -8.619   4.270 130.979  0.00  0.00    +0.000 NA
BRANCH  15  18
ATOM     18  C   UNL     1     -11.050   6.713 129.500  0.00  0.00    +0.000 A 
ATOM     19  C   UNL     1     -10.682   7.077 128.193  0.00  0.00    +0.000 A 
ATOM     20  C   UNL     1     -11.177   8.231 127.604  0.00  0.00    +0.000 A 
ATOM     21  C   UNL     1     -12.025   9.063 128.328  0.00  0.00    +0.000 A 
ATOM     22  C   UNL     1     -12.401   8.744 129.642  0.00  0.00    +0.000 A 
ATOM     23  C   UNL     1     -13.289   9.698 130.393  0.00  0.00    +0.000 C 
ATOM     24  C   UNL     1     -11.929   7.552 130.236  0.00  0.00    +0.000 A 
ATOM     25  C   UNL     1     -12.333   7.176 131.646  0.00  0.00    +0.000 C 
ENDBRANCH  15  18
ENDBRANCH   2  12
BRANCH   1  26
ATOM     26  C   UNL     1      -7.720  -0.349 130.775  0.00  0.00    +0.000 C 
ATOM     27  C   UNL     1      -7.855  -1.393 129.650  0.00  0.00    +0.000 C 
ATOM     28  C   UNL     1      -6.286  -0.512 131.317  0.00  0.00    +0.000 C 
ENDBRANCH   1  26
TORSDOF 5
ENDMDL
MODEL 7
REMARK VINA RESULT:      -7.3      3.857      8.598
REMARK  Name = CHEMBL1092459
REMARK  10 active torsions:
REMARK  status: ('A' for Active; 'I' for Inactive)
REMARK    1  A    between atoms: C_1  and  O_2
REMARK    2  A    between atoms: O_2  and  C_3
REMARK    3  A    between atoms: C_6  and  N_7
REMARK    4  A    between atoms: N_7  and  C_24
REMARK    5  A    between atoms: C_8  and  C_10
REMARK    6  A    between atoms: C_13  and  C_14
REMARK    7  A    between atoms: C_18  and  C_19
REMARK    8  A    between atoms: C_20  and  C_21
REMARK    9  A    between atoms: C_24  and  C_25
REMARK   10  A    between atoms: C_24  and  C_26
REMARK                            x       y       z     vdW  Elec       q    Type
REMARK                         _______ _______ _______ _____ _____    ______ ____
ROOT
ATOM      1  N   UNL     1      -8.368   3.962 130.893  0.00  0.00    +0.000 N 
ATOM      2  C   UNL     1      -7.678   3.103 129.974  0.00  0.00    +0.000 C 
ATOM      3  O   UNL     1      -6.901   2.196 130.307  0.00  0.00    +0.000 OA
ENDROOT
BRANCH   1   7
ATOM      4  C   UNL     1     -11.408   6.675 129.599  0.00  0.00    +0.000 A 
ATOM      5  C   UNL     1     -10.156   7.177 129.895  0.00  0.00    +0.000 A 
ATOM      6  C   UNL     1      -9.136   6.291 130.281  0.00  0.00    +0.000 A 
ATOM      7  C   UNL     1      -9.399   4.935 130.506  0.00  0.00    +0.000 A 
ATOM      8  C   UNL     1     -10.750   4.621 130.369  0.00  0.00    +0.000 A 
ATOM      9  N   UNL     1     -11.720   5.405 129.842  0.00  0.00    +0.000 NA
BRANCH   4  11
ATOM     10  C   UNL     1     -12.112   8.621 128.514  0.00  0.00    +0.000 C 
ATOM     11  O   UNL     1     -12.467   7.421 129.182  0.00  0.00    +0.000 OA
ENDBRANCH   4  11
ENDBRANCH   1   7
BRANCH   2  12
ATOM     12  C   UNL     1      -7.766   3.219 128.508  0.00  0.00    +0.000 A 
ATOM     13  C   UNL     1      -8.292   2.201 127.729  0.00  0.00    +0.000 A 
ATOM     14  N   UNL     1      -8.229   2.229 126.381  0.00  0.00    +0.000 NA
ATOM     15  C   UNL     1      -7.700   3.353 125.829  0.00  0.00    +0.000 A 
ATOM     16  C   UNL     1      -7.295   4.421 126.621  0.00  0.00    +0.000 A 
ATOM     17  N   UNL     1      -7.279   4.369 127.968  0.00  0.00    +0.000 NA
BRANCH  15  18
ATOM     18  C   UNL     1      -7.603   3.361 124.370  0.00  0.00    +0.000 A 
ATOM     19  C   UNL     1      -8.724   2.934 123.638  0.00  0.00    +0.000 A 
ATOM     20  C   UNL     1      -8.706   2.903 122.251  0.00  0.00    +0.000 A 
ATOM     21  C   UNL     1      -7.548   3.268 121.571  0.00  0.00    +0.000 A 
ATOM     22  C   UNL     1      -6.401   3.681 122.267  0.00  0.00    +0.000 A 
ATOM     23  C   UNL     1      -5.164   4.026 121.484  0.00  0.00    +0.000 C 
ATOM     24  C   UNL     1      -6.424   3.749 123.678  0.00  0.00    +0.000 A 
ATOM     25  C   UNL     1      -5.206   4.208 124.452  0.00  0.00    +0.000 C 
ENDBRANCH  15  18
ENDBRANCH   2  12
BRANCH   1  26
ATOM     26  C   UNL     1      -8.012   3.882 132.360  0.00  0.00    +0.000 C 
ATOM     27  C   UNL     1      -8.232   5.215 133.099  0.00  0.00    +0.000 C 
ATOM     28  C   UNL     1      -8.764   2.823 133.190  0.00  0.00    +0.000 C 
ENDBRANCH   1  26
TORSDOF 5
ENDMDL
MODEL 8
REMARK VINA RESULT:      -7.2      3.651      4.936
REMARK  Name = CHEMBL1092459
REMARK  10 active torsions:
REMARK  status: ('A' for Active; 'I' for Inactive)
REMARK    1  A    between atoms: C_1  and  O_2
REMARK    2  A    between atoms: O_2  and  C_3
REMARK    3  A    between atoms: C_6  and  N_7
REMARK    4  A    between atoms: N_7  and  C_24
REMARK    5  A    between atoms: C_8  and  C_10
REMARK    6  A    between atoms: C_13  and  C_14
REMARK    7  A    between atoms: C_18  and  C_19
REMARK    8  A    between atoms: C_20  and  C_21
REMARK    9  A    between atoms: C_24  and  C_25
REMARK   10  A    between atoms: C_24  and  C_26
REMARK                            x       y       z     vdW  Elec       q    Type
REMARK                         _______ _______ _______ _____ _____    ______ ____
ROOT
ATOM      1  N   UNL     1      -6.726   2.670 123.722  0.00  0.00    +0.000 N 
ATOM      2  C   UNL     1      -5.944   3.745 124.261  0.00  0.00    +0.000 C 
ATOM      3  O   UNL     1      -5.584   4.744 123.621  0.00  0.00    +0.000 OA
ENDROOT
BRANCH   1   7
ATOM      4  C   UNL     1      -8.319  -0.671 125.860  0.00  0.00    +0.000 A 
ATOM      5  C   UNL     1      -9.005   0.527 125.898  0.00  0.00    +0.000 A 
ATOM      6  C   UNL     1      -8.515   1.621 125.166  0.00  0.00    +0.000 A 
ATOM      7  C   UNL     1      -7.277   1.564 124.515  0.00  0.00    +0.000 A 
ATOM      8  C   UNL     1      -6.609   0.361 124.740  0.00  0.00    +0.000 A 
ATOM      9  N   UNL     1      -7.117  -0.763 125.295  0.00  0.00    +0.000 NA
BRANCH   4  11
ATOM     10  C   UNL     1      -9.412  -2.728 125.673  0.00  0.00    +0.000 C 
ATOM     11  O   UNL     1      -8.707  -1.811 126.494  0.00  0.00    +0.000 OA
ENDBRANCH   4  11
ENDBRANCH   1   7
BRANCH   2  12
ATOM     12  C   UNL     1      -5.426   3.780 125.640  0.00  0.00    +0.000 A 
ATOM     13  C   UNL     1      -6.051   4.515 126.633  0.00  0.00    +0.000 A 
ATOM     14  N   UNL     1      -5.497   4.684 127.853  0.00  0.00    +0.000 NA
ATOM     15  C   UNL     1      -4.334   4.018 128.079  0.00  0.00    +0.000 A 
ATOM     16  C   UNL     1      -3.785   3.180 127.115  0.00  0.00    +0.000 A 
ATOM     17  N   UNL     1      -4.287   3.070 125.869  0.00  0.00    +0.000 NA
BRANCH  15  18
ATOM     18  C   UNL     1      -3.721   4.234 129.389  0.00  0.00    +0.000 A 
ATOM     19  C   UNL     1      -4.093   3.370 130.434  0.00  0.00    +0.000 A 
ATOM     20  C   UNL     1      -3.563   3.517 131.708  0.00  0.00    +0.000 A 
ATOM     21  C   UNL     1      -2.676   4.556 131.968  0.00  0.00    +0.000 A 
ATOM     22  C   UNL     1      -2.295   5.451 130.956  0.00  0.00    +0.000 A 
ATOM     23  C   UNL     1      -1.363   6.580 131.301  0.00  0.00    +0.000 C 
ATOM     24  C   UNL     1      -2.802   5.286 129.647  0.00  0.00    +0.000 A 
ATOM     25  C   UNL     1      -2.394   6.227 128.534  0.00  0.00    +0.000 C 
ENDBRANCH  15  18
ENDBRANCH   2  12
BRANCH   1  26
ATOM     26  C   UNL     1      -6.997   2.654 122.235  0.00  0.00    +0.000 C 
ATOM     27  C   UNL     1      -8.268   3.438 121.853  0.00  0.00    +0.000 C 
ATOM     28  C   UNL     1      -5.882   3.214 121.330  0.00  0.00    +0.000 C 
ENDBRANCH   1  26
TORSDOF 5
ENDMDL
MODEL 9
REMARK VINA RESULT:      -7.2      5.648      8.747
REMARK  Name = CHEMBL1092459
REMARK  10 active torsions:
REMARK  status: ('A' for Active; 'I' for Inactive)
REMARK    1  A    between atoms: C_1  and  O_2
REMARK    2  A    between atoms: O_2  and  C_3
REMARK    3  A    between atoms: C_6  and  N_7
REMARK    4  A    between atoms: N_7  and  C_24
REMARK    5  A    between atoms: C_8  and  C_10
REMARK    6  A    between atoms: C_13  and  C_14
REMARK    7  A    between atoms: C_18  and  C_19
REMARK    8  A    between atoms: C_20  and  C_21
REMARK    9  A    between atoms: C_24  and  C_25
REMARK   10  A    between atoms: C_24  and  C_26
REMARK                            x       y       z     vdW  Elec       q    Type
REMARK                         _______ _______ _______ _____ _____    ______ ____
ROOT
ATOM      1  N   UNL     1      -4.446   5.013 131.718  0.00  0.00    +0.000 N 
ATOM      2  C   UNL     1      -5.583   5.575 132.388  0.00  0.00    +0.000 C 
ATOM      3  O   UNL     1      -5.614   5.877 133.590  0.00  0.00    +0.000 OA
ENDROOT
BRANCH   1   7
ATOM      4  C   UNL     1      -4.360   4.503 127.475  0.00  0.00    +0.000 A 
ATOM      5  C   UNL     1      -4.360   3.378 128.276  0.00  0.00    +0.000 A 
ATOM      6  C   UNL     1      -4.430   3.531 129.671  0.00  0.00    +0.000 A 
ATOM      7  C   UNL     1      -4.359   4.795 130.268  0.00  0.00    +0.000 A 
ATOM      8  C   UNL     1      -4.151   5.814 129.341  0.00  0.00    +0.000 A 
ATOM      9  N   UNL     1      -4.244   5.723 127.994  0.00  0.00    +0.000 NA
BRANCH   4  11
ATOM     10  C   UNL     1      -5.015   3.397 125.525  0.00  0.00    +0.000 C 
ATOM     11  O   UNL     1      -4.331   4.490 126.115  0.00  0.00    +0.000 OA
ENDBRANCH   4  11
ENDBRANCH   1   7
BRANCH   2  12
ATOM     12  C   UNL     1      -6.884   5.824 131.742  0.00  0.00    +0.000 A 
ATOM     13  C   UNL     1      -7.152   7.011 131.082  0.00  0.00    +0.000 A 
ATOM     14  N   UNL     1      -8.388   7.313 130.628  0.00  0.00    +0.000 NA
ATOM     15  C   UNL     1      -9.333   6.348 130.779  0.00  0.00    +0.000 A 
ATOM     16  C   UNL     1      -9.016   5.110 131.328  0.00  0.00    +0.000 A 
ATOM     17  N   UNL     1      -7.807   4.831 131.855  0.00  0.00    +0.000 NA
BRANCH  15  18
ATOM     18  C   UNL     1     -10.677   6.695 130.319  0.00  0.00    +0.000 A 
ATOM     19  C   UNL     1     -11.666   6.912 131.294  0.00  0.00    +0.000 A 
ATOM     20  C   UNL     1     -12.967   7.234 130.936  0.00  0.00    +0.000 A 
ATOM     21  C   UNL     1     -13.310   7.311 129.590  0.00  0.00    +0.000 A 
ATOM     22  C   UNL     1     -12.356   7.081 128.586  0.00  0.00    +0.000 A 
ATOM     23  C   UNL     1     -12.790   7.138 127.148  0.00  0.00    +0.000 C 
ATOM     24  C   UNL     1     -11.020   6.788 128.944  0.00  0.00    +0.000 A 
ATOM     25  C   UNL     1      -9.968   6.553 127.881  0.00  0.00    +0.000 C 
ENDBRANCH  15  18
ENDBRANCH   2  12
BRANCH   1  26
ATOM     26  C   UNL     1      -3.253   4.600 132.550  0.00  0.00    +0.000 C 
ATOM     27  C   UNL     1      -3.207   3.083 132.812  0.00  0.00    +0.000 C 
ATOM     28  C   UNL     1      -1.865   4.962 131.984  0.00  0.00    +0.000 C 
ENDBRANCH   1  26
TORSDOF 5
ENDMDL
