MODEL 1
REMARK VINA RESULT:      -9.8      0.000      0.000
REMARK  Name = CHEMBL2037494
REMARK  9 active torsions:
REMARK  status: ('A' for Active; 'I' for Inactive)
REMARK    1  A    between atoms: C_1  and  C_2
REMARK    2  A    between atoms: C_5  and  C_6
REMARK    3  A    between atoms: C_6  and  C_7
REMARK    4  A    between atoms: C_6  and  N_12
REMARK    5  A    between atoms: N_9  and  C_10
REMARK    6  A    between atoms: N_9  and  C_11
REMARK    7  A    between atoms: CA_15  and  C_16
REMARK    8  A    between atoms: CA_28  and  C_29
REMARK    9  A    between atoms: C_29  and  C_30
REMARK                            x       y       z     vdW  Elec       q    Type
REMARK                         _______ _______ _______ _____ _____    ______ ____
ROOT
ATOM      1  N   UNL     1      -6.892   1.006 125.892  0.00  0.00    +0.000 N 
ATOM      2  C   UNL     1      -6.695   2.143 125.070  0.00  0.00    +0.000 C 
ATOM      3  O   UNL     1      -6.230   3.178 125.526  0.00  0.00    +0.000 OA
ATOM      4  CA  UNL     1      -7.491   2.082 123.684  0.00  0.00    +0.000 C 
ATOM      5  N   UNL     1      -7.020   0.920 122.992  0.00  0.00    +0.000 N 
ATOM      6  C   UNL     1      -6.933  -0.282 123.629  0.00  0.00    +0.000 C 
ATOM      7  O   UNL     1      -6.664  -1.266 122.992  0.00  0.00    +0.000 OA
ATOM      8  CA  UNL     1      -7.263  -0.248 125.145  0.00  0.00    +0.000 C 
ATOM      9  H   UNL     1      -6.755   0.906 122.014  0.00  0.00    +0.000 HD
ENDROOT
BRANCH   4  10
ATOM     10  C   UNL     1      -7.322   3.323 122.822  0.00  0.00    +0.000 C 
ATOM     11  C   UNL     1      -5.873   3.628 122.371  0.00  0.00    +0.000 C 
ATOM     12  C   UNL     1      -6.103   4.221 121.022  0.00  0.00    +0.000 A 
ATOM     13  C   UNL     1      -5.203   4.893 120.219  0.00  0.00    +0.000 A 
ATOM     14  C   UNL     1      -5.649   5.337 118.972  0.00  0.00    +0.000 A 
ATOM     15  C   UNL     1      -6.952   5.058 118.529  0.00  0.00    +0.000 A 
ATOM     16  C   UNL     1      -7.833   4.337 119.326  0.00  0.00    +0.000 A 
ATOM     17  C   UNL     1      -7.401   3.956 120.576  0.00  0.00    +0.000 A 
ATOM     18  C   UNL     1      -8.181   3.169 121.556  0.00  0.00    +0.000 C 
ENDBRANCH   4  10
BRANCH   1  19
ATOM     19  C   UNL     1      -6.855   1.221 127.500  0.00  0.00    +0.000 C 
BRANCH  19  24
ATOM     20  C   UNL     1      -5.244  -3.693 130.290  0.00  0.00    +0.000 C 
ATOM     21  C   UNL     1      -5.916  -2.531 129.614  0.00  0.00    +0.000 A 
ATOM     22  C   UNL     1      -5.098  -1.743 128.936  0.00  0.00    +0.000 A 
ATOM     23  C   UNL     1      -5.566  -0.464 128.612  0.00  0.00    +0.000 A 
ATOM     24  C   UNL     1      -6.804  -0.084 128.361  0.00  0.00    +0.000 A 
ATOM     25  C   UNL     1      -7.624  -1.005 128.949  0.00  0.00    +0.000 A 
ATOM     26  N   UNL     1      -7.213  -2.169 129.648  0.00  0.00    +0.000 NA
ENDBRANCH  19  24
BRANCH  19  27
ATOM     27  C   UNL     1      -7.754   2.180 128.337  0.00  0.00    +0.000 C 
ATOM     28  O   UNL     1      -8.981   2.095 128.163  0.00  0.00    +0.000 OA
ATOM     29  N   UNL     1      -7.279   3.148 129.183  0.00  0.00    +0.000 N 
ATOM     30  C   UNL     1      -5.995   3.187 129.785  0.00  0.00    +0.000 C 
ATOM     31  C   UNL     1      -8.218   4.028 129.808  0.00  0.00    +0.000 C 
ENDBRANCH  19  27
ENDBRANCH   1  19
BRANCH   8  32
ATOM     32  C   UNL     1      -6.542  -1.562 125.569  0.00  0.00    +0.000 C 
BRANCH  32  33
ATOM     33  C   UNL     1      -7.650  -2.921 125.866  0.00  0.00    +0.000 C 
ATOM     34  C   UNL     1      -9.356  -3.074 125.714  0.00  0.00    +0.000 C 
ATOM     35  C   UNL     1      -8.421  -3.863 124.879  0.00  0.00    +0.000 C 
ENDBRANCH  32  33
ENDBRANCH   8  32
TORSDOF 6
ENDMDL
MODEL 2
REMARK VINA RESULT:      -9.7      2.793      7.586
REMARK  Name = CHEMBL2037494
REMARK  9 active torsions:
REMARK  status: ('A' for Active; 'I' for Inactive)
REMARK    1  A    between atoms: C_1  and  C_2
REMARK    2  A    between atoms: C_5  and  C_6
REMARK    3  A    between atoms: C_6  and  C_7
REMARK    4  A    between atoms: C_6  and  N_12
REMARK    5  A    between atoms: N_9  and  C_10
REMARK    6  A    between atoms: N_9  and  C_11
REMARK    7  A    between atoms: CA_15  and  C_16
REMARK    8  A    between atoms: CA_28  and  C_29
REMARK    9  A    between atoms: C_29  and  C_30
REMARK                            x       y       z     vdW  Elec       q    Type
REMARK                         _______ _______ _______ _____ _____    ______ ____
ROOT
ATOM      1  N   UNL     1      -6.292   1.366 126.019  0.00  0.00    +0.000 N 
ATOM      2  C   UNL     1      -6.142   2.403 126.973  0.00  0.00    +0.000 C 
ATOM      3  O   UNL     1      -6.821   3.418 126.912  0.00  0.00    +0.000 OA
ATOM      4  CA  UNL     1      -4.787   2.310 127.818  0.00  0.00    +0.000 C 
ATOM      5  N   UNL     1      -4.817   1.051 128.501  0.00  0.00    +0.000 N 
ATOM      6  C   UNL     1      -5.128  -0.096 127.834  0.00  0.00    +0.000 C 
ATOM      7  O   UNL     1      -5.015  -1.153 128.396  0.00  0.00    +0.000 OA
ATOM      8  CA  UNL     1      -5.548   0.099 126.352  0.00  0.00    +0.000 C 
ATOM      9  H   UNL     1      -4.592   0.928 129.481  0.00  0.00    +0.000 HD
ENDROOT
BRANCH   4  10
ATOM     10  C   UNL     1      -4.599   3.449 128.807  0.00  0.00    +0.000 C 
ATOM     11  C   UNL     1      -4.057   3.042 130.197  0.00  0.00    +0.000 C 
ATOM     12  C   UNL     1      -3.228   4.231 130.551  0.00  0.00    +0.000 A 
ATOM     13  C   UNL     1      -2.671   4.553 131.773  0.00  0.00    +0.000 A 
ATOM     14  C   UNL     1      -1.905   5.717 131.852  0.00  0.00    +0.000 A 
ATOM     15  C   UNL     1      -1.663   6.502 130.713  0.00  0.00    +0.000 A 
ATOM     16  C   UNL     1      -2.189   6.142 129.479  0.00  0.00    +0.000 A 
ATOM     17  C   UNL     1      -2.990   5.024 129.425  0.00  0.00    +0.000 A 
ATOM     18  C   UNL     1      -3.620   4.471 128.206  0.00  0.00    +0.000 C 
ENDBRANCH   4  10
BRANCH   1  19
ATOM     19  C   UNL     1      -7.089   1.709 124.648  0.00  0.00    +0.000 C 
BRANCH  19  24
ATOM     20  C   UNL     1      -5.057   4.987 120.215  0.00  0.00    +0.000 C 
ATOM     21  C   UNL     1      -5.421   4.315 121.509  0.00  0.00    +0.000 A 
ATOM     22  C   UNL     1      -6.044   3.156 121.370  0.00  0.00    +0.000 A 
ATOM     23  C   UNL     1      -6.741   2.669 122.481  0.00  0.00    +0.000 A 
ATOM     24  C   UNL     1      -6.464   2.835 123.760  0.00  0.00    +0.000 A 
ATOM     25  C   UNL     1      -5.692   3.958 123.852  0.00  0.00    +0.000 A 
ATOM     26  N   UNL     1      -5.240   4.756 122.769  0.00  0.00    +0.000 NA
ENDBRANCH  19  24
BRANCH  19  27
ATOM     27  C   UNL     1      -8.624   1.921 124.485  0.00  0.00    +0.000 C 
ATOM     28  O   UNL     1      -9.086   3.005 124.878  0.00  0.00    +0.000 OA
ATOM     29  N   UNL     1      -9.493   0.972 124.014  0.00  0.00    +0.000 N 
ATOM     30  C   UNL     1      -9.163  -0.150 123.210  0.00  0.00    +0.000 C 
ATOM     31  C   UNL     1     -10.893   1.268 124.017  0.00  0.00    +0.000 C 
ENDBRANCH  19  27
ENDBRANCH   1  19
BRANCH   8  32
ATOM     32  C   UNL     1      -6.313  -1.243 126.150  0.00  0.00    +0.000 C 
BRANCH  32  33
ATOM     33  C   UNL     1      -6.103  -1.947 124.530  0.00  0.00    +0.000 C 
ATOM     34  C   UNL     1      -4.895  -2.976 123.866  0.00  0.00    +0.000 C 
ATOM     35  C   UNL     1      -6.305  -3.409 124.003  0.00  0.00    +0.000 C 
ENDBRANCH  32  33
ENDBRANCH   8  32
TORSDOF 6
ENDMDL
MODEL 3
REMARK VINA RESULT:      -9.4      1.710      3.665
REMARK  Name = CHEMBL2037494
REMARK  9 active torsions:
REMARK  status: ('A' for Active; 'I' for Inactive)
REMARK    1  A    between atoms: C_1  and  C_2
REMARK    2  A    between atoms: C_5  and  C_6
REMARK    3  A    between atoms: C_6  and  C_7
REMARK    4  A    between atoms: C_6  and  N_12
REMARK    5  A    between atoms: N_9  and  C_10
REMARK    6  A    between atoms: N_9  and  C_11
REMARK    7  A    between atoms: CA_15  and  C_16
REMARK    8  A    between atoms: CA_28  and  C_29
REMARK    9  A    between atoms: C_29  and  C_30
REMARK                            x       y       z     vdW  Elec       q    Type
REMARK                         _______ _______ _______ _____ _____    ______ ____
ROOT
ATOM      1  N   UNL     1      -7.358   0.982 126.772  0.00  0.00    +0.000 N 
ATOM      2  C   UNL     1      -7.124   2.020 125.835  0.00  0.00    +0.000 C 
ATOM      3  O   UNL     1      -6.557   3.051 126.167  0.00  0.00    +0.000 OA
ATOM      4  CA  UNL     1      -8.001   1.896 124.503  0.00  0.00    +0.000 C 
ATOM      5  N   UNL     1      -7.658   0.640 123.903  0.00  0.00    +0.000 N 
ATOM      6  C   UNL     1      -7.625  -0.501 124.647  0.00  0.00    +0.000 C 
ATOM      7  O   UNL     1      -7.468  -1.558 124.096  0.00  0.00    +0.000 OA
ATOM      8  CA  UNL     1      -7.865  -0.301 126.168  0.00  0.00    +0.000 C 
ATOM      9  H   UNL     1      -7.452   0.516 122.919  0.00  0.00    +0.000 HD
ENDROOT
BRANCH   4  10
ATOM     10  C   UNL     1      -7.788   3.034 123.519  0.00  0.00    +0.000 C 
ATOM     11  C   UNL     1      -6.417   3.048 122.802  0.00  0.00    +0.000 C 
ATOM     12  C   UNL     1      -6.788   3.594 121.465  0.00  0.00    +0.000 A 
ATOM     13  C   UNL     1      -5.951   4.048 120.464  0.00  0.00    +0.000 A 
ATOM     14  C   UNL     1      -6.538   4.491 119.277  0.00  0.00    +0.000 A 
ATOM     15  C   UNL     1      -7.928   4.426 119.089  0.00  0.00    +0.000 A 
ATOM     16  C   UNL     1      -8.756   3.922 120.085  0.00  0.00    +0.000 A 
ATOM     17  C   UNL     1      -8.171   3.542 121.272  0.00  0.00    +0.000 A 
ATOM     18  C   UNL     1      -8.878   2.965 122.436  0.00  0.00    +0.000 C 
ENDBRANCH   4  10
BRANCH   1  19
ATOM     19  C   UNL     1      -7.214   1.340 128.348  0.00  0.00    +0.000 C 
BRANCH  19  24
ATOM     20  C   UNL     1     -10.886   5.138 130.920  0.00  0.00    +0.000 C 
ATOM     21  C   UNL     1      -9.896   4.376 130.085  0.00  0.00    +0.000 A 
ATOM     22  C   UNL     1      -9.867   3.074 130.320  0.00  0.00    +0.000 A 
ATOM     23  C   UNL     1      -8.739   2.372 129.880  0.00  0.00    +0.000 A 
ATOM     24  C   UNL     1      -7.979   2.616 128.830  0.00  0.00    +0.000 A 
ATOM     25  C   UNL     1      -8.150   3.935 128.521  0.00  0.00    +0.000 A 
ATOM     26  N   UNL     1      -9.018   4.845 129.178  0.00  0.00    +0.000 NA
ENDBRANCH  19  24
BRANCH  19  27
ATOM     27  C   UNL     1      -5.902   1.357 129.188  0.00  0.00    +0.000 C 
ATOM     28  O   UNL     1      -5.101   2.280 128.959  0.00  0.00    +0.000 OA
ATOM     29  N   UNL     1      -5.545   0.391 130.092  0.00  0.00    +0.000 N 
ATOM     30  C   UNL     1      -6.420  -0.515 130.747  0.00  0.00    +0.000 C 
ATOM     31  C   UNL     1      -4.261   0.481 130.715  0.00  0.00    +0.000 C 
ENDBRANCH  19  27
ENDBRANCH   1  19
BRANCH   8  32
ATOM     32  C   UNL     1      -7.221  -1.624 126.679  0.00  0.00    +0.000 C 
BRANCH  32  33
ATOM     33  C   UNL     1      -8.145  -2.413 127.978  0.00  0.00    +0.000 C 
ATOM     34  C   UNL     1      -8.835  -3.982 128.116  0.00  0.00    +0.000 C 
ATOM     35  C   UNL     1      -7.743  -3.525 129.007  0.00  0.00    +0.000 C 
ENDBRANCH  32  33
ENDBRANCH   8  32
TORSDOF 6
ENDMDL
MODEL 4
REMARK VINA RESULT:      -9.3      1.870      2.211
REMARK  Name = CHEMBL2037494
REMARK  9 active torsions:
REMARK  status: ('A' for Active; 'I' for Inactive)
REMARK    1  A    between atoms: C_1  and  C_2
REMARK    2  A    between atoms: C_5  and  C_6
REMARK    3  A    between atoms: C_6  and  C_7
REMARK    4  A    between atoms: C_6  and  N_12
REMARK    5  A    between atoms: N_9  and  C_10
REMARK    6  A    between atoms: N_9  and  C_11
REMARK    7  A    between atoms: CA_15  and  C_16
REMARK    8  A    between atoms: CA_28  and  C_29
REMARK    9  A    between atoms: C_29  and  C_30
REMARK                            x       y       z     vdW  Elec       q    Type
REMARK                         _______ _______ _______ _____ _____    ______ ____
ROOT
ATOM      1  N   UNL     1      -6.869   1.276 127.272  0.00  0.00    +0.000 N 
ATOM      2  C   UNL     1      -6.695   2.234 126.242  0.00  0.00    +0.000 C 
ATOM      3  O   UNL     1      -6.017   3.235 126.422  0.00  0.00    +0.000 OA
ATOM      4  CA  UNL     1      -7.754   2.100 125.051  0.00  0.00    +0.000 C 
ATOM      5  N   UNL     1      -7.588   0.789 124.500  0.00  0.00    +0.000 N 
ATOM      6  C   UNL     1      -7.532  -0.305 125.310  0.00  0.00    +0.000 C 
ATOM      7  O   UNL     1      -7.527  -1.402 124.818  0.00  0.00    +0.000 OA
ATOM      8  CA  UNL     1      -7.544   0.003 126.832  0.00  0.00    +0.000 C 
ATOM      9  H   UNL     1      -7.529   0.590 123.508  0.00  0.00    +0.000 HD
ENDROOT
BRANCH   4  10
ATOM     10  C   UNL     1      -7.601   3.158 123.970  0.00  0.00    +0.000 C 
ATOM     11  C   UNL     1      -6.272   3.114 123.179  0.00  0.00    +0.000 C 
ATOM     12  C   UNL     1      -6.720   3.554 121.826  0.00  0.00    +0.000 A 
ATOM     13  C   UNL     1      -5.942   3.926 120.747  0.00  0.00    +0.000 A 
ATOM     14  C   UNL     1      -6.595   4.277 119.564  0.00  0.00    +0.000 A 
ATOM     15  C   UNL     1      -7.994   4.198 119.460  0.00  0.00    +0.000 A 
ATOM     16  C   UNL     1      -8.762   3.775 120.537  0.00  0.00    +0.000 A 
ATOM     17  C   UNL     1      -8.111   3.488 121.715  0.00  0.00    +0.000 A 
ATOM     18  C   UNL     1      -8.750   3.005 122.959  0.00  0.00    +0.000 C 
ENDBRANCH   4  10
BRANCH   1  19
ATOM     19  C   UNL     1      -6.483   1.714 128.786  0.00  0.00    +0.000 C 
BRANCH  19  24
ATOM     20  C   UNL     1      -7.822  -1.999 133.138  0.00  0.00    +0.000 C 
ATOM     21  C   UNL     1      -7.756  -1.020 132.000  0.00  0.00    +0.000 A 
ATOM     22  C   UNL     1      -6.562  -0.909 131.441  0.00  0.00    +0.000 A 
ATOM     23  C   UNL     1      -6.328   0.227 130.657  0.00  0.00    +0.000 A 
ATOM     24  C   UNL     1      -7.188   0.912 129.928  0.00  0.00    +0.000 A 
ATOM     25  C   UNL     1      -8.428   0.654 130.440  0.00  0.00    +0.000 A 
ATOM     26  N   UNL     1      -8.726  -0.222 131.515  0.00  0.00    +0.000 NA
ENDBRANCH  19  24
BRANCH  19  27
ATOM     27  C   UNL     1      -6.402   3.164 129.348  0.00  0.00    +0.000 C 
ATOM     28  O   UNL     1      -7.473   3.787 129.452  0.00  0.00    +0.000 OA
ATOM     29  N   UNL     1      -5.236   3.814 129.658  0.00  0.00    +0.000 N 
ATOM     30  C   UNL     1      -3.985   3.209 129.948  0.00  0.00    +0.000 C 
ATOM     31  C   UNL     1      -5.305   5.183 130.066  0.00  0.00    +0.000 C 
ENDBRANCH  19  27
ENDBRANCH   1  19
BRANCH   8  32
ATOM     32  C   UNL     1      -6.930  -1.335 127.343  0.00  0.00    +0.000 C 
BRANCH  32  33
ATOM     33  C   UNL     1      -8.060  -2.319 128.300  0.00  0.00    +0.000 C 
ATOM     34  C   UNL     1      -8.691  -3.903 128.072  0.00  0.00    +0.000 C 
ATOM     35  C   UNL     1      -7.823  -3.564 129.224  0.00  0.00    +0.000 C 
ENDBRANCH  32  33
ENDBRANCH   8  32
TORSDOF 6
ENDMDL
MODEL 5
REMARK VINA RESULT:      -9.2      6.515      9.077
REMARK  Name = CHEMBL2037494
REMARK  9 active torsions:
REMARK  status: ('A' for Active; 'I' for Inactive)
REMARK    1  A    between atoms: C_1  and  C_2
REMARK    2  A    between atoms: C_5  and  C_6
REMARK    3  A    between atoms: C_6  and  C_7
REMARK    4  A    between atoms: C_6  and  N_12
REMARK    5  A    between atoms: N_9  and  C_10
REMARK    6  A    between atoms: N_9  and  C_11
REMARK    7  A    between atoms: CA_15  and  C_16
REMARK    8  A    between atoms: CA_28  and  C_29
REMARK    9  A    between atoms: C_29  and  C_30
REMARK                            x       y       z     vdW  Elec       q    Type
REMARK                         _______ _______ _______ _____ _____    ______ ____
ROOT
ATOM      1  N   UNL     1      -6.284   4.887 131.522  0.00  0.00    +0.000 N 
ATOM      2  C   UNL     1      -7.192   5.146 130.466  0.00  0.00    +0.000 C 
ATOM      3  O   UNL     1      -6.801   5.269 129.314  0.00  0.00    +0.000 OA
ATOM      4  CA  UNL     1      -8.625   5.658 130.959  0.00  0.00    +0.000 C 
ATOM      5  N   UNL     1      -9.164   4.626 131.794  0.00  0.00    +0.000 N 
ATOM      6  C   UNL     1      -8.410   4.066 132.782  0.00  0.00    +0.000 C 
ATOM      7  O   UNL     1      -8.926   3.300 133.553  0.00  0.00    +0.000 OA
ATOM      8  CA  UNL     1      -6.935   4.547 132.836  0.00  0.00    +0.000 C 
ATOM      9  H   UNL     1     -10.111   4.274 131.727  0.00  0.00    +0.000 HD
ENDROOT
BRANCH   4  10
ATOM     10  C   UNL     1      -9.585   5.984 129.827  0.00  0.00    +0.000 C 
ATOM     11  C   UNL     1     -11.024   5.441 129.996  0.00  0.00    +0.000 C 
ATOM     12  C   UNL     1     -11.824   6.517 129.342  0.00  0.00    +0.000 A 
ATOM     13  C   UNL     1     -13.158   6.492 128.983  0.00  0.00    +0.000 A 
ATOM     14  C   UNL     1     -13.696   7.642 128.403  0.00  0.00    +0.000 A 
ATOM     15  C   UNL     1     -12.921   8.802 128.243  0.00  0.00    +0.000 A 
ATOM     16  C   UNL     1     -11.594   8.830 128.653  0.00  0.00    +0.000 A 
ATOM     17  C   UNL     1     -11.059   7.673 129.171  0.00  0.00    +0.000 A 
ATOM     18  C   UNL     1      -9.679   7.512 129.679  0.00  0.00    +0.000 C 
ENDBRANCH   4  10
BRANCH   1  19
ATOM     19  C   UNL     1      -4.705   5.140 131.240  0.00  0.00    +0.000 C 
BRANCH  19  24
ATOM     20  C   UNL     1      -1.769   3.081 126.586  0.00  0.00    +0.000 C 
ATOM     21  C   UNL     1      -2.652   3.362 127.769  0.00  0.00    +0.000 A 
ATOM     22  C   UNL     1      -2.654   4.625 128.165  0.00  0.00    +0.000 A 
ATOM     23  C   UNL     1      -3.129   4.888 129.455  0.00  0.00    +0.000 A 
ATOM     24  C   UNL     1      -4.059   4.243 130.133  0.00  0.00    +0.000 A 
ATOM     25  C   UNL     1      -4.137   2.990 129.598  0.00  0.00    +0.000 A 
ATOM     26  N   UNL     1      -3.393   2.501 128.493  0.00  0.00    +0.000 NA
ENDBRANCH  19  24
BRANCH  19  27
ATOM     27  C   UNL     1      -3.576   5.284 132.304  0.00  0.00    +0.000 C 
ATOM     28  O   UNL     1      -3.178   4.239 132.845  0.00  0.00    +0.000 OA
ATOM     29  N   UNL     1      -3.058   6.479 132.729  0.00  0.00    +0.000 N 
ATOM     30  C   UNL     1      -3.100   7.713 132.030  0.00  0.00    +0.000 C 
ATOM     31  C   UNL     1      -2.098   6.467 133.789  0.00  0.00    +0.000 C 
ENDBRANCH  19  27
ENDBRANCH   1  19
BRANCH   8  32
ATOM     32  C   UNL     1      -6.332   3.353 133.635  0.00  0.00    +0.000 C 
BRANCH  32  33
ATOM     33  C   UNL     1      -5.825   3.781 135.285  0.00  0.00    +0.000 C 
ATOM     34  C   UNL     1      -4.824   5.040 135.896  0.00  0.00    +0.000 C 
ATOM     35  C   UNL     1      -6.265   4.950 136.233  0.00  0.00    +0.000 C 
ENDBRANCH  32  33
ENDBRANCH   8  32
TORSDOF 6
ENDMDL
MODEL 6
REMARK VINA RESULT:      -9.2      4.053      8.063
REMARK  Name = CHEMBL2037494
REMARK  9 active torsions:
REMARK  status: ('A' for Active; 'I' for Inactive)
REMARK    1  A    between atoms: C_1  and  C_2
REMARK    2  A    between atoms: C_5  and  C_6
REMARK    3  A    between atoms: C_6  and  C_7
REMARK    4  A    between atoms: C_6  and  N_12
REMARK    5  A    between atoms: N_9  and  C_10
REMARK    6  A    between atoms: N_9  and  C_11
REMARK    7  A    between atoms: CA_15  and  C_16
REMARK    8  A    between atoms: CA_28  and  C_29
REMARK    9  A    between atoms: C_29  and  C_30
REMARK                            x       y       z     vdW  Elec       q    Type
REMARK                         _______ _______ _______ _____ _____    ______ ____
ROOT
ATOM      1  N   UNL     1      -7.729   3.406 129.946  0.00  0.00    +0.000 N 
ATOM      2  C   UNL     1      -8.761   4.363 129.779  0.00  0.00    +0.000 C 
ATOM      3  O   UNL     1      -8.767   5.123 128.822  0.00  0.00    +0.000 OA
ATOM      4  CA  UNL     1      -9.619   4.623 131.104  0.00  0.00    +0.000 C 
ATOM      5  N   UNL     1     -10.203   3.366 131.467  0.00  0.00    +0.000 N 
ATOM      6  C   UNL     1      -9.444   2.235 131.517  0.00  0.00    +0.000 C 
ATOM      7  O   UNL     1      -9.926   1.223 131.953  0.00  0.00    +0.000 OA
ATOM      8  CA  UNL     1      -7.976   2.407 131.045  0.00  0.00    +0.000 C 
ATOM      9  H   UNL     1     -11.174   3.242 131.727  0.00  0.00    +0.000 HD
ENDROOT
BRANCH   4  10
ATOM     10  C   UNL     1     -10.694   5.685 130.942  0.00  0.00    +0.000 C 
ATOM     11  C   UNL     1     -10.203   7.057 130.423  0.00  0.00    +0.000 C 
ATOM     12  C   UNL     1     -11.372   7.500 129.609  0.00  0.00    +0.000 A 
ATOM     13  C   UNL     1     -11.619   8.750 129.076  0.00  0.00    +0.000 A 
ATOM     14  C   UNL     1     -12.780   8.917 128.320  0.00  0.00    +0.000 A 
ATOM     15  C   UNL     1     -13.638   7.835 128.063  0.00  0.00    +0.000 A 
ATOM     16  C   UNL     1     -13.353   6.571 128.564  0.00  0.00    +0.000 A 
ATOM     17  C   UNL     1     -12.236   6.432 129.356  0.00  0.00    +0.000 A 
ATOM     18  C   UNL     1     -11.758   5.168 129.960  0.00  0.00    +0.000 C 
ENDBRANCH   4  10
BRANCH   1  19
ATOM     19  C   UNL     1      -6.375   3.595 129.072  0.00  0.00    +0.000 C 
BRANCH  19  24
ATOM     20  C   UNL     1      -1.627   6.425 131.066  0.00  0.00    +0.000 C 
ATOM     21  C   UNL     1      -2.982   5.917 130.662  0.00  0.00    +0.000 A 
ATOM     22  C   UNL     1      -2.999   4.657 130.258  0.00  0.00    +0.000 A 
ATOM     23  C   UNL     1      -4.111   4.238 129.519  0.00  0.00    +0.000 A 
ATOM     24  C   UNL     1      -5.359   4.657 129.609  0.00  0.00    +0.000 A 
ATOM     25  C   UNL     1      -5.316   5.901 130.170  0.00  0.00    +0.000 A 
ATOM     26  N   UNL     1      -4.153   6.581 130.615  0.00  0.00    +0.000 NA
ENDBRANCH  19  24
BRANCH  19  27
ATOM     27  C   UNL     1      -6.273   3.737 127.523  0.00  0.00    +0.000 C 
ATOM     28  O   UNL     1      -6.298   4.891 127.062  0.00  0.00    +0.000 OA
ATOM     29  N   UNL     1      -6.235   2.684 126.648  0.00  0.00    +0.000 N 
ATOM     30  C   UNL     1      -5.850   1.351 126.947  0.00  0.00    +0.000 C 
ATOM     31  C   UNL     1      -6.248   2.963 125.245  0.00  0.00    +0.000 C 
ENDBRANCH  19  27
ENDBRANCH   1  19
BRANCH   8  32
ATOM     32  C   UNL     1      -7.659   0.915 130.726  0.00  0.00    +0.000 C 
BRANCH  32  33
ATOM     33  C   UNL     1      -6.007   0.425 131.169  0.00  0.00    +0.000 C 
ATOM     34  C   UNL     1      -4.491   0.636 130.385  0.00  0.00    +0.000 C 
ATOM     35  C   UNL     1      -4.788   1.256 131.697  0.00  0.00    +0.000 C 
ENDBRANCH  32  33
ENDBRANCH   8  32
TORSDOF 6
ENDMDL
MODEL 7
REMARK VINA RESULT:      -9.1      6.603     10.301
REMARK  Name = CHEMBL2037494
REMARK  9 active torsions:
REMARK  status: ('A' for Active; 'I' for Inactive)
REMARK    1  A    between atoms: C_1  and  C_2
REMARK    2  A    between atoms: C_5  and  C_6
REMARK    3  A    between atoms: C_6  and  C_7
REMARK    4  A    between atoms: C_6  and  N_12
REMARK    5  A    between atoms: N_9  and  C_10
REMARK    6  A    between atoms: N_9  and  C_11
REMARK    7  A    between atoms: CA_15  and  C_16
REMARK    8  A    between atoms: CA_28  and  C_29
REMARK    9  A    between atoms: C_29  and  C_30
REMARK                            x       y       z     vdW  Elec       q    Type
REMARK                         _______ _______ _______ _____ _____    ______ ____
ROOT
ATOM      1  N   UNL     1      -5.794   5.588 131.734  0.00  0.00    +0.000 N 
ATOM      2  C   UNL     1      -6.967   5.549 130.939  0.00  0.00    +0.000 C 
ATOM      3  O   UNL     1      -6.914   5.268 129.751  0.00  0.00    +0.000 OA
ATOM      4  CA  UNL     1      -8.222   6.285 131.606  0.00  0.00    +0.000 C 
ATOM      5  N   UNL     1      -8.477   5.616 132.847  0.00  0.00    +0.000 N 
ATOM      6  C   UNL     1      -7.463   5.358 133.720  0.00  0.00    +0.000 C 
ATOM      7  O   UNL     1      -7.723   4.918 134.809  0.00  0.00    +0.000 OA
ATOM      8  CA  UNL     1      -6.046   5.734 133.211  0.00  0.00    +0.000 C 
ATOM      9  H   UNL     1      -9.395   5.323 133.159  0.00  0.00    +0.000 HD
ENDROOT
BRANCH   4  10
ATOM     10  C   UNL     1      -9.467   6.289 130.735  0.00  0.00    +0.000 C 
ATOM     11  C   UNL     1     -10.805   6.493 131.486  0.00  0.00    +0.000 C 
ATOM     12  C   UNL     1     -11.592   7.264 130.480  0.00  0.00    +0.000 A 
ATOM     13  C   UNL     1     -12.944   7.547 130.487  0.00  0.00    +0.000 A 
ATOM     14  C   UNL     1     -13.453   8.317 129.440  0.00  0.00    +0.000 A 
ATOM     15  C   UNL     1     -12.607   8.834 128.445  0.00  0.00    +0.000 A 
ATOM     16  C   UNL     1     -11.241   8.584 128.476  0.00  0.00    +0.000 A 
ATOM     17  C   UNL     1     -10.760   7.775 129.481  0.00  0.00    +0.000 A 
ATOM     18  C   UNL     1      -9.341   7.413 129.693  0.00  0.00    +0.000 C 
ENDBRANCH   4  10
BRANCH   1  19
ATOM     19  C   UNL     1      -4.364   5.633 130.968  0.00  0.00    +0.000 C 
BRANCH  19  24
ATOM     20  C   UNL     1       0.323   7.966 133.634  0.00  0.00    +0.000 C 
ATOM     21  C   UNL     1      -0.990   7.621 132.990  0.00  0.00    +0.000 A 
ATOM     22  C   UNL     1      -1.173   6.329 132.774  0.00  0.00    +0.000 A 
ATOM     23  C   UNL     1      -2.165   5.969 131.854  0.00  0.00    +0.000 A 
ATOM     24  C   UNL     1      -3.294   6.595 131.580  0.00  0.00    +0.000 A 
ATOM     25  C   UNL     1      -3.122   7.896 131.956  0.00  0.00    +0.000 A 
ATOM     26  N   UNL     1      -1.967   8.447 132.569  0.00  0.00    +0.000 NA
ENDBRANCH  19  24
BRANCH  19  27
ATOM     27  C   UNL     1      -4.128   5.748 129.432  0.00  0.00    +0.000 C 
ATOM     28  O   UNL     1      -4.202   6.886 128.936  0.00  0.00    +0.000 OA
ATOM     29  N   UNL     1      -3.924   4.682 128.596  0.00  0.00    +0.000 N 
ATOM     30  C   UNL     1      -3.464   3.393 128.969  0.00  0.00    +0.000 C 
ATOM     31  C   UNL     1      -3.827   4.928 127.190  0.00  0.00    +0.000 C 
ENDBRANCH  19  27
ENDBRANCH   1  19
BRANCH   8  32
ATOM     32  C   UNL     1      -5.210   4.826 134.162  0.00  0.00    +0.000 C 
BRANCH  32  33
ATOM     33  C   UNL     1      -3.996   5.713 135.112  0.00  0.00    +0.000 C 
ATOM     34  C   UNL     1      -3.841   7.377 135.524  0.00  0.00    +0.000 C 
ATOM     35  C   UNL     1      -4.055   6.331 136.551  0.00  0.00    +0.000 C 
ENDBRANCH  32  33
ENDBRANCH   8  32
TORSDOF 6
ENDMDL
MODEL 8
REMARK VINA RESULT:      -9.1      4.984      8.622
REMARK  Name = CHEMBL2037494
REMARK  9 active torsions:
REMARK  status: ('A' for Active; 'I' for Inactive)
REMARK    1  A    between atoms: C_1  and  C_2
REMARK    2  A    between atoms: C_5  and  C_6
REMARK    3  A    between atoms: C_6  and  C_7
REMARK    4  A    between atoms: C_6  and  N_12
REMARK    5  A    between atoms: N_9  and  C_10
REMARK    6  A    between atoms: N_9  and  C_11
REMARK    7  A    between atoms: CA_15  and  C_16
REMARK    8  A    between atoms: CA_28  and  C_29
REMARK    9  A    between atoms: C_29  and  C_30
REMARK                            x       y       z     vdW  Elec       q    Type
REMARK                         _______ _______ _______ _____ _____    ______ ____
ROOT
ATOM      1  N   UNL     1      -6.851   2.965 131.243  0.00  0.00    +0.000 N 
ATOM      2  C   UNL     1      -6.556   2.042 130.210  0.00  0.00    +0.000 C 
ATOM      3  O   UNL     1      -5.907   2.378 129.230  0.00  0.00    +0.000 OA
ATOM      4  CA  UNL     1      -7.465   0.725 130.244  0.00  0.00    +0.000 C 
ATOM      5  N   UNL     1      -7.230   0.098 131.510  0.00  0.00    +0.000 N 
ATOM      6  C   UNL     1      -7.269   0.823 132.664  0.00  0.00    +0.000 C 
ATOM      7  O   UNL     1      -7.202   0.251 133.719  0.00  0.00    +0.000 OA
ATOM      8  CA  UNL     1      -7.464   2.351 132.474  0.00  0.00    +0.000 C 
ATOM      9  H   UNL     1      -7.052  -0.892 131.632  0.00  0.00    +0.000 HD
ENDROOT
BRANCH   4  10
ATOM     10  C   UNL     1      -7.185  -0.244 129.107  0.00  0.00    +0.000 C 
ATOM     11  C   UNL     1      -7.617  -1.709 129.359  0.00  0.00    +0.000 C 
ATOM     12  C   UNL     1      -8.022  -2.137 127.989  0.00  0.00    +0.000 A 
ATOM     13  C   UNL     1      -8.289  -3.414 127.535  0.00  0.00    +0.000 A 
ATOM     14  C   UNL     1      -8.680  -3.563 126.204  0.00  0.00    +0.000 A 
ATOM     15  C   UNL     1      -8.851  -2.445 125.371  0.00  0.00    +0.000 A 
ATOM     16  C   UNL     1      -8.627  -1.161 125.852  0.00  0.00    +0.000 A 
ATOM     17  C   UNL     1      -8.186  -1.031 127.150  0.00  0.00    +0.000 A 
ATOM     18  C   UNL     1      -7.915   0.246 127.845  0.00  0.00    +0.000 C 
ENDBRANCH   4  10
BRANCH   1  19
ATOM     19  C   UNL     1      -6.650   4.544 130.926  0.00  0.00    +0.000 C 
BRANCH  19  24
ATOM     20  C   UNL     1     -11.080   8.004 129.214  0.00  0.00    +0.000 C 
ATOM     21  C   UNL     1     -10.040   6.946 129.455  0.00  0.00    +0.000 A 
ATOM     22  C   UNL     1      -9.342   7.105 130.567  0.00  0.00    +0.000 A 
ATOM     23  C   UNL     1      -8.133   6.408 130.666  0.00  0.00    +0.000 A 
ATOM     24  C   UNL     1      -7.817   5.236 130.147  0.00  0.00    +0.000 A 
ATOM     25  C   UNL     1      -8.660   5.035 129.092  0.00  0.00    +0.000 A 
ATOM     26  N   UNL     1      -9.703   5.901 128.674  0.00  0.00    +0.000 NA
ENDBRANCH  19  24
BRANCH  19  27
ATOM     27  C   UNL     1      -5.371   5.230 130.359  0.00  0.00    +0.000 C 
ATOM     28  O   UNL     1      -5.365   5.490 129.144  0.00  0.00    +0.000 OA
ATOM     29  N   UNL     1      -4.241   5.489 131.089  0.00  0.00    +0.000 N 
ATOM     30  C   UNL     1      -4.156   5.604 132.501  0.00  0.00    +0.000 C 
ATOM     31  C   UNL     1      -3.101   6.028 130.413  0.00  0.00    +0.000 C 
ENDBRANCH  19  27
ENDBRANCH   1  19
BRANCH   8  32
ATOM     32  C   UNL     1      -6.913   2.827 133.851  0.00  0.00    +0.000 C 
BRANCH  32  33
ATOM     33  C   UNL     1      -7.866   4.136 134.587  0.00  0.00    +0.000 C 
ATOM     34  C   UNL     1      -7.443   5.406 135.668  0.00  0.00    +0.000 C 
ATOM     35  C   UNL     1      -7.916   5.674 134.290  0.00  0.00    +0.000 C 
ENDBRANCH  32  33
ENDBRANCH   8  32
TORSDOF 6
ENDMDL
MODEL 9
REMARK VINA RESULT:      -9.1      2.773      6.645
REMARK  Name = CHEMBL2037494
REMARK  9 active torsions:
REMARK  status: ('A' for Active; 'I' for Inactive)
REMARK    1  A    between atoms: C_1  and  C_2
REMARK    2  A    between atoms: C_5  and  C_6
REMARK    3  A    between atoms: C_6  and  C_7
REMARK    4  A    between atoms: C_6  and  N_12
REMARK    5  A    between atoms: N_9  and  C_10
REMARK    6  A    between atoms: N_9  and  C_11
REMARK    7  A    between atoms: CA_15  and  C_16
REMARK    8  A    between atoms: CA_28  and  C_29
REMARK    9  A    between atoms: C_29  and  C_30
REMARK                            x       y       z     vdW  Elec       q    Type
REMARK                         _______ _______ _______ _____ _____    ______ ____
ROOT
ATOM      1  N   UNL     1      -6.369   1.708 125.710  0.00  0.00    +0.000 N 
ATOM      2  C   UNL     1      -5.205   1.974 126.473  0.00  0.00    +0.000 C 
ATOM      3  O   UNL     1      -4.623   1.078 127.068  0.00  0.00    +0.000 OA
ATOM      4  CA  UNL     1      -4.994   3.524 126.808  0.00  0.00    +0.000 C 
ATOM      5  N   UNL     1      -4.893   4.205 125.552  0.00  0.00    +0.000 N 
ATOM      6  C   UNL     1      -5.800   3.976 124.562  0.00  0.00    +0.000 C 
ATOM      7  O   UNL     1      -5.773   4.656 123.570  0.00  0.00    +0.000 OA
ATOM      8  CA  UNL     1      -6.839   2.864 124.866  0.00  0.00    +0.000 C 
ATOM      9  H   UNL     1      -4.184   4.895 125.333  0.00  0.00    +0.000 HD
ENDROOT
BRANCH   4  10
ATOM     10  C   UNL     1      -3.773   3.806 127.669  0.00  0.00    +0.000 C 
ATOM     11  C   UNL     1      -3.223   5.250 127.591  0.00  0.00    +0.000 C 
ATOM     12  C   UNL     1      -2.727   5.452 128.983  0.00  0.00    +0.000 A 
ATOM     13  C   UNL     1      -1.928   6.470 129.468  0.00  0.00    +0.000 A 
ATOM     14  C   UNL     1      -1.616   6.460 130.828  0.00  0.00    +0.000 A 
ATOM     15  C   UNL     1      -2.144   5.480 131.684  0.00  0.00    +0.000 A 
ATOM     16  C   UNL     1      -2.986   4.489 131.194  0.00  0.00    +0.000 A 
ATOM     17  C   UNL     1      -3.240   4.476 129.841  0.00  0.00    +0.000 A 
ATOM     18  C   UNL     1      -4.124   3.520 129.138  0.00  0.00    +0.000 C 
ENDBRANCH   4  10
BRANCH   1  19
ATOM     19  C   UNL     1      -7.125   0.293 125.953  0.00  0.00    +0.000 C 
BRANCH  19  24
ATOM     20  C   UNL     1      -8.745   0.493 131.597  0.00  0.00    +0.000 C 
ATOM     21  C   UNL     1      -8.215   0.198 130.222  0.00  0.00    +0.000 A 
ATOM     22  C   UNL     1      -8.257   1.223 129.386  0.00  0.00    +0.000 A 
ATOM     23  C   UNL     1      -8.149   0.936 128.021  0.00  0.00    +0.000 A 
ATOM     24  C   UNL     1      -7.483  -0.042 127.438  0.00  0.00    +0.000 A 
ATOM     25  C   UNL     1      -7.325  -1.022 128.376  0.00  0.00    +0.000 A 
ATOM     26  N   UNL     1      -7.755  -0.967 129.727  0.00  0.00    +0.000 NA
ENDBRANCH  19  24
BRANCH  19  27
ATOM     27  C   UNL     1      -6.743  -1.089 125.344  0.00  0.00    +0.000 C 
ATOM     28  O   UNL     1      -5.532  -1.367 125.300  0.00  0.00    +0.000 OA
ATOM     29  N   UNL     1      -7.637  -1.969 124.793  0.00  0.00    +0.000 N 
ATOM     30  C   UNL     1      -9.032  -2.023 125.045  0.00  0.00    +0.000 C 
ATOM     31  C   UNL     1      -7.132  -3.157 124.175  0.00  0.00    +0.000 C 
ENDBRANCH  19  27
ENDBRANCH   1  19
BRANCH   8  32
ATOM     32  C   UNL     1      -7.269   2.541 123.404  0.00  0.00    +0.000 C 
BRANCH  32  33
ATOM     33  C   UNL     1      -9.017   2.276 123.215  0.00  0.00    +0.000 C 
ATOM     34  C   UNL     1      -9.931   0.901 122.731  0.00  0.00    +0.000 C 
ATOM     35  C   UNL     1     -10.044   1.479 124.091  0.00  0.00    +0.000 C 
ENDBRANCH  32  33
ENDBRANCH   8  32
TORSDOF 6
ENDMDL
