MODEL 1
REMARK VINA RESULT:     -11.7      0.000      0.000
REMARK  Name = CHEMBL601930
REMARK  8 active torsions:
REMARK  status: ('A' for Active; 'I' for Inactive)
REMARK    1  A    between atoms: C_1  and  C_2
REMARK    2  A    between atoms: C_4  and  C_5
REMARK    3  A    between atoms: C_10  and  N_11
REMARK    4  A    between atoms: C_26  and  C_27
REMARK    5  A    between atoms: C_27  and  N_28
REMARK    6  A    between atoms: C_35  and  C_36
REMARK    7  A    between atoms: C_36  and  N_38
REMARK    8  A    between atoms: N_42  and  C_43
REMARK                            x       y       z     vdW  Elec       q    Type
REMARK                         _______ _______ _______ _____ _____    ______ ____
ROOT
ATOM      1  C   UNL     1      -3.143  -1.749 131.960  0.00  0.00    +0.000 C 
ATOM      2  C   UNL     1      -3.874  -0.653 131.248  0.00  0.00    +0.000 A 
ATOM      3  C   UNL     1      -3.865   0.618 131.877  0.00  0.00    +0.000 A 
ATOM      4  C   UNL     1      -4.527   1.729 131.331  0.00  0.00    +0.000 A 
ATOM      5  C   UNL     1      -5.164   1.545 130.107  0.00  0.00    +0.000 A 
ATOM      6  C   UNL     1      -5.189   0.287 129.471  0.00  0.00    +0.000 A 
ATOM      7  C   UNL     1      -4.559  -0.853 130.026  0.00  0.00    +0.000 A 
ENDROOT
BRANCH   4   8
ATOM      8  C   UNL     1      -4.424   3.080 132.002  0.00  0.00    +0.000 C 
ATOM      9  O   UNL     1      -3.345   3.399 132.505  0.00  0.00    +0.000 OA
ATOM     10  N   UNL     1      -5.509   3.978 131.929  0.00  0.00    +0.000 N 
ATOM     11  C   UNL     1      -5.321   5.298 131.330  0.00  0.00    +0.000 C 
ATOM     12  C   UNL     1      -5.920   6.414 132.163  0.00  0.00    +0.000 C 
ATOM     13  C   UNL     1      -7.623   6.261 132.188  0.00  0.00    +0.000 C 
ATOM     14  C   UNL     1      -7.535   4.803 133.113  0.00  0.00    +0.000 C 
ATOM     15  C   UNL     1      -6.883   3.662 132.334  0.00  0.00    +0.000 C 
BRANCH  13  16
ATOM     16  N   UNL     1      -8.731   6.856 130.848  0.00  0.00    +0.000 N 
ATOM     17  C   UNL     1      -9.753   6.373 131.803  0.00  0.00    +0.000 C 
ATOM     18  O   UNL     1      -9.794   6.474 133.067  0.00  0.00    +0.000 OA
ATOM     19  O   UNL     1     -10.734   5.696 131.256  0.00  0.00    +0.000 OA
ATOM     20  C   UNL     1     -11.740   6.640 131.371  0.00  0.00    +0.000 C 
ATOM     21  C   UNL     1     -11.464   7.465 130.196  0.00  0.00    +0.000 A 
ATOM     22  C   UNL     1     -12.837   7.950 129.660  0.00  0.00    +0.000 A 
ATOM     23  C   UNL     1     -13.097   8.463 128.430  0.00  0.00    +0.000 A 
ATOM     24  C   UNL     1     -11.920   8.445 127.718  0.00  0.00    +0.000 A 
ATOM     25  C   UNL     1     -10.444   7.972 128.333  0.00  0.00    +0.000 A 
ATOM     26  C   UNL     1     -10.092   7.472 129.753  0.00  0.00    +0.000 A 
ENDBRANCH  13  16
ENDBRANCH   4   8
BRANCH   7  27
ATOM     27  C   UNL     1      -4.667  -2.188 129.250  0.00  0.00    +0.000 C 
BRANCH  27  28
ATOM     28  N   UNL     1      -5.832  -2.374 128.365  0.00  0.00    +0.000 N 
ATOM     29  C   UNL     1      -5.925  -2.035 127.045  0.00  0.00    +0.000 C 
ATOM     30  O   UNL     1      -5.033  -1.416 126.480  0.00  0.00    +0.000 OA
ATOM     31  N   UNL     1      -7.055  -2.574 126.410  0.00  0.00    +0.000 N 
ATOM     32  C   UNL     1      -8.398  -2.800 126.955  0.00  0.00    +0.000 C 
ATOM     33  C   UNL     1      -8.913  -3.988 126.159  0.00  0.00    +0.000 C 
ATOM     34  C   UNL     1      -8.379  -3.690 124.768  0.00  0.00    +0.000 C 
ATOM     35  C   UNL     1      -7.082  -2.857 124.957  0.00  0.00    +0.000 C 
ATOM     36  H   UNL     1      -6.370  -3.196 128.468  0.00  0.00    +0.000 HD
BRANCH  35  37
ATOM     37  C   UNL     1      -7.090  -1.632 123.975  0.00  0.00    +0.000 C 
ATOM     38  S   UNL     1      -6.331  -1.675 122.465  0.00  0.00    +0.000 S 
BRANCH  37  39
ATOM     39  N   UNL     1      -7.798  -0.497 124.416  0.00  0.00    +0.000 N 
ATOM     40  C   UNL     1      -9.241  -0.423 124.179  0.00  0.00    +0.000 C 
ATOM     41  C   UNL     1      -9.680   0.585 123.116  0.00  0.00    +0.000 C 
ATOM     42  C   UNL     1      -9.518   2.024 123.620  0.00  0.00    +0.000 C 
ATOM     43  N   UNL     1      -8.223   2.637 123.299  0.00  0.00    +0.000 NA
ATOM     44  C   UNL     1      -8.255   3.170 121.932  0.00  0.00    +0.000 C 
ATOM     45  C   UNL     1      -7.072   1.717 123.446  0.00  0.00    +0.000 C 
ATOM     46  C   UNL     1      -7.142   0.801 124.691  0.00  0.00    +0.000 C 
ENDBRANCH  37  39
ENDBRANCH  35  37
ENDBRANCH  27  28
ENDBRANCH   7  27
TORSDOF 6
ENDMDL
MODEL 2
REMARK VINA RESULT:     -11.4      1.618      1.970
REMARK  Name = CHEMBL601930
REMARK  8 active torsions:
REMARK  status: ('A' for Active; 'I' for Inactive)
REMARK    1  A    between atoms: C_1  and  C_2
REMARK    2  A    between atoms: C_4  and  C_5
REMARK    3  A    between atoms: C_10  and  N_11
REMARK    4  A    between atoms: C_26  and  C_27
REMARK    5  A    between atoms: C_27  and  N_28
REMARK    6  A    between atoms: C_35  and  C_36
REMARK    7  A    between atoms: C_36  and  N_38
REMARK    8  A    between atoms: N_42  and  C_43
REMARK                            x       y       z     vdW  Elec       q    Type
REMARK                         _______ _______ _______ _____ _____    ______ ____
ROOT
ATOM      1  C   UNL     1      -5.827  -2.513 132.228  0.00  0.00    +0.000 C 
ATOM      2  C   UNL     1      -5.212  -1.331 131.544  0.00  0.00    +0.000 A 
ATOM      3  C   UNL     1      -5.343  -0.084 132.207  0.00  0.00    +0.000 A 
ATOM      4  C   UNL     1      -4.832   1.107 131.670  0.00  0.00    +0.000 A 
ATOM      5  C   UNL     1      -4.143   1.012 130.465  0.00  0.00    +0.000 A 
ATOM      6  C   UNL     1      -4.010  -0.218 129.788  0.00  0.00    +0.000 A 
ATOM      7  C   UNL     1      -4.551  -1.423 130.296  0.00  0.00    +0.000 A 
ENDROOT
BRANCH   4   8
ATOM      8  C   UNL     1      -4.931   2.397 132.453  0.00  0.00    +0.000 C 
ATOM      9  O   UNL     1      -3.977   2.723 133.161  0.00  0.00    +0.000 OA
ATOM     10  N   UNL     1      -6.042   3.244 132.261  0.00  0.00    +0.000 N 
ATOM     11  C   UNL     1      -5.839   4.619 131.809  0.00  0.00    +0.000 C 
ATOM     12  C   UNL     1      -6.640   5.627 132.609  0.00  0.00    +0.000 C 
ATOM     13  C   UNL     1      -8.310   5.390 132.322  0.00  0.00    +0.000 C 
ATOM     14  C   UNL     1      -8.289   3.862 133.131  0.00  0.00    +0.000 C 
ATOM     15  C   UNL     1      -7.443   2.827 132.392  0.00  0.00    +0.000 C 
BRANCH  13  16
ATOM     16  N   UNL     1      -9.207   6.046 130.859  0.00  0.00    +0.000 N 
ATOM     17  C   UNL     1     -10.277   6.182 131.873  0.00  0.00    +0.000 C 
ATOM     18  O   UNL     1     -10.204   6.557 133.082  0.00  0.00    +0.000 OA
ATOM     19  O   UNL     1     -11.466   5.807 131.465  0.00  0.00    +0.000 OA
ATOM     20  C   UNL     1     -12.058   7.053 131.347  0.00  0.00    +0.000 C 
ATOM     21  C   UNL     1     -11.573   7.450 130.026  0.00  0.00    +0.000 A 
ATOM     22  C   UNL     1     -12.710   8.274 129.365  0.00  0.00    +0.000 A 
ATOM     23  C   UNL     1     -12.841   8.572 128.047  0.00  0.00    +0.000 A 
ATOM     24  C   UNL     1     -11.792   7.977 127.383  0.00  0.00    +0.000 A 
ATOM     25  C   UNL     1     -10.551   7.143 128.121  0.00  0.00    +0.000 A 
ATOM     26  C   UNL     1     -10.319   6.865 129.624  0.00  0.00    +0.000 A 
ENDBRANCH  13  16
ENDBRANCH   4   8
BRANCH   7  27
ATOM     27  C   UNL     1      -4.362  -2.711 129.459  0.00  0.00    +0.000 C 
BRANCH  27  28
ATOM     28  N   UNL     1      -4.861  -2.705 128.071  0.00  0.00    +0.000 N 
ATOM     29  C   UNL     1      -5.985  -2.088 127.603  0.00  0.00    +0.000 C 
ATOM     30  O   UNL     1      -6.778  -1.545 128.360  0.00  0.00    +0.000 OA
ATOM     31  N   UNL     1      -6.051  -2.040 126.201  0.00  0.00    +0.000 N 
ATOM     32  C   UNL     1      -5.590  -3.030 125.222  0.00  0.00    +0.000 C 
ATOM     33  C   UNL     1      -5.243  -2.193 124.002  0.00  0.00    +0.000 C 
ATOM     34  C   UNL     1      -6.353  -1.155 124.006  0.00  0.00    +0.000 C 
ATOM     35  C   UNL     1      -6.792  -0.977 125.484  0.00  0.00    +0.000 C 
ATOM     36  H   UNL     1      -4.199  -2.647 127.338  0.00  0.00    +0.000 HD
BRANCH  35  37
ATOM     37  C   UNL     1      -8.359  -0.990 125.577  0.00  0.00    +0.000 C 
ATOM     38  S   UNL     1      -9.250  -2.421 125.712  0.00  0.00    +0.000 S 
BRANCH  37  39
ATOM     39  N   UNL     1      -8.984   0.274 125.574  0.00  0.00    +0.000 N 
ATOM     40  C   UNL     1      -9.221   0.945 124.295  0.00  0.00    +0.000 C 
ATOM     41  C   UNL     1      -8.338   2.162 124.018  0.00  0.00    +0.000 C 
ATOM     42  C   UNL     1      -8.735   3.346 124.906  0.00  0.00    +0.000 C 
ATOM     43  N   UNL     1      -8.003   3.424 126.178  0.00  0.00    +0.000 NA
ATOM     44  C   UNL     1      -6.710   4.082 125.962  0.00  0.00    +0.000 C 
ATOM     45  C   UNL     1      -7.790   2.111 126.827  0.00  0.00    +0.000 C 
ATOM     46  C   UNL     1      -9.009   1.159 126.760  0.00  0.00    +0.000 C 
ENDBRANCH  37  39
ENDBRANCH  35  37
ENDBRANCH  27  28
ENDBRANCH   7  27
TORSDOF 6
ENDMDL
MODEL 3
REMARK VINA RESULT:     -10.6      6.815     13.252
REMARK  Name = CHEMBL601930
REMARK  8 active torsions:
REMARK  status: ('A' for Active; 'I' for Inactive)
REMARK    1  A    between atoms: C_1  and  C_2
REMARK    2  A    between atoms: C_4  and  C_5
REMARK    3  A    between atoms: C_10  and  N_11
REMARK    4  A    between atoms: C_26  and  C_27
REMARK    5  A    between atoms: C_27  and  N_28
REMARK    6  A    between atoms: C_35  and  C_36
REMARK    7  A    between atoms: C_36  and  N_38
REMARK    8  A    between atoms: N_42  and  C_43
REMARK                            x       y       z     vdW  Elec       q    Type
REMARK                         _______ _______ _______ _____ _____    ______ ____
ROOT
ATOM      1  C   UNL     1      -2.091   4.335 132.963  0.00  0.00    +0.000 C 
ATOM      2  C   UNL     1      -2.581   5.339 131.967  0.00  0.00    +0.000 A 
ATOM      3  C   UNL     1      -2.635   4.908 130.617  0.00  0.00    +0.000 A 
ATOM      4  C   UNL     1      -3.056   5.752 129.578  0.00  0.00    +0.000 A 
ATOM      5  C   UNL     1      -3.467   7.033 129.932  0.00  0.00    +0.000 A 
ATOM      6  C   UNL     1      -3.414   7.481 131.268  0.00  0.00    +0.000 A 
ATOM      7  C   UNL     1      -2.956   6.656 132.324  0.00  0.00    +0.000 A 
ENDROOT
BRANCH   4   8
ATOM      8  C   UNL     1      -3.167   5.221 128.166  0.00  0.00    +0.000 C 
ATOM      9  O   UNL     1      -2.316   5.568 127.345  0.00  0.00    +0.000 OA
ATOM     10  N   UNL     1      -4.151   4.258 127.860  0.00  0.00    +0.000 N 
ATOM     11  C   UNL     1      -3.753   2.956 127.326  0.00  0.00    +0.000 C 
ATOM     12  C   UNL     1      -4.582   2.531 126.130  0.00  0.00    +0.000 C 
ATOM     13  C   UNL     1      -6.196   2.250 126.621  0.00  0.00    +0.000 C 
ATOM     14  C   UNL     1      -6.446   3.927 126.958  0.00  0.00    +0.000 C 
ATOM     15  C   UNL     1      -5.585   4.418 128.122  0.00  0.00    +0.000 C 
BRANCH  13  16
ATOM     16  N   UNL     1      -6.779   0.692 127.402  0.00  0.00    +0.000 N 
ATOM     17  C   UNL     1      -7.588   0.653 126.164  0.00  0.00    +0.000 C 
ATOM     18  O   UNL     1      -7.267   0.957 124.975  0.00  0.00    +0.000 OA
ATOM     19  O   UNL     1      -8.839   0.301 126.341  0.00  0.00    +0.000 OA
ATOM     20  C   UNL     1      -8.786  -0.970 125.794  0.00  0.00    +0.000 C 
ATOM     21  C   UNL     1      -8.262  -1.725 126.932  0.00  0.00    +0.000 A 
ATOM     22  C   UNL     1      -8.923  -3.128 126.876  0.00  0.00    +0.000 A 
ATOM     23  C   UNL     1      -8.988  -4.038 127.881  0.00  0.00    +0.000 A 
ATOM     24  C   UNL     1      -8.388  -3.479 128.986  0.00  0.00    +0.000 A 
ATOM     25  C   UNL     1      -7.635  -1.991 129.006  0.00  0.00    +0.000 A 
ATOM     26  C   UNL     1      -7.458  -0.970 127.859  0.00  0.00    +0.000 A 
ENDBRANCH  13  16
ENDBRANCH   4   8
BRANCH   7  27
ATOM     27  C   UNL     1      -2.922   7.259 133.749  0.00  0.00    +0.000 C 
BRANCH  27  28
ATOM     28  N   UNL     1      -2.734   8.716 133.872  0.00  0.00    +0.000 N 
ATOM     29  C   UNL     1      -1.563   9.409 133.752  0.00  0.00    +0.000 C 
ATOM     30  O   UNL     1      -0.490   8.833 133.630  0.00  0.00    +0.000 OA
ATOM     31  N   UNL     1      -1.745  10.797 133.656  0.00  0.00    +0.000 N 
ATOM     32  C   UNL     1      -2.751  11.643 134.309  0.00  0.00    +0.000 C 
ATOM     33  C   UNL     1      -2.937  12.794 133.336  0.00  0.00    +0.000 C 
ATOM     34  C   UNL     1      -1.516  13.033 132.854  0.00  0.00    +0.000 C 
ATOM     35  C   UNL     1      -0.776  11.672 132.957  0.00  0.00    +0.000 C 
ATOM     36  H   UNL     1      -3.434   9.309 133.504  0.00  0.00    +0.000 HD
BRANCH  35  37
ATOM     37  C   UNL     1       0.630  11.882 133.624  0.00  0.00    +0.000 C 
ATOM     38  S   UNL     1       2.077  11.712 132.765  0.00  0.00    +0.000 S 
BRANCH  37  39
ATOM     39  N   UNL     1       0.615  12.254 134.983  0.00  0.00    +0.000 N 
ATOM     40  C   UNL     1       0.881  13.649 135.340  0.00  0.00    +0.000 C 
ATOM     41  C   UNL     1       2.230  13.909 136.010  0.00  0.00    +0.000 C 
ATOM     42  C   UNL     1       2.252  13.361 137.441  0.00  0.00    +0.000 C 
ATOM     43  N   UNL     1       2.750  11.984 137.557  0.00  0.00    +0.000 NA
ATOM     44  C   UNL     1       4.216  11.992 137.589  0.00  0.00    +0.000 C 
ATOM     45  C   UNL     1       2.281  11.086 136.477  0.00  0.00    +0.000 C 
ATOM     46  C   UNL     1       0.797  11.280 136.082  0.00  0.00    +0.000 C 
ENDBRANCH  37  39
ENDBRANCH  35  37
ENDBRANCH  27  28
ENDBRANCH   7  27
TORSDOF 6
ENDMDL
MODEL 4
REMARK VINA RESULT:     -10.6      4.173      8.500
REMARK  Name = CHEMBL601930
REMARK  8 active torsions:
REMARK  status: ('A' for Active; 'I' for Inactive)
REMARK    1  A    between atoms: C_1  and  C_2
REMARK    2  A    between atoms: C_4  and  C_5
REMARK    3  A    between atoms: C_10  and  N_11
REMARK    4  A    between atoms: C_26  and  C_27
REMARK    5  A    between atoms: C_27  and  N_28
REMARK    6  A    between atoms: C_35  and  C_36
REMARK    7  A    between atoms: C_36  and  N_38
REMARK    8  A    between atoms: N_42  and  C_43
REMARK                            x       y       z     vdW  Elec       q    Type
REMARK                         _______ _______ _______ _____ _____    ______ ____
ROOT
ATOM      1  C   UNL     1      -6.530   2.864 134.083  0.00  0.00    +0.000 C 
ATOM      2  C   UNL     1      -5.622   1.737 133.699  0.00  0.00    +0.000 A 
ATOM      3  C   UNL     1      -6.249   0.569 133.195  0.00  0.00    +0.000 A 
ATOM      4  C   UNL     1      -5.521  -0.568 132.816  0.00  0.00    +0.000 A 
ATOM      5  C   UNL     1      -4.134  -0.490 132.911  0.00  0.00    +0.000 A 
ATOM      6  C   UNL     1      -3.494   0.659 133.416  0.00  0.00    +0.000 A 
ATOM      7  C   UNL     1      -4.215   1.802 133.839  0.00  0.00    +0.000 A 
ENDROOT
BRANCH   4   8
ATOM      8  C   UNL     1      -6.231  -1.759 132.214  0.00  0.00    +0.000 C 
ATOM      9  O   UNL     1      -6.651  -2.633 132.977  0.00  0.00    +0.000 OA
ATOM     10  N   UNL     1      -6.504  -1.782 130.831  0.00  0.00    +0.000 N 
ATOM     11  C   UNL     1      -7.885  -1.899 130.364  0.00  0.00    +0.000 C 
ATOM     12  C   UNL     1      -8.050  -2.928 129.264  0.00  0.00    +0.000 C 
ATOM     13  C   UNL     1      -7.230  -2.402 127.858  0.00  0.00    +0.000 C 
ATOM     14  C   UNL     1      -5.689  -2.582 128.621  0.00  0.00    +0.000 C 
ATOM     15  C   UNL     1      -5.498  -1.603 129.779  0.00  0.00    +0.000 C 
BRANCH  13  16
ATOM     16  N   UNL     1      -7.921  -1.203 126.649  0.00  0.00    +0.000 N 
ATOM     17  C   UNL     1      -7.754  -2.371 125.755  0.00  0.00    +0.000 C 
ATOM     18  O   UNL     1      -7.975  -3.600 125.977  0.00  0.00    +0.000 OA
ATOM     19  O   UNL     1      -7.252  -2.088 124.577  0.00  0.00    +0.000 OA
ATOM     20  C   UNL     1      -8.394  -2.250 123.810  0.00  0.00    +0.000 C 
ATOM     21  C   UNL     1      -9.032  -0.949 124.010  0.00  0.00    +0.000 A 
ATOM     22  C   UNL     1      -9.745  -0.595 122.678  0.00  0.00    +0.000 A 
ATOM     23  C   UNL     1     -10.188   0.628 122.290  0.00  0.00    +0.000 A 
ATOM     24  C   UNL     1      -9.857   1.521 123.284  0.00  0.00    +0.000 A 
ATOM     25  C   UNL     1      -9.140   1.109 124.732  0.00  0.00    +0.000 A 
ATOM     26  C   UNL     1      -8.709  -0.284 125.247  0.00  0.00    +0.000 A 
ENDBRANCH  13  16
ENDBRANCH   4   8
BRANCH   7  27
ATOM     27  C   UNL     1      -3.409   3.001 134.395  0.00  0.00    +0.000 C 
BRANCH  27  28
ATOM     28  N   UNL     1      -3.225   4.170 133.515  0.00  0.00    +0.000 N 
ATOM     29  C   UNL     1      -3.426   4.224 132.165  0.00  0.00    +0.000 C 
ATOM     30  O   UNL     1      -3.687   3.220 131.517  0.00  0.00    +0.000 OA
ATOM     31  N   UNL     1      -3.425   5.532 131.654  0.00  0.00    +0.000 N 
ATOM     32  C   UNL     1      -2.628   6.688 132.079  0.00  0.00    +0.000 C 
ATOM     33  C   UNL     1      -3.512   7.876 131.742  0.00  0.00    +0.000 C 
ATOM     34  C   UNL     1      -4.122   7.450 130.417  0.00  0.00    +0.000 C 
ATOM     35  C   UNL     1      -4.169   5.898 130.428  0.00  0.00    +0.000 C 
ATOM     36  H   UNL     1      -3.487   5.059 133.860  0.00  0.00    +0.000 HD
BRANCH  35  37
ATOM     37  C   UNL     1      -3.638   5.342 129.059  0.00  0.00    +0.000 C 
ATOM     38  S   UNL     1      -2.435   6.125 128.165  0.00  0.00    +0.000 S 
BRANCH  37  39
ATOM     39  N   UNL     1      -4.205   4.125 128.630  0.00  0.00    +0.000 N 
ATOM     40  C   UNL     1      -3.329   3.086 128.085  0.00  0.00    +0.000 C 
ATOM     41  C   UNL     1      -3.441   2.857 126.577  0.00  0.00    +0.000 C 
ATOM     42  C   UNL     1      -4.763   2.169 126.219  0.00  0.00    +0.000 C 
ATOM     43  N   UNL     1      -5.862   3.091 125.902  0.00  0.00    +0.000 NA
ATOM     44  C   UNL     1      -5.760   3.516 124.502  0.00  0.00    +0.000 C 
ATOM     45  C   UNL     1      -5.915   4.282 126.780  0.00  0.00    +0.000 C 
ATOM     46  C   UNL     1      -5.635   3.989 128.274  0.00  0.00    +0.000 C 
ENDBRANCH  37  39
ENDBRANCH  35  37
ENDBRANCH  27  28
ENDBRANCH   7  27
TORSDOF 6
ENDMDL
MODEL 5
REMARK VINA RESULT:     -10.5      6.712     13.154
REMARK  Name = CHEMBL601930
REMARK  8 active torsions:
REMARK  status: ('A' for Active; 'I' for Inactive)
REMARK    1  A    between atoms: C_1  and  C_2
REMARK    2  A    between atoms: C_4  and  C_5
REMARK    3  A    between atoms: C_10  and  N_11
REMARK    4  A    between atoms: C_26  and  C_27
REMARK    5  A    between atoms: C_27  and  N_28
REMARK    6  A    between atoms: C_35  and  C_36
REMARK    7  A    between atoms: C_36  and  N_38
REMARK    8  A    between atoms: N_42  and  C_43
REMARK                            x       y       z     vdW  Elec       q    Type
REMARK                         _______ _______ _______ _____ _____    ______ ____
ROOT
ATOM      1  C   UNL     1      -2.165   4.378 133.007  0.00  0.00    +0.000 C 
ATOM      2  C   UNL     1      -2.701   5.357 132.008  0.00  0.00    +0.000 A 
ATOM      3  C   UNL     1      -2.728   4.924 130.658  0.00  0.00    +0.000 A 
ATOM      4  C   UNL     1      -3.186   5.746 129.617  0.00  0.00    +0.000 A 
ATOM      5  C   UNL     1      -3.663   7.005 129.969  0.00  0.00    +0.000 A 
ATOM      6  C   UNL     1      -3.638   7.455 131.305  0.00  0.00    +0.000 A 
ATOM      7  C   UNL     1      -3.144   6.653 132.364  0.00  0.00    +0.000 A 
ENDROOT
BRANCH   4   8
ATOM      8  C   UNL     1      -3.264   5.210 128.205  0.00  0.00    +0.000 C 
ATOM      9  O   UNL     1      -2.401   5.563 127.400  0.00  0.00    +0.000 OA
ATOM     10  N   UNL     1      -4.233   4.237 127.882  0.00  0.00    +0.000 N 
ATOM     11  C   UNL     1      -3.813   2.938 127.360  0.00  0.00    +0.000 C 
ATOM     12  C   UNL     1      -4.614   2.502 126.149  0.00  0.00    +0.000 C 
ATOM     13  C   UNL     1      -6.235   2.207 126.609  0.00  0.00    +0.000 C 
ATOM     14  C   UNL     1      -6.507   3.882 126.937  0.00  0.00    +0.000 C 
ATOM     15  C   UNL     1      -5.674   4.384 128.115  0.00  0.00    +0.000 C 
BRANCH  13  16
ATOM     16  N   UNL     1      -6.818   0.645 127.383  0.00  0.00    +0.000 N 
ATOM     17  C   UNL     1      -7.627   0.612 126.144  0.00  0.00    +0.000 C 
ATOM     18  O   UNL     1      -7.305   0.921 124.957  0.00  0.00    +0.000 OA
ATOM     19  O   UNL     1      -8.878   0.259 126.319  0.00  0.00    +0.000 OA
ATOM     20  C   UNL     1      -8.824  -1.010 125.767  0.00  0.00    +0.000 C 
ATOM     21  C   UNL     1      -8.301  -1.770 126.901  0.00  0.00    +0.000 A 
ATOM     22  C   UNL     1      -8.962  -3.172 126.839  0.00  0.00    +0.000 A 
ATOM     23  C   UNL     1      -9.028  -4.087 127.840  0.00  0.00    +0.000 A 
ATOM     24  C   UNL     1      -8.427  -3.533 128.948  0.00  0.00    +0.000 A 
ATOM     25  C   UNL     1      -7.674  -2.045 128.975  0.00  0.00    +0.000 A 
ATOM     26  C   UNL     1      -7.497  -1.018 127.832  0.00  0.00    +0.000 A 
ENDBRANCH  13  16
ENDBRANCH   4   8
BRANCH   7  27
ATOM     27  C   UNL     1      -3.145   7.257 133.789  0.00  0.00    +0.000 C 
BRANCH  27  28
ATOM     28  N   UNL     1      -1.884   7.836 134.289  0.00  0.00    +0.000 N 
ATOM     29  C   UNL     1      -1.415   9.099 134.070  0.00  0.00    +0.000 C 
ATOM     30  O   UNL     1      -1.982   9.869 133.307  0.00  0.00    +0.000 OA
ATOM     31  N   UNL     1      -0.326   9.438 134.889  0.00  0.00    +0.000 N 
ATOM     32  C   UNL     1       0.765   8.585 135.373  0.00  0.00    +0.000 C 
ATOM     33  C   UNL     1       1.157   9.220 136.696  0.00  0.00    +0.000 C 
ATOM     34  C   UNL     1       1.042  10.702 136.381  0.00  0.00    +0.000 C 
ATOM     35  C   UNL     1      -0.032  10.839 135.269  0.00  0.00    +0.000 C 
ATOM     36  H   UNL     1      -1.592   7.596 135.202  0.00  0.00    +0.000 HD
BRANCH  35  37
ATOM     37  C   UNL     1       0.486  11.806 134.146  0.00  0.00    +0.000 C 
ATOM     38  S   UNL     1       1.417  11.266 132.841  0.00  0.00    +0.000 S 
BRANCH  37  39
ATOM     39  N   UNL     1       0.101  13.156 134.273  0.00  0.00    +0.000 N 
ATOM     40  C   UNL     1       1.043  14.110 134.860  0.00  0.00    +0.000 C 
ATOM     41  C   UNL     1       0.685  14.608 136.261  0.00  0.00    +0.000 C 
ATOM     42  C   UNL     1      -0.516  15.559 136.220  0.00  0.00    +0.000 C 
ATOM     43  N   UNL     1      -1.817  14.902 136.399  0.00  0.00    +0.000 NA
ATOM     44  C   UNL     1      -2.079  14.711 137.830  0.00  0.00    +0.000 C 
ATOM     45  C   UNL     1      -1.935  13.605 135.695  0.00  0.00    +0.000 C 
ATOM     46  C   UNL     1      -1.314  13.588 134.277  0.00  0.00    +0.000 C 
ENDBRANCH  37  39
ENDBRANCH  35  37
ENDBRANCH  27  28
ENDBRANCH   7  27
TORSDOF 6
ENDMDL
MODEL 6
REMARK VINA RESULT:     -10.4      4.090      6.867
REMARK  Name = CHEMBL601930
REMARK  8 active torsions:
REMARK  status: ('A' for Active; 'I' for Inactive)
REMARK    1  A    between atoms: C_1  and  C_2
REMARK    2  A    between atoms: C_4  and  C_5
REMARK    3  A    between atoms: C_10  and  N_11
REMARK    4  A    between atoms: C_26  and  C_27
REMARK    5  A    between atoms: C_27  and  N_28
REMARK    6  A    between atoms: C_35  and  C_36
REMARK    7  A    between atoms: C_36  and  N_38
REMARK    8  A    between atoms: N_42  and  C_43
REMARK                            x       y       z     vdW  Elec       q    Type
REMARK                         _______ _______ _______ _____ _____    ______ ____
ROOT
ATOM      1  C   UNL     1      -6.682   4.067 126.859  0.00  0.00    +0.000 C 
ATOM      2  C   UNL     1      -5.216   3.880 127.101  0.00  0.00    +0.000 A 
ATOM      3  C   UNL     1      -4.559   4.922 127.806  0.00  0.00    +0.000 A 
ATOM      4  C   UNL     1      -3.185   4.887 128.084  0.00  0.00    +0.000 A 
ATOM      5  C   UNL     1      -2.486   3.755 127.676  0.00  0.00    +0.000 A 
ATOM      6  C   UNL     1      -3.120   2.713 126.968  0.00  0.00    +0.000 A 
ATOM      7  C   UNL     1      -4.499   2.749 126.645  0.00  0.00    +0.000 A 
ENDROOT
BRANCH   4   8
ATOM      8  C   UNL     1      -2.548   5.987 128.903  0.00  0.00    +0.000 C 
ATOM      9  O   UNL     1      -1.918   6.864 128.310  0.00  0.00    +0.000 OA
ATOM     10  N   UNL     1      -2.791   6.051 130.291  0.00  0.00    +0.000 N 
ATOM     11  C   UNL     1      -3.401   7.248 130.868  0.00  0.00    +0.000 C 
ATOM     12  C   UNL     1      -2.690   7.729 132.117  0.00  0.00    +0.000 C 
ATOM     13  C   UNL     1      -2.885   6.578 133.367  0.00  0.00    +0.000 C 
ATOM     14  C   UNL     1      -1.911   5.420 132.531  0.00  0.00    +0.000 C 
ATOM     15  C   UNL     1      -2.561   4.948 131.231  0.00  0.00    +0.000 C 
BRANCH  13  16
ATOM     16  N   UNL     1      -4.377   6.457 134.433  0.00  0.00    +0.000 N 
ATOM     17  C   UNL     1      -3.350   6.635 135.483  0.00  0.00    +0.000 C 
ATOM     18  O   UNL     1      -2.332   7.391 135.503  0.00  0.00    +0.000 OA
ATOM     19  O   UNL     1      -3.493   5.849 136.524  0.00  0.00    +0.000 OA
ATOM     20  C   UNL     1      -3.932   6.786 137.444  0.00  0.00    +0.000 C 
ATOM     21  C   UNL     1      -5.354   6.839 137.109  0.00  0.00    +0.000 A 
ATOM     22  C   UNL     1      -6.116   7.072 138.441  0.00  0.00    +0.000 A 
ATOM     23  C   UNL     1      -7.440   6.874 138.668  0.00  0.00    +0.000 A 
ATOM     24  C   UNL     1      -7.991   6.390 137.503  0.00  0.00    +0.000 A 
ATOM     25  C   UNL     1      -7.164   6.201 136.068  0.00  0.00    +0.000 A 
ATOM     26  C   UNL     1      -5.682   6.504 135.746  0.00  0.00    +0.000 A 
ENDBRANCH  13  16
ENDBRANCH   4   8
BRANCH   7  27
ATOM     27  C   UNL     1      -5.086   1.559 125.848  0.00  0.00    +0.000 C 
BRANCH  27  28
ATOM     28  N   UNL     1      -5.499   0.363 126.606  0.00  0.00    +0.000 N 
ATOM     29  C   UNL     1      -5.700   0.271 127.954  0.00  0.00    +0.000 C 
ATOM     30  O   UNL     1      -5.435   1.201 128.704  0.00  0.00    +0.000 OA
ATOM     31  N   UNL     1      -6.340  -0.916 128.342  0.00  0.00    +0.000 N 
ATOM     32  C   UNL     1      -6.212  -2.262 127.771  0.00  0.00    +0.000 C 
ATOM     33  C   UNL     1      -7.565  -2.896 128.043  0.00  0.00    +0.000 C 
ATOM     34  C   UNL     1      -7.888  -2.369 129.432  0.00  0.00    +0.000 C 
ATOM     35  C   UNL     1      -7.168  -1.000 129.566  0.00  0.00    +0.000 C 
ATOM     36  H   UNL     1      -6.163  -0.243 126.195  0.00  0.00    +0.000 HD
BRANCH  35  37
ATOM     37  C   UNL     1      -6.433  -0.921 130.951  0.00  0.00    +0.000 C 
ATOM     38  S   UNL     1      -4.987  -1.742 131.260  0.00  0.00    +0.000 S 
BRANCH  37  39
ATOM     39  N   UNL     1      -7.036  -0.095 131.920  0.00  0.00    +0.000 N 
ATOM     40  C   UNL     1      -8.457  -0.275 132.221  0.00  0.00    +0.000 C 
ATOM     41  C   UNL     1      -9.381   0.834 131.718  0.00  0.00    +0.000 C 
ATOM     42  C   UNL     1      -9.198   2.119 132.533  0.00  0.00    +0.000 C 
ATOM     43  N   UNL     1      -8.203   3.050 131.984  0.00  0.00    +0.000 NA
ATOM     44  C   UNL     1      -8.819   3.864 130.931  0.00  0.00    +0.000 C 
ATOM     45  C   UNL     1      -6.991   2.385 131.454  0.00  0.00    +0.000 C 
ATOM     46  C   UNL     1      -6.472   1.213 132.321  0.00  0.00    +0.000 C 
ENDBRANCH  37  39
ENDBRANCH  35  37
ENDBRANCH  27  28
ENDBRANCH   7  27
TORSDOF 6
ENDMDL
MODEL 7
REMARK VINA RESULT:     -10.4      7.385     14.060
REMARK  Name = CHEMBL601930
REMARK  8 active torsions:
REMARK  status: ('A' for Active; 'I' for Inactive)
REMARK    1  A    between atoms: C_1  and  C_2
REMARK    2  A    between atoms: C_4  and  C_5
REMARK    3  A    between atoms: C_10  and  N_11
REMARK    4  A    between atoms: C_26  and  C_27
REMARK    5  A    between atoms: C_27  and  N_28
REMARK    6  A    between atoms: C_35  and  C_36
REMARK    7  A    between atoms: C_36  and  N_38
REMARK    8  A    between atoms: N_42  and  C_43
REMARK                            x       y       z     vdW  Elec       q    Type
REMARK                         _______ _______ _______ _____ _____    ______ ____
ROOT
ATOM      1  C   UNL     1      -1.166   5.671 132.496  0.00  0.00    +0.000 C 
ATOM      2  C   UNL     1      -2.232   6.285 131.643  0.00  0.00    +0.000 A 
ATOM      3  C   UNL     1      -2.580   5.574 130.466  0.00  0.00    +0.000 A 
ATOM      4  C   UNL     1      -3.548   6.043 129.566  0.00  0.00    +0.000 A 
ATOM      5  C   UNL     1      -4.197   7.229 129.898  0.00  0.00    +0.000 A 
ATOM      6  C   UNL     1      -3.860   7.952 131.060  0.00  0.00    +0.000 A 
ATOM      7  C   UNL     1      -2.859   7.513 131.960  0.00  0.00    +0.000 A 
ENDROOT
BRANCH   4   8
ATOM      8  C   UNL     1      -3.936   5.211 128.364  0.00  0.00    +0.000 C 
ATOM      9  O   UNL     1      -3.658   5.642 127.244  0.00  0.00    +0.000 OA
ATOM     10  N   UNL     1      -4.483   3.925 128.556  0.00  0.00    +0.000 N 
ATOM     11  C   UNL     1      -3.815   2.758 127.984  0.00  0.00    +0.000 C 
ATOM     12  C   UNL     1      -4.770   1.821 127.271  0.00  0.00    +0.000 C 
ATOM     13  C   UNL     1      -5.835   1.115 128.408  0.00  0.00    +0.000 C 
ATOM     14  C   UNL     1      -6.602   2.632 128.718  0.00  0.00    +0.000 C 
ATOM     15  C   UNL     1      -5.658   3.633 129.384  0.00  0.00    +0.000 C 
BRANCH  13  16
ATOM     16  N   UNL     1      -5.412  -0.337 129.453  0.00  0.00    +0.000 N 
ATOM     17  C   UNL     1      -6.654  -0.847 128.832  0.00  0.00    +0.000 C 
ATOM     18  O   UNL     1      -7.072  -0.732 127.639  0.00  0.00    +0.000 OA
ATOM     19  O   UNL     1      -7.464  -1.464 129.659  0.00  0.00    +0.000 OA
ATOM     20  C   UNL     1      -7.264  -2.765 129.228  0.00  0.00    +0.000 C 
ATOM     21  C   UNL     1      -6.039  -3.098 129.953  0.00  0.00    +0.000 A 
ATOM     22  C   UNL     1      -6.135  -4.602 130.322  0.00  0.00    +0.000 A 
ATOM     23  C   UNL     1      -5.399  -5.262 131.252  0.00  0.00    +0.000 A 
ATOM     24  C   UNL     1      -4.563  -4.343 131.845  0.00  0.00    +0.000 A 
ATOM     25  C   UNL     1      -4.437  -2.743 131.394  0.00  0.00    +0.000 A 
ATOM     26  C   UNL     1      -5.189  -1.980 130.279  0.00  0.00    +0.000 A 
ENDBRANCH  13  16
ENDBRANCH   4   8
BRANCH   7  27
ATOM     27  C   UNL     1      -2.557   8.398 133.194  0.00  0.00    +0.000 C 
BRANCH  27  28
ATOM     28  N   UNL     1      -1.943   9.718 132.957  0.00  0.00    +0.000 N 
ATOM     29  C   UNL     1      -0.952  10.307 133.688  0.00  0.00    +0.000 C 
ATOM     30  O   UNL     1      -0.538   9.808 134.725  0.00  0.00    +0.000 OA
ATOM     31  N   UNL     1      -0.398  11.437 133.064  0.00  0.00    +0.000 N 
ATOM     32  C   UNL     1      -1.058  12.445 132.228  0.00  0.00    +0.000 C 
ATOM     33  C   UNL     1       0.047  12.919 131.298  0.00  0.00    +0.000 C 
ATOM     34  C   UNL     1       1.249  12.947 132.227  0.00  0.00    +0.000 C 
ATOM     35  C   UNL     1       0.993  11.875 133.320  0.00  0.00    +0.000 C 
ATOM     36  H   UNL     1      -1.790   9.999 132.022  0.00  0.00    +0.000 HD
BRANCH  35  37
ATOM     37  C   UNL     1       1.323  12.469 134.735  0.00  0.00    +0.000 C 
ATOM     38  S   UNL     1       2.277  11.650 135.865  0.00  0.00    +0.000 S 
BRANCH  37  39
ATOM     39  N   UNL     1       0.798  13.750 134.999  0.00  0.00    +0.000 N 
ATOM     40  C   UNL     1       1.721  14.854 135.266  0.00  0.00    +0.000 C 
ATOM     41  C   UNL     1       1.760  15.343 136.715  0.00  0.00    +0.000 C 
ATOM     42  C   UNL     1       0.479  16.102 137.076  0.00  0.00    +0.000 C 
ATOM     43  N   UNL     1      -0.581  15.266 137.655  0.00  0.00    +0.000 NA
ATOM     44  C   UNL     1      -0.339  15.088 139.091  0.00  0.00    +0.000 C 
ATOM     45  C   UNL     1      -0.719  13.942 137.007  0.00  0.00    +0.000 C 
ATOM     46  C   UNL     1      -0.590  13.968 135.465  0.00  0.00    +0.000 C 
ENDBRANCH  37  39
ENDBRANCH  35  37
ENDBRANCH  27  28
ENDBRANCH   7  27
TORSDOF 6
ENDMDL
MODEL 8
REMARK VINA RESULT:     -10.4      4.305      9.386
REMARK  Name = CHEMBL601930
REMARK  8 active torsions:
REMARK  status: ('A' for Active; 'I' for Inactive)
REMARK    1  A    between atoms: C_1  and  C_2
REMARK    2  A    between atoms: C_4  and  C_5
REMARK    3  A    between atoms: C_10  and  N_11
REMARK    4  A    between atoms: C_26  and  C_27
REMARK    5  A    between atoms: C_27  and  N_28
REMARK    6  A    between atoms: C_35  and  C_36
REMARK    7  A    between atoms: C_36  and  N_38
REMARK    8  A    between atoms: N_42  and  C_43
REMARK                            x       y       z     vdW  Elec       q    Type
REMARK                         _______ _______ _______ _____ _____    ______ ____
ROOT
ATOM      1  C   UNL     1      -3.951   2.887 135.572  0.00  0.00    +0.000 C 
ATOM      2  C   UNL     1      -5.253   2.738 134.848  0.00  0.00    +0.000 A 
ATOM      3  C   UNL     1      -5.487   1.483 134.231  0.00  0.00    +0.000 A 
ATOM      4  C   UNL     1      -6.656   1.212 133.503  0.00  0.00    +0.000 A 
ATOM      5  C   UNL     1      -7.613   2.221 133.447  0.00  0.00    +0.000 A 
ATOM      6  C   UNL     1      -7.395   3.477 134.048  0.00  0.00    +0.000 A 
ATOM      7  C   UNL     1      -6.205   3.781 134.754  0.00  0.00    +0.000 A 
ENDROOT
BRANCH   4   8
ATOM      8  C   UNL     1      -6.890  -0.167 132.928  0.00  0.00    +0.000 C 
ATOM      9  O   UNL     1      -7.119  -1.092 133.709  0.00  0.00    +0.000 OA
ATOM     10  N   UNL     1      -6.966  -0.334 131.530  0.00  0.00    +0.000 N 
ATOM     11  C   UNL     1      -8.175  -0.894 130.928  0.00  0.00    +0.000 C 
ATOM     12  C   UNL     1      -7.880  -1.971 129.904  0.00  0.00    +0.000 C 
ATOM     13  C   UNL     1      -7.086  -1.279 128.556  0.00  0.00    +0.000 C 
ATOM     14  C   UNL     1      -5.673  -0.939 129.492  0.00  0.00    +0.000 C 
ATOM     15  C   UNL     1      -5.936   0.101 130.580  0.00  0.00    +0.000 C 
BRANCH  13  16
ATOM     16  N   UNL     1      -7.948  -0.409 127.187  0.00  0.00    +0.000 N 
ATOM     17  C   UNL     1      -7.344  -1.520 126.418  0.00  0.00    +0.000 C 
ATOM     18  O   UNL     1      -7.222  -2.745 126.723  0.00  0.00    +0.000 OA
ATOM     19  O   UNL     1      -6.811  -1.164 125.273  0.00  0.00    +0.000 OA
ATOM     20  C   UNL     1      -7.758  -1.701 124.417  0.00  0.00    +0.000 C 
ATOM     21  C   UNL     1      -8.765  -0.641 124.440  0.00  0.00    +0.000 A 
ATOM     22  C   UNL     1      -9.388  -0.589 123.020  0.00  0.00    +0.000 A 
ATOM     23  C   UNL     1     -10.119   0.424 122.487  0.00  0.00    +0.000 A 
ATOM     24  C   UNL     1     -10.182   1.426 123.427  0.00  0.00    +0.000 A 
ATOM     25  C   UNL     1      -9.552   1.326 124.968  0.00  0.00    +0.000 A 
ATOM     26  C   UNL     1      -8.798   0.156 125.641  0.00  0.00    +0.000 A 
ENDBRANCH  13  16
ENDBRANCH   4   8
BRANCH   7  27
ATOM     27  C   UNL     1      -6.064   5.200 135.358  0.00  0.00    +0.000 C 
BRANCH  27  28
ATOM     28  N   UNL     1      -4.907   6.011 134.937  0.00  0.00    +0.000 N 
ATOM     29  C   UNL     1      -4.365   6.087 133.686  0.00  0.00    +0.000 C 
ATOM     30  O   UNL     1      -4.751   5.363 132.778  0.00  0.00    +0.000 OA
ATOM     31  N   UNL     1      -3.446   7.138 133.539  0.00  0.00    +0.000 N 
ATOM     32  C   UNL     1      -2.495   7.674 134.519  0.00  0.00    +0.000 C 
ATOM     33  C   UNL     1      -2.348   9.131 134.115  0.00  0.00    +0.000 C 
ATOM     34  C   UNL     1      -2.354   9.039 132.598  0.00  0.00    +0.000 C 
ATOM     35  C   UNL     1      -3.189   7.783 132.232  0.00  0.00    +0.000 C 
ATOM     36  H   UNL     1      -4.804   6.913 135.328  0.00  0.00    +0.000 HD
BRANCH  35  37
ATOM     37  C   UNL     1      -2.434   6.943 131.140  0.00  0.00    +0.000 C 
ATOM     38  S   UNL     1      -0.983   6.135 131.459  0.00  0.00    +0.000 S 
BRANCH  37  39
ATOM     39  N   UNL     1      -3.057   6.877 129.878  0.00  0.00    +0.000 N 
ATOM     40  C   UNL     1      -4.508   6.699 129.812  0.00  0.00    +0.000 C 
ATOM     41  C   UNL     1      -4.979   5.325 129.334  0.00  0.00    +0.000 C 
ATOM     42  C   UNL     1      -4.717   5.141 127.835  0.00  0.00    +0.000 C 
ATOM     43  N   UNL     1      -3.423   4.524 127.516  0.00  0.00    +0.000 NA
ATOM     44  C   UNL     1      -3.532   3.065 127.626  0.00  0.00    +0.000 C 
ATOM     45  C   UNL     1      -2.307   5.004 128.361  0.00  0.00    +0.000 C 
ATOM     46  C   UNL     1      -2.325   6.527 128.640  0.00  0.00    +0.000 C 
ENDBRANCH  37  39
ENDBRANCH  35  37
ENDBRANCH  27  28
ENDBRANCH   7  27
TORSDOF 6
ENDMDL
MODEL 9
REMARK VINA RESULT:     -10.3      4.483      9.131
REMARK  Name = CHEMBL601930
REMARK  8 active torsions:
REMARK  status: ('A' for Active; 'I' for Inactive)
REMARK    1  A    between atoms: C_1  and  C_2
REMARK    2  A    between atoms: C_4  and  C_5
REMARK    3  A    between atoms: C_10  and  N_11
REMARK    4  A    between atoms: C_26  and  C_27
REMARK    5  A    between atoms: C_27  and  N_28
REMARK    6  A    between atoms: C_35  and  C_36
REMARK    7  A    between atoms: C_36  and  N_38
REMARK    8  A    between atoms: N_42  and  C_43
REMARK                            x       y       z     vdW  Elec       q    Type
REMARK                         _______ _______ _______ _____ _____    ______ ____
ROOT
ATOM      1  C   UNL     1      -2.459  -0.542 134.507  0.00  0.00    +0.000 C 
ATOM      2  C   UNL     1      -3.896  -0.311 134.156  0.00  0.00    +0.000 A 
ATOM      3  C   UNL     1      -4.533  -1.336 133.410  0.00  0.00    +0.000 A 
ATOM      4  C   UNL     1      -5.870  -1.241 132.996  0.00  0.00    +0.000 A 
ATOM      5  C   UNL     1      -6.574  -0.106 133.390  0.00  0.00    +0.000 A 
ATOM      6  C   UNL     1      -5.956   0.926 134.125  0.00  0.00    +0.000 A 
ATOM      7  C   UNL     1      -4.596   0.864 134.518  0.00  0.00    +0.000 A 
ENDROOT
BRANCH   4   8
ATOM      8  C   UNL     1      -6.523  -2.394 132.268  0.00  0.00    +0.000 C 
ATOM      9  O   UNL     1      -6.938  -3.344 132.935  0.00  0.00    +0.000 OA
ATOM     10  N   UNL     1      -6.753  -2.300 130.880  0.00  0.00    +0.000 N 
ATOM     11  C   UNL     1      -8.113  -2.414 130.358  0.00  0.00    +0.000 C 
ATOM     12  C   UNL     1      -8.212  -3.345 129.166  0.00  0.00    +0.000 C 
ATOM     13  C   UNL     1      -7.365  -2.671 127.841  0.00  0.00    +0.000 C 
ATOM     14  C   UNL     1      -5.844  -2.875 128.636  0.00  0.00    +0.000 C 
ATOM     15  C   UNL     1      -5.721  -1.998 129.882  0.00  0.00    +0.000 C 
BRANCH  13  16
ATOM     16  N   UNL     1      -8.057  -1.390 126.720  0.00  0.00    +0.000 N 
ATOM     17  C   UNL     1      -7.779  -2.449 125.725  0.00  0.00    +0.000 C 
ATOM     18  O   UNL     1      -7.943  -3.704 125.808  0.00  0.00    +0.000 OA
ATOM     19  O   UNL     1      -7.232  -2.021 124.612  0.00  0.00    +0.000 OA
ATOM     20  C   UNL     1      -8.322  -2.159 123.768  0.00  0.00    +0.000 C 
ATOM     21  C   UNL     1      -9.040  -0.919 124.060  0.00  0.00    +0.000 A 
ATOM     22  C   UNL     1      -9.700  -0.465 122.731  0.00  0.00    +0.000 A 
ATOM     23  C   UNL     1     -10.188   0.769 122.444  0.00  0.00    +0.000 A 
ATOM     24  C   UNL     1      -9.960   1.569 123.540  0.00  0.00    +0.000 A 
ATOM     25  C   UNL     1      -9.299   1.045 124.978  0.00  0.00    +0.000 A 
ATOM     26  C   UNL     1      -8.820  -0.371 125.375  0.00  0.00    +0.000 A 
ENDBRANCH  13  16
ENDBRANCH   4   8
BRANCH   7  27
ATOM     27  C   UNL     1      -4.017   2.064 135.306  0.00  0.00    +0.000 C 
BRANCH  27  28
ATOM     28  N   UNL     1      -3.295   3.100 134.544  0.00  0.00    +0.000 N 
ATOM     29  C   UNL     1      -3.801   3.903 133.562  0.00  0.00    +0.000 C 
ATOM     30  O   UNL     1      -4.937   3.749 133.133  0.00  0.00    +0.000 OA
ATOM     31  N   UNL     1      -2.948   4.962 133.214  0.00  0.00    +0.000 N 
ATOM     32  C   UNL     1      -1.482   4.986 133.161  0.00  0.00    +0.000 C 
ATOM     33  C   UNL     1      -1.136   6.435 133.458  0.00  0.00    +0.000 C 
ATOM     34  C   UNL     1      -2.228   7.180 132.708  0.00  0.00    +0.000 C 
ATOM     35  C   UNL     1      -3.461   6.237 132.663  0.00  0.00    +0.000 C 
ATOM     36  H   UNL     1      -2.628   3.651 135.022  0.00  0.00    +0.000 HD
BRANCH  35  37
ATOM     37  C   UNL     1      -4.060   6.216 131.212  0.00  0.00    +0.000 C 
ATOM     38  S   UNL     1      -5.407   7.141 130.773  0.00  0.00    +0.000 S 
BRANCH  37  39
ATOM     39  N   UNL     1      -3.387   5.400 130.282  0.00  0.00    +0.000 N 
ATOM     40  C   UNL     1      -2.416   6.011 129.373  0.00  0.00    +0.000 C 
ATOM     41  C   UNL     1      -2.854   6.106 127.911  0.00  0.00    +0.000 C 
ATOM     42  C   UNL     1      -2.862   4.725 127.246  0.00  0.00    +0.000 C 
ATOM     43  N   UNL     1      -4.150   4.022 127.320  0.00  0.00    +0.000 NA
ATOM     44  C   UNL     1      -5.030   4.492 126.244  0.00  0.00    +0.000 C 
ATOM     45  C   UNL     1      -4.838   4.169 128.623  0.00  0.00    +0.000 C 
ATOM     46  C   UNL     1      -3.902   4.080 129.853  0.00  0.00    +0.000 C 
ENDBRANCH  37  39
ENDBRANCH  35  37
ENDBRANCH  27  28
ENDBRANCH   7  27
TORSDOF 6
ENDMDL
