MODEL 1
REMARK VINA RESULT:      -8.9      0.000      0.000
REMARK  Name = CHEMBL2369834
REMARK  20 active torsions:
REMARK  status: ('A' for Active; 'I' for Inactive)
REMARK    1  A    between atoms: N_1  and  C_2
REMARK    2  A    between atoms: C_2  and  C_3
REMARK    3  A    between atoms: C_3  and  C_4
REMARK    4  A    between atoms: C_8  and  C_9
REMARK    5  A    between atoms: C_9  and  C_10
REMARK    6  A    between atoms: C_19  and  C_20
REMARK    7  A    between atoms: C_20  and  C_21
REMARK    8  A    between atoms: C_24  and  O_25
REMARK    9  A    between atoms: C_36  and  C_37
REMARK   10  A    between atoms: C_43  and  C_44
REMARK   11  A    between atoms: N_46  and  C_47
REMARK   12  A    between atoms: C_47  and  C_48
REMARK   13  A    between atoms: C_47  and  C_55
REMARK   14  A    between atoms: C_48  and  C_49
REMARK   15  A    between atoms: C_49  and  C_50
REMARK   16  A    between atoms: C_50  and  N_51
REMARK   17  A    between atoms: N_57  and  C_58
REMARK   18  A    between atoms: C_58  and  C_59
REMARK   19  A    between atoms: C_65  and  C_66
REMARK   20  A    between atoms: C_66  and  C_67
REMARK                            x       y       z     vdW  Elec       q    Type
REMARK                         _______ _______ _______ _____ _____    ______ ____
ROOT
ATOM      1  C   UNL     1      -6.906   3.283 125.879  0.00  0.00    +0.000 C 
ATOM      2  N   UNL     1      -8.047   1.983 126.079  0.00  0.00    +0.000 N 
ATOM      3  C   UNL     1      -8.226   0.669 126.755  0.00  0.00    +0.000 C 
ATOM      4  O   UNL     1      -9.231   0.461 127.453  0.00  0.00    +0.000 OA
ATOM      5  C   UNL     1      -7.096  -0.540 126.581  0.00  0.00    +0.000 C 
ATOM      6  N   UNL     1      -5.942  -0.713 127.449  0.00  0.00    +0.000 N 
ATOM      7  C   UNL     1      -5.816  -1.005 128.762  0.00  0.00    +0.000 C 
ATOM      8  O   UNL     1      -4.644  -1.273 129.062  0.00  0.00    +0.000 OA
ATOM      9  C   UNL     1      -7.097  -1.100 129.789  0.00  0.00    +0.000 C 
ATOM     10  N   UNL     1      -6.760  -2.358 130.377  0.00  0.00    +0.000 N 
ATOM     11  C   UNL     1      -5.713  -2.537 131.230  0.00  0.00    +0.000 C 
ATOM     12  O   UNL     1      -5.504  -3.707 131.574  0.00  0.00    +0.000 OA
ATOM     13  C   UNL     1      -4.811  -1.379 131.801  0.00  0.00    +0.000 C 
ATOM     14  C   UNL     1      -4.869   0.111 131.418  0.00  0.00    +0.000 C 
ATOM     15  S   UNL     1      -3.666   1.311 132.076  0.00  0.00    +0.000 S 
ATOM     16  S   UNL     1      -4.862   3.016 131.945  0.00  0.00    +0.000 S 
ATOM     17  C   UNL     1      -3.781   4.389 131.413  0.00  0.00    +0.000 C 
ATOM     18  C   UNL     1      -4.263   5.704 130.779  0.00  0.00    +0.000 C 
ATOM     19  N   UNL     1      -4.019   5.729 129.317  0.00  0.00    +0.000 N 
ATOM     20  C   UNL     1      -4.510   4.914 128.359  0.00  0.00    +0.000 C 
ATOM     21  O   UNL     1      -4.137   4.938 127.190  0.00  0.00    +0.000 OA
ATOM     22  C   UNL     1      -5.611   4.019 128.762  0.00  0.00    +0.000 C 
ATOM     23  N   UNL     1      -6.728   4.617 127.972  0.00  0.00    +0.000 N 
ATOM     24  C   UNL     1      -7.371   4.420 126.751  0.00  0.00    +0.000 C 
ATOM     25  O   UNL     1      -8.524   4.846 126.624  0.00  0.00    +0.000 OA
ATOM     26  H   UNL     1      -8.954   2.450 126.207  0.00  0.00    +0.000 HD
ATOM     27  H   UNL     1      -5.032  -0.475 127.038  0.00  0.00    +0.000 HD
ATOM     28  H   UNL     1      -7.165  -3.195 129.971  0.00  0.00    +0.000 HD
ATOM     29  H   UNL     1      -3.407   6.453 128.946  0.00  0.00    +0.000 HD
ATOM     30  H   UNL     1      -7.258   5.224 128.593  0.00  0.00    +0.000 HD
ENDROOT
BRANCH  18  31
ATOM     31  C   UNL     1      -3.546   6.967 131.387  0.00  0.00    +0.000 C 
ATOM     32  O   UNL     1      -3.619   8.037 130.774  0.00  0.00    +0.000 OA
ATOM     33  N   UNL     1      -3.081   6.901 132.694  0.00  0.00    +0.000 N 
ATOM     34  C   UNL     1      -2.225   5.911 133.332  0.00  0.00    +0.000 C 
ATOM     35  C   UNL     1      -2.762   5.917 134.733  0.00  0.00    +0.000 C 
ATOM     36  C   UNL     1      -2.870   7.405 135.009  0.00  0.00    +0.000 C 
ATOM     37  C   UNL     1      -3.170   8.048 133.635  0.00  0.00    +0.000 C 
BRANCH  37  38
ATOM     38  C   UNL     1      -2.054   9.093 133.456  0.00  0.00    +0.000 C 
ATOM     39  O   UNL     1      -1.010   8.797 132.874  0.00  0.00    +0.000 OA
ATOM     40  N   UNL     1      -2.237  10.325 134.076  0.00  0.00    +0.000 N 
ATOM     41  H   UNL     1      -2.925  10.442 134.814  0.00  0.00    +0.000 HD
BRANCH  40  42
ATOM     42  C   UNL     1      -1.340  11.478 133.832  0.00  0.00    +0.000 C 
BRANCH  42  43
ATOM     43  C   UNL     1      -1.328  12.446 135.065  0.00  0.00    +0.000 C 
ATOM     44  O   UNL     1      -1.415  12.029 136.219  0.00  0.00    +0.000 OA
ATOM     45  N   UNL     1      -1.208  13.796 134.777  0.00  0.00    +0.000 N 
ATOM     46  H   UNL     1      -1.117  14.079 133.817  0.00  0.00    +0.000 HD
BRANCH  45  47
ATOM     47  C   UNL     1      -1.209  14.827 135.819  0.00  0.00    +0.000 C 
BRANCH  47  48
ATOM     48  C   UNL     1       0.125  15.063 136.554  0.00  0.00    +0.000 C 
ATOM     49  N   UNL     1       0.372  14.350 137.692  0.00  0.00    +0.000 N 
ATOM     50  O   UNL     1       0.970  15.861 136.152  0.00  0.00    +0.000 OA
ATOM     51  H   UNL     1      -0.243  13.679 138.116  0.00  0.00    +0.000 HD
ATOM     52  H   UNL     1       1.253  14.525 138.161  0.00  0.00    +0.000 HD
ENDBRANCH  47  48
ENDBRANCH  45  47
ENDBRANCH  42  43
BRANCH  42  53
ATOM     53  C   UNL     1      -1.790  12.258 132.576  0.00  0.00    +0.000 C 
BRANCH  53  54
ATOM     54  C   UNL     1      -0.639  12.519 131.612  0.00  0.00    +0.000 C 
BRANCH  54  55
ATOM     55  C   UNL     1       0.715  12.112 132.118  0.00  0.00    +0.000 C 
BRANCH  55  56
ATOM     56  N   UNL     1       1.375  13.314 132.626  0.00  0.00    +0.000 NA
ATOM     57  C   UNL     1       2.077  13.170 133.688  0.00  0.00    +0.000 C 
ATOM     58  N   UNL     1       2.274  12.021 134.354  0.00  0.00    +0.000 N 
ATOM     59  N   UNL     1       2.714  14.221 134.227  0.00  0.00    +0.000 N 
ATOM     60  H   UNL     1       1.817  11.183 134.029  0.00  0.00    +0.000 HD
ATOM     61  H   UNL     1       2.836  11.954 135.183  0.00  0.00    +0.000 HD
ATOM     62  H   UNL     1       2.566  15.122 133.789  0.00  0.00    +0.000 HD
ATOM     63  H   UNL     1       3.263  14.179 135.066  0.00  0.00    +0.000 HD
ENDBRANCH  55  56
ENDBRANCH  54  55
ENDBRANCH  53  54
ENDBRANCH  42  53
ENDBRANCH  40  42
ENDBRANCH  37  38
ENDBRANCH  18  31
BRANCH   9  64
ATOM     64  C   UNL     1      -7.750  -0.193 131.002  0.00  0.00    +0.000 C 
BRANCH  64  65
ATOM     65  C   UNL     1      -8.531   1.064 130.718  0.00  0.00    +0.000 A 
ATOM     66  C   UNL     1      -9.555   1.194 131.555  0.00  0.00    +0.000 A 
ATOM     67  C   UNL     1     -10.305   2.336 131.664  0.00  0.00    +0.000 A 
ATOM     68  C   UNL     1     -10.228   3.416 130.858  0.00  0.00    +0.000 A 
ATOM     69  C   UNL     1      -9.358   3.241 129.828  0.00  0.00    +0.000 A 
ATOM     70  C   UNL     1      -8.469   2.104 129.787  0.00  0.00    +0.000 A 
BRANCH  68  71
ATOM     71  O   UNL     1     -11.211   4.367 130.845  0.00  0.00    +0.000 OA
ATOM     72  H   UNL     1     -11.937   4.146 130.205  0.00  0.00    +0.000 HD
ENDBRANCH  68  71
ENDBRANCH  64  65
ENDBRANCH   9  64
BRANCH   5  73
ATOM     73  C   UNL     1      -7.574  -1.932 126.480  0.00  0.00    +0.000 C 
BRANCH  73  74
ATOM     74  C   UNL     1      -7.795  -2.264 125.071  0.00  0.00    +0.000 A 
ATOM     75  C   UNL     1      -7.002  -1.829 123.991  0.00  0.00    +0.000 A 
ATOM     76  C   UNL     1      -7.515  -1.838 122.725  0.00  0.00    +0.000 A 
ATOM     77  C   UNL     1      -8.672  -2.565 122.524  0.00  0.00    +0.000 A 
ATOM     78  C   UNL     1      -9.391  -3.120 123.590  0.00  0.00    +0.000 A 
ATOM     79  C   UNL     1      -8.981  -2.927 124.879  0.00  0.00    +0.000 A 
ENDBRANCH  73  74
ENDBRANCH   5  73
BRANCH   1  80
ATOM     80  C   UNL     1      -5.815   3.371 124.815  0.00  0.00    +0.000 C 
BRANCH  80  81
ATOM     81  C   UNL     1      -6.391   3.929 123.565  0.00  0.00    +0.000 C 
BRANCH  81  82
ATOM     82  N   UNL     1      -7.829   3.810 123.602  0.00  0.00    +0.000 NA
ATOM     83  H   UNL     1      -8.228   4.740 123.691  0.00  0.00    +0.000 HD
ATOM     84  H   UNL     1      -8.126   3.280 124.424  0.00  0.00    +0.000 HD
ENDBRANCH  81  82
ENDBRANCH  80  81
ENDBRANCH   1  80
BRANCH  22  85
ATOM     85  C   UNL     1      -4.968   2.632 128.906  0.00  0.00    +0.000 C 
BRANCH  85  86
ATOM     86  C   UNL     1      -4.065   2.092 127.888  0.00  0.00    +0.000 C 
ATOM     87  N   UNL     1      -2.827   2.400 128.243  0.00  0.00    +0.000 N 
ATOM     88  O   UNL     1      -4.262   1.627 126.821  0.00  0.00    +0.000 OA
ATOM     89  H   UNL     1      -2.579   2.860 129.096  0.00  0.00    +0.000 HD
ATOM     90  H   UNL     1      -2.087   1.833 127.869  0.00  0.00    +0.000 HD
ENDBRANCH  85  86
ENDBRANCH  22  85
TORSDOF 20
ENDMDL
MODEL 2
REMARK VINA RESULT:      -8.9      2.917      4.888
REMARK  Name = CHEMBL2369834
REMARK  20 active torsions:
REMARK  status: ('A' for Active; 'I' for Inactive)
REMARK    1  A    between atoms: N_1  and  C_2
REMARK    2  A    between atoms: C_2  and  C_3
REMARK    3  A    between atoms: C_3  and  C_4
REMARK    4  A    between atoms: C_8  and  C_9
REMARK    5  A    between atoms: C_9  and  C_10
REMARK    6  A    between atoms: C_19  and  C_20
REMARK    7  A    between atoms: C_20  and  C_21
REMARK    8  A    between atoms: C_24  and  O_25
REMARK    9  A    between atoms: C_36  and  C_37
REMARK   10  A    between atoms: C_43  and  C_44
REMARK   11  A    between atoms: N_46  and  C_47
REMARK   12  A    between atoms: C_47  and  C_48
REMARK   13  A    between atoms: C_47  and  C_55
REMARK   14  A    between atoms: C_48  and  C_49
REMARK   15  A    between atoms: C_49  and  C_50
REMARK   16  A    between atoms: C_50  and  N_51
REMARK   17  A    between atoms: N_57  and  C_58
REMARK   18  A    between atoms: C_58  and  C_59
REMARK   19  A    between atoms: C_65  and  C_66
REMARK   20  A    between atoms: C_66  and  C_67
REMARK                            x       y       z     vdW  Elec       q    Type
REMARK                         _______ _______ _______ _____ _____    ______ ____
ROOT
ATOM      1  C   UNL     1      -3.563   5.073 128.066  0.00  0.00    +0.000 C 
ATOM      2  N   UNL     1      -5.080   4.833 127.245  0.00  0.00    +0.000 N 
ATOM      3  C   UNL     1      -6.419   4.201 127.407  0.00  0.00    +0.000 C 
ATOM      4  O   UNL     1      -7.448   4.867 127.220  0.00  0.00    +0.000 OA
ATOM      5  C   UNL     1      -6.555   2.597 127.830  0.00  0.00    +0.000 C 
ATOM      6  N   UNL     1      -6.615   2.113 129.199  0.00  0.00    +0.000 N 
ATOM      7  C   UNL     1      -7.510   2.287 130.197  0.00  0.00    +0.000 C 
ATOM      8  O   UNL     1      -7.292   1.523 131.147  0.00  0.00    +0.000 OA
ATOM      9  C   UNL     1      -8.792   3.310 130.087  0.00  0.00    +0.000 C 
ATOM     10  N   UNL     1      -9.791   2.392 130.534  0.00  0.00    +0.000 N 
ATOM     11  C   UNL     1      -9.898   1.960 131.822  0.00  0.00    +0.000 C 
ATOM     12  O   UNL     1     -10.760   1.095 132.021  0.00  0.00    +0.000 OA
ATOM     13  C   UNL     1      -9.039   2.502 133.025  0.00  0.00    +0.000 C 
ATOM     14  C   UNL     1      -7.873   3.504 132.950  0.00  0.00    +0.000 C 
ATOM     15  S   UNL     1      -6.891   3.935 134.423  0.00  0.00    +0.000 S 
ATOM     16  S   UNL     1      -6.283   5.838 133.815  0.00  0.00    +0.000 S 
ATOM     17  C   UNL     1      -4.554   6.048 134.365  0.00  0.00    +0.000 C 
ATOM     18  C   UNL     1      -3.562   7.076 133.797  0.00  0.00    +0.000 C 
ATOM     19  N   UNL     1      -2.574   6.441 132.891  0.00  0.00    +0.000 N 
ATOM     20  C   UNL     1      -2.784   5.782 131.732  0.00  0.00    +0.000 C 
ATOM     21  O   UNL     1      -1.906   5.175 131.127  0.00  0.00    +0.000 OA
ATOM     22  C   UNL     1      -4.137   5.891 131.153  0.00  0.00    +0.000 C 
ATOM     23  N   UNL     1      -3.828   6.695 129.934  0.00  0.00    +0.000 N 
ATOM     24  C   UNL     1      -3.557   6.488 128.582  0.00  0.00    +0.000 C 
ATOM     25  O   UNL     1      -3.765   7.419 127.797  0.00  0.00    +0.000 OA
ATOM     26  H   UNL     1      -5.290   5.744 126.816  0.00  0.00    +0.000 HD
ATOM     27  H   UNL     1      -5.779   1.624 129.539  0.00  0.00    +0.000 HD
ATOM     28  H   UNL     1     -10.297   1.861 129.833  0.00  0.00    +0.000 HD
ATOM     29  H   UNL     1      -1.589   6.497 133.143  0.00  0.00    +0.000 HD
ATOM     30  H   UNL     1      -4.052   7.667 130.138  0.00  0.00    +0.000 HD
ENDROOT
BRANCH  18  31
ATOM     31  C   UNL     1      -2.746   7.815 134.922  0.00  0.00    +0.000 C 
ATOM     32  O   UNL     1      -2.863   7.424 136.088  0.00  0.00    +0.000 OA
ATOM     33  N   UNL     1      -1.746   8.701 134.543  0.00  0.00    +0.000 N 
ATOM     34  C   UNL     1      -1.794   9.825 133.618  0.00  0.00    +0.000 C 
ATOM     35  C   UNL     1      -0.405   9.799 133.052  0.00  0.00    +0.000 C 
ATOM     36  C   UNL     1       0.430   9.631 134.307  0.00  0.00    +0.000 C 
ATOM     37  C   UNL     1      -0.457   8.814 135.275  0.00  0.00    +0.000 C 
BRANCH  37  38
ATOM     38  C   UNL     1      -0.531   9.683 136.543  0.00  0.00    +0.000 C 
ATOM     39  O   UNL     1       0.399   9.689 137.350  0.00  0.00    +0.000 OA
ATOM     40  N   UNL     1      -1.727  10.353 136.780  0.00  0.00    +0.000 N 
ATOM     41  H   UNL     1      -2.581  10.084 136.302  0.00  0.00    +0.000 HD
BRANCH  40  42
ATOM     42  C   UNL     1      -1.871  11.365 137.852  0.00  0.00    +0.000 C 
BRANCH  42  43
ATOM     43  C   UNL     1      -3.258  11.225 138.570  0.00  0.00    +0.000 C 
ATOM     44  O   UNL     1      -3.435  11.618 139.722  0.00  0.00    +0.000 OA
ATOM     45  N   UNL     1      -4.270  10.638 137.828  0.00  0.00    +0.000 N 
ATOM     46  H   UNL     1      -4.075  10.355 136.883  0.00  0.00    +0.000 HD
BRANCH  45  47
ATOM     47  C   UNL     1      -5.613  10.411 138.368  0.00  0.00    +0.000 C 
BRANCH  47  48
ATOM     48  C   UNL     1      -6.314   9.107 137.944  0.00  0.00    +0.000 C 
ATOM     49  N   UNL     1      -5.599   8.192 137.223  0.00  0.00    +0.000 N 
ATOM     50  O   UNL     1      -7.483   8.859 138.233  0.00  0.00    +0.000 OA
ATOM     51  H   UNL     1      -4.646   8.288 136.925  0.00  0.00    +0.000 HD
ATOM     52  H   UNL     1      -6.082   7.344 136.951  0.00  0.00    +0.000 HD
ENDBRANCH  47  48
ENDBRANCH  45  47
ENDBRANCH  42  43
BRANCH  42  53
ATOM     53  C   UNL     1      -1.739  12.791 137.272  0.00  0.00    +0.000 C 
BRANCH  53  54
ATOM     54  C   UNL     1      -2.141  12.860 135.804  0.00  0.00    +0.000 C 
BRANCH  54  55
ATOM     55  C   UNL     1      -1.494  13.965 135.021  0.00  0.00    +0.000 C 
BRANCH  55  56
ATOM     56  N   UNL     1      -1.069  13.406 133.738  0.00  0.00    +0.000 NA
ATOM     57  C   UNL     1      -1.805  13.684 132.726  0.00  0.00    +0.000 C 
ATOM     58  N   UNL     1      -2.906  14.453 132.739  0.00  0.00    +0.000 N 
ATOM     59  N   UNL     1      -1.493  13.209 131.511  0.00  0.00    +0.000 N 
ATOM     60  H   UNL     1      -3.224  14.837 133.615  0.00  0.00    +0.000 HD
ATOM     61  H   UNL     1      -3.452  14.647 131.919  0.00  0.00    +0.000 HD
ATOM     62  H   UNL     1      -0.695  12.589 131.450  0.00  0.00    +0.000 HD
ATOM     63  H   UNL     1      -2.037  13.374 130.683  0.00  0.00    +0.000 HD
ENDBRANCH  55  56
ENDBRANCH  54  55
ENDBRANCH  53  54
ENDBRANCH  42  53
ENDBRANCH  40  42
ENDBRANCH  37  38
ENDBRANCH  18  31
BRANCH   9  64
ATOM     64  C   UNL     1      -9.226   4.782 130.691  0.00  0.00    +0.000 C 
BRANCH  64  65
ATOM     65  C   UNL     1     -10.145   5.709 129.936  0.00  0.00    +0.000 A 
ATOM     66  C   UNL     1     -11.384   5.653 130.415  0.00  0.00    +0.000 A 
ATOM     67  C   UNL     1     -12.372   6.533 130.062  0.00  0.00    +0.000 A 
ATOM     68  C   UNL     1     -12.295   7.466 129.089  0.00  0.00    +0.000 A 
ATOM     69  C   UNL     1     -11.125   7.408 128.399  0.00  0.00    +0.000 A 
ATOM     70  C   UNL     1     -10.031   6.581 128.852  0.00  0.00    +0.000 A 
BRANCH  68  71
ATOM     71  O   UNL     1     -13.414   8.081 128.602  0.00  0.00    +0.000 OA
ATOM     72  H   UNL     1     -13.548   8.983 128.996  0.00  0.00    +0.000 HD
ENDBRANCH  68  71
ENDBRANCH  64  65
ENDBRANCH   9  64
BRANCH   5  73
ATOM     73  C   UNL     1      -7.636   1.804 127.212  0.00  0.00    +0.000 C 
BRANCH  73  74
ATOM     74  C   UNL     1      -7.121   0.477 126.866  0.00  0.00    +0.000 A 
ATOM     75  C   UNL     1      -7.528  -0.739 127.449  0.00  0.00    +0.000 A 
ATOM     76  C   UNL     1      -6.718  -1.836 127.366  0.00  0.00    +0.000 A 
ATOM     77  C   UNL     1      -5.687  -1.784 126.448  0.00  0.00    +0.000 A 
ATOM     78  C   UNL     1      -5.368  -0.607 125.761  0.00  0.00    +0.000 A 
ATOM     79  C   UNL     1      -6.054   0.548 126.006  0.00  0.00    +0.000 A 
ENDBRANCH  73  74
ENDBRANCH   5  73
BRANCH   1  80
ATOM     80  C   UNL     1      -2.357   4.140 128.022  0.00  0.00    +0.000 C 
BRANCH  80  81
ATOM     81  C   UNL     1      -2.254   3.531 126.671  0.00  0.00    +0.000 C 
BRANCH  81  82
ATOM     82  N   UNL     1      -3.082   2.350 126.611  0.00  0.00    +0.000 NA
ATOM     83  H   UNL     1      -2.781   1.707 127.338  0.00  0.00    +0.000 HD
ATOM     84  H   UNL     1      -2.960   1.869 125.718  0.00  0.00    +0.000 HD
ENDBRANCH  81  82
ENDBRANCH  80  81
ENDBRANCH   1  80
BRANCH  22  85
ATOM     85  C   UNL     1      -4.813   4.545 131.457  0.00  0.00    +0.000 C 
BRANCH  85  86
ATOM     86  C   UNL     1      -4.041   3.370 131.864  0.00  0.00    +0.000 C 
ATOM     87  N   UNL     1      -3.834   2.631 130.785  0.00  0.00    +0.000 N 
ATOM     88  O   UNL     1      -3.756   2.938 132.924  0.00  0.00    +0.000 OA
ATOM     89  H   UNL     1      -4.110   2.889 129.858  0.00  0.00    +0.000 HD
ATOM     90  H   UNL     1      -3.055   1.996 130.804  0.00  0.00    +0.000 HD
ENDBRANCH  85  86
ENDBRANCH  22  85
TORSDOF 20
ENDMDL
MODEL 3
REMARK VINA RESULT:      -8.8      2.600      4.298
REMARK  Name = CHEMBL2369834
REMARK  20 active torsions:
REMARK  status: ('A' for Active; 'I' for Inactive)
REMARK    1  A    between atoms: N_1  and  C_2
REMARK    2  A    between atoms: C_2  and  C_3
REMARK    3  A    between atoms: C_3  and  C_4
REMARK    4  A    between atoms: C_8  and  C_9
REMARK    5  A    between atoms: C_9  and  C_10
REMARK    6  A    between atoms: C_19  and  C_20
REMARK    7  A    between atoms: C_20  and  C_21
REMARK    8  A    between atoms: C_24  and  O_25
REMARK    9  A    between atoms: C_36  and  C_37
REMARK   10  A    between atoms: C_43  and  C_44
REMARK   11  A    between atoms: N_46  and  C_47
REMARK   12  A    between atoms: C_47  and  C_48
REMARK   13  A    between atoms: C_47  and  C_55
REMARK   14  A    between atoms: C_48  and  C_49
REMARK   15  A    between atoms: C_49  and  C_50
REMARK   16  A    between atoms: C_50  and  N_51
REMARK   17  A    between atoms: N_57  and  C_58
REMARK   18  A    between atoms: C_58  and  C_59
REMARK   19  A    between atoms: C_65  and  C_66
REMARK   20  A    between atoms: C_66  and  C_67
REMARK                            x       y       z     vdW  Elec       q    Type
REMARK                         _______ _______ _______ _____ _____    ______ ____
ROOT
ATOM      1  C   UNL     1      -3.549   5.019 127.997  0.00  0.00    +0.000 C 
ATOM      2  N   UNL     1      -5.092   4.845 127.209  0.00  0.00    +0.000 N 
ATOM      3  C   UNL     1      -6.443   4.246 127.386  0.00  0.00    +0.000 C 
ATOM      4  O   UNL     1      -7.458   4.945 127.245  0.00  0.00    +0.000 OA
ATOM      5  C   UNL     1      -6.615   2.634 127.765  0.00  0.00    +0.000 C 
ATOM      6  N   UNL     1      -6.655   2.111 129.120  0.00  0.00    +0.000 N 
ATOM      7  C   UNL     1      -7.520   2.279 130.145  0.00  0.00    +0.000 C 
ATOM      8  O   UNL     1      -7.300   1.480 131.067  0.00  0.00    +0.000 OA
ATOM      9  C   UNL     1      -8.774   3.340 130.098  0.00  0.00    +0.000 C 
ATOM     10  N   UNL     1      -9.788   2.437 130.544  0.00  0.00    +0.000 N 
ATOM     11  C   UNL     1      -9.875   1.969 131.821  0.00  0.00    +0.000 C 
ATOM     12  O   UNL     1     -10.756   1.123 132.015  0.00  0.00    +0.000 OA
ATOM     13  C   UNL     1      -8.972   2.451 133.017  0.00  0.00    +0.000 C 
ATOM     14  C   UNL     1      -7.780   3.422 132.942  0.00  0.00    +0.000 C 
ATOM     15  S   UNL     1      -6.750   3.781 134.401  0.00  0.00    +0.000 S 
ATOM     16  S   UNL     1      -6.104   5.684 133.834  0.00  0.00    +0.000 S 
ATOM     17  C   UNL     1      -4.357   5.830 134.345  0.00  0.00    +0.000 C 
ATOM     18  C   UNL     1      -3.350   6.846 133.783  0.00  0.00    +0.000 C 
ATOM     19  N   UNL     1      -2.403   6.212 132.834  0.00  0.00    +0.000 N 
ATOM     20  C   UNL     1      -2.661   5.594 131.662  0.00  0.00    +0.000 C 
ATOM     21  O   UNL     1      -1.815   4.982 131.017  0.00  0.00    +0.000 OA
ATOM     22  C   UNL     1      -4.023   5.758 131.121  0.00  0.00    +0.000 C 
ATOM     23  N   UNL     1      -3.722   6.590 129.919  0.00  0.00    +0.000 N 
ATOM     24  C   UNL     1      -3.490   6.417 128.555  0.00  0.00    +0.000 C 
ATOM     25  O   UNL     1      -3.691   7.376 127.803  0.00  0.00    +0.000 OA
ATOM     26  H   UNL     1      -5.287   5.774 126.812  0.00  0.00    +0.000 HD
ATOM     27  H   UNL     1      -5.825   1.589 129.424  0.00  0.00    +0.000 HD
ATOM     28  H   UNL     1     -10.325   1.941 129.840  0.00  0.00    +0.000 HD
ATOM     29  H   UNL     1      -1.411   6.233 133.062  0.00  0.00    +0.000 HD
ATOM     30  H   UNL     1      -3.914   7.561 130.157  0.00  0.00    +0.000 HD
ENDROOT
BRANCH  18  31
ATOM     31  C   UNL     1      -2.486   7.529 134.909  0.00  0.00    +0.000 C 
ATOM     32  O   UNL     1      -2.420   6.980 136.014  0.00  0.00    +0.000 OA
ATOM     33  N   UNL     1      -1.637   8.569 134.555  0.00  0.00    +0.000 N 
ATOM     34  C   UNL     1      -1.914   9.787 133.807  0.00  0.00    +0.000 C 
ATOM     35  C   UNL     1      -0.608  10.000 133.099  0.00  0.00    +0.000 C 
ATOM     36  C   UNL     1       0.385   9.775 134.223  0.00  0.00    +0.000 C 
ATOM     37  C   UNL     1      -0.288   8.741 135.155  0.00  0.00    +0.000 C 
BRANCH  37  38
ATOM     38  C   UNL     1      -0.299   9.427 136.533  0.00  0.00    +0.000 C 
ATOM     39  O   UNL     1      -0.834   8.880 137.497  0.00  0.00    +0.000 OA
ATOM     40  N   UNL     1       0.214  10.718 136.599  0.00  0.00    +0.000 N 
ATOM     41  H   UNL     1       0.340  11.275 135.759  0.00  0.00    +0.000 HD
BRANCH  40  42
ATOM     42  C   UNL     1       0.438  11.419 137.885  0.00  0.00    +0.000 C 
BRANCH  42  43
ATOM     43  C   UNL     1      -0.020  12.915 137.793  0.00  0.00    +0.000 C 
ATOM     44  O   UNL     1       0.667  13.833 138.240  0.00  0.00    +0.000 OA
ATOM     45  N   UNL     1      -1.240  13.141 137.176  0.00  0.00    +0.000 N 
ATOM     46  H   UNL     1      -1.748  12.355 136.809  0.00  0.00    +0.000 HD
BRANCH  45  47
ATOM     47  C   UNL     1      -1.817  14.481 137.038  0.00  0.00    +0.000 C 
BRANCH  47  48
ATOM     48  C   UNL     1      -1.417  15.276 135.780  0.00  0.00    +0.000 C 
ATOM     49  N   UNL     1      -2.087  15.027 134.616  0.00  0.00    +0.000 N 
ATOM     50  O   UNL     1      -0.527  16.123 135.788  0.00  0.00    +0.000 OA
ATOM     51  H   UNL     1      -2.824  14.358 134.489  0.00  0.00    +0.000 HD
ATOM     52  H   UNL     1      -1.804  15.558 133.801  0.00  0.00    +0.000 HD
ENDBRANCH  47  48
ENDBRANCH  45  47
ENDBRANCH  42  43
BRANCH  42  53
ATOM     53  C   UNL     1       1.932  11.366 138.277  0.00  0.00    +0.000 C 
BRANCH  53  54
ATOM     54  C   UNL     1       2.835  11.072 137.084  0.00  0.00    +0.000 C 
BRANCH  54  55
ATOM     55  C   UNL     1       3.344  12.285 136.361  0.00  0.00    +0.000 C 
BRANCH  55  56
ATOM     56  N   UNL     1       2.653  12.354 135.074  0.00  0.00    +0.000 NA
ATOM     57  C   UNL     1       2.110  13.478 134.781  0.00  0.00    +0.000 C 
ATOM     58  N   UNL     1       2.141  14.590 135.534  0.00  0.00    +0.000 N 
ATOM     59  N   UNL     1       1.451  13.629 133.623  0.00  0.00    +0.000 N 
ATOM     60  H   UNL     1       2.600  14.560 136.431  0.00  0.00    +0.000 HD
ATOM     61  H   UNL     1       1.703  15.451 135.263  0.00  0.00    +0.000 HD
ATOM     62  H   UNL     1       1.360  12.811 133.034  0.00  0.00    +0.000 HD
ATOM     63  H   UNL     1       0.989  14.476 133.342  0.00  0.00    +0.000 HD
ENDBRANCH  55  56
ENDBRANCH  54  55
ENDBRANCH  53  54
ENDBRANCH  42  53
ENDBRANCH  40  42
ENDBRANCH  37  38
ENDBRANCH  18  31
BRANCH   9  64
ATOM     64  C   UNL     1      -9.151   4.805 130.757  0.00  0.00    +0.000 C 
BRANCH  64  65
ATOM     65  C   UNL     1     -10.240   5.674 130.182  0.00  0.00    +0.000 A 
ATOM     66  C   UNL     1      -9.767   6.864 129.825  0.00  0.00    +0.000 A 
ATOM     67  C   UNL     1     -10.481   7.773 129.088  0.00  0.00    +0.000 A 
ATOM     68  C   UNL     1     -11.785   7.675 128.753  0.00  0.00    +0.000 A 
ATOM     69  C   UNL     1     -12.386   6.586 129.300  0.00  0.00    +0.000 A 
ATOM     70  C   UNL     1     -11.614   5.558 129.958  0.00  0.00    +0.000 A 
BRANCH  68  71
ATOM     71  O   UNL     1     -12.485   8.755 128.292  0.00  0.00    +0.000 OA
ATOM     72  H   UNL     1     -11.970   9.276 127.622  0.00  0.00    +0.000 HD
ENDBRANCH  68  71
ENDBRANCH  64  65
ENDBRANCH   9  64
BRANCH   5  73
ATOM     73  C   UNL     1      -7.733   1.890 127.152  0.00  0.00    +0.000 C 
BRANCH  73  74
ATOM     74  C   UNL     1      -7.265   1.245 125.923  0.00  0.00    +0.000 A 
ATOM     75  C   UNL     1      -7.222   1.843 124.648  0.00  0.00    +0.000 A 
ATOM     76  C   UNL     1      -7.175   1.057 123.532  0.00  0.00    +0.000 A 
ATOM     77  C   UNL     1      -6.855  -0.274 123.716  0.00  0.00    +0.000 A 
ATOM     78  C   UNL     1      -6.760  -0.841 124.993  0.00  0.00    +0.000 A 
ATOM     79  C   UNL     1      -7.017  -0.092 126.106  0.00  0.00    +0.000 A 
ENDBRANCH  73  74
ENDBRANCH   5  73
BRANCH   1  80
ATOM     80  C   UNL     1      -2.371   4.054 127.895  0.00  0.00    +0.000 C 
BRANCH  80  81
ATOM     81  C   UNL     1      -2.389   3.394 126.565  0.00  0.00    +0.000 C 
BRANCH  81  82
ATOM     82  N   UNL     1      -3.310   2.282 126.592  0.00  0.00    +0.000 NA
ATOM     83  H   UNL     1      -3.666   2.134 125.652  0.00  0.00    +0.000 HD
ATOM     84  H   UNL     1      -4.114   2.495 127.185  0.00  0.00    +0.000 HD
ENDBRANCH  81  82
ENDBRANCH  80  81
ENDBRANCH   1  80
BRANCH  22  85
ATOM     85  C   UNL     1      -4.730   4.423 131.403  0.00  0.00    +0.000 C 
BRANCH  85  86
ATOM     86  C   UNL     1      -4.049   3.140 131.225  0.00  0.00    +0.000 C 
ATOM     87  N   UNL     1      -3.464   2.832 132.373  0.00  0.00    +0.000 N 
ATOM     88  O   UNL     1      -3.817   2.492 130.266  0.00  0.00    +0.000 OA
ATOM     89  H   UNL     1      -3.548   3.367 133.214  0.00  0.00    +0.000 HD
ATOM     90  H   UNL     1      -3.258   1.862 132.539  0.00  0.00    +0.000 HD
ENDBRANCH  85  86
ENDBRANCH  22  85
TORSDOF 20
ENDMDL
MODEL 4
REMARK VINA RESULT:      -8.8      2.119      2.921
REMARK  Name = CHEMBL2369834
REMARK  20 active torsions:
REMARK  status: ('A' for Active; 'I' for Inactive)
REMARK    1  A    between atoms: N_1  and  C_2
REMARK    2  A    between atoms: C_2  and  C_3
REMARK    3  A    between atoms: C_3  and  C_4
REMARK    4  A    between atoms: C_8  and  C_9
REMARK    5  A    between atoms: C_9  and  C_10
REMARK    6  A    between atoms: C_19  and  C_20
REMARK    7  A    between atoms: C_20  and  C_21
REMARK    8  A    between atoms: C_24  and  O_25
REMARK    9  A    between atoms: C_36  and  C_37
REMARK   10  A    between atoms: C_43  and  C_44
REMARK   11  A    between atoms: N_46  and  C_47
REMARK   12  A    between atoms: C_47  and  C_48
REMARK   13  A    between atoms: C_47  and  C_55
REMARK   14  A    between atoms: C_48  and  C_49
REMARK   15  A    between atoms: C_49  and  C_50
REMARK   16  A    between atoms: C_50  and  N_51
REMARK   17  A    between atoms: N_57  and  C_58
REMARK   18  A    between atoms: C_58  and  C_59
REMARK   19  A    between atoms: C_65  and  C_66
REMARK   20  A    between atoms: C_66  and  C_67
REMARK                            x       y       z     vdW  Elec       q    Type
REMARK                         _______ _______ _______ _____ _____    ______ ____
ROOT
ATOM      1  C   UNL     1      -6.902   3.429 126.424  0.00  0.00    +0.000 C 
ATOM      2  N   UNL     1      -8.039   2.117 126.285  0.00  0.00    +0.000 N 
ATOM      3  C   UNL     1      -8.245   0.693 126.666  0.00  0.00    +0.000 C 
ATOM      4  O   UNL     1      -9.286   0.348 127.245  0.00  0.00    +0.000 OA
ATOM      5  C   UNL     1      -7.093  -0.456 126.313  0.00  0.00    +0.000 C 
ATOM      6  N   UNL     1      -5.990  -0.807 127.193  0.00  0.00    +0.000 N 
ATOM      7  C   UNL     1      -5.938  -1.362 128.424  0.00  0.00    +0.000 C 
ATOM      8  O   UNL     1      -4.783  -1.689 128.731  0.00  0.00    +0.000 OA
ATOM      9  C   UNL     1      -7.275  -1.664 129.332  0.00  0.00    +0.000 C 
ATOM     10  N   UNL     1      -6.960  -3.016 129.668  0.00  0.00    +0.000 N 
ATOM     11  C   UNL     1      -5.962  -3.370 130.527  0.00  0.00    +0.000 C 
ATOM     12  O   UNL     1      -5.762  -4.585 130.635  0.00  0.00    +0.000 OA
ATOM     13  C   UNL     1      -5.107  -2.355 131.375  0.00  0.00    +0.000 C 
ATOM     14  C   UNL     1      -5.157  -0.818 131.303  0.00  0.00    +0.000 C 
ATOM     15  S   UNL     1      -4.007   0.219 132.263  0.00  0.00    +0.000 S 
ATOM     16  S   UNL     1      -5.211   1.917 132.415  0.00  0.00    +0.000 S 
ATOM     17  C   UNL     1      -4.115   3.367 132.240  0.00  0.00    +0.000 C 
ATOM     18  C   UNL     1      -4.573   4.786 131.863  0.00  0.00    +0.000 C 
ATOM     19  N   UNL     1      -4.245   5.111 130.454  0.00  0.00    +0.000 N 
ATOM     20  C   UNL     1      -4.671   4.511 129.322  0.00  0.00    +0.000 C 
ATOM     21  O   UNL     1      -4.231   4.774 128.207  0.00  0.00    +0.000 OA
ATOM     22  C   UNL     1      -5.785   3.554 129.468  0.00  0.00    +0.000 C 
ATOM     23  N   UNL     1      -6.860   4.304 128.753  0.00  0.00    +0.000 N 
ATOM     24  C   UNL     1      -7.429   4.363 127.482  0.00  0.00    +0.000 C 
ATOM     25  O   UNL     1      -8.577   4.808 127.377  0.00  0.00    +0.000 OA
ATOM     26  H   UNL     1      -8.957   2.550 126.453  0.00  0.00    +0.000 HD
ATOM     27  H   UNL     1      -5.060  -0.490 126.895  0.00  0.00    +0.000 HD
ATOM     28  H   UNL     1      -7.331  -3.752 129.076  0.00  0.00    +0.000 HD
ATOM     29  H   UNL     1      -3.620   5.894 130.277  0.00  0.00    +0.000 HD
ATOM     30  H   UNL     1      -7.431   4.771 129.453  0.00  0.00    +0.000 HD
ENDROOT
BRANCH  18  31
ATOM     31  C   UNL     1      -3.906   5.896 132.759  0.00  0.00    +0.000 C 
ATOM     32  O   UNL     1      -3.378   6.863 132.202  0.00  0.00    +0.000 OA
ATOM     33  N   UNL     1      -4.151   5.880 134.126  0.00  0.00    +0.000 N 
ATOM     34  C   UNL     1      -4.013   4.796 135.088  0.00  0.00    +0.000 C 
ATOM     35  C   UNL     1      -5.120   5.114 136.050  0.00  0.00    +0.000 C 
ATOM     36  C   UNL     1      -4.923   6.604 136.256  0.00  0.00    +0.000 C 
ATOM     37  C   UNL     1      -4.346   7.123 134.918  0.00  0.00    +0.000 C 
BRANCH  37  38
ATOM     38  C   UNL     1      -3.035   7.823 135.319  0.00  0.00    +0.000 C 
ATOM     39  O   UNL     1      -2.562   7.664 136.444  0.00  0.00    +0.000 OA
ATOM     40  N   UNL     1      -2.493   8.718 134.402  0.00  0.00    +0.000 N 
ATOM     41  H   UNL     1      -3.051   9.089 133.639  0.00  0.00    +0.000 HD
BRANCH  40  42
ATOM     42  C   UNL     1      -1.148   9.314 134.574  0.00  0.00    +0.000 C 
BRANCH  42  43
ATOM     43  C   UNL     1      -1.150  10.827 134.163  0.00  0.00    +0.000 C 
ATOM     44  O   UNL     1      -2.177  11.503 134.186  0.00  0.00    +0.000 OA
ATOM     45  N   UNL     1       0.072  11.355 133.780  0.00  0.00    +0.000 N 
ATOM     46  H   UNL     1       0.884  10.762 133.803  0.00  0.00    +0.000 HD
BRANCH  45  47
ATOM     47  C   UNL     1       0.227  12.745 133.343  0.00  0.00    +0.000 C 
BRANCH  47  48
ATOM     48  C   UNL     1      -0.144  13.051 131.879  0.00  0.00    +0.000 C 
ATOM     49  N   UNL     1       0.794  12.821 130.912  0.00  0.00    +0.000 N 
ATOM     50  O   UNL     1      -1.246  13.485 131.552  0.00  0.00    +0.000 OA
ATOM     51  H   UNL     1       1.724  12.475 131.060  0.00  0.00    +0.000 HD
ATOM     52  H   UNL     1       0.530  13.034 129.957  0.00  0.00    +0.000 HD
ENDBRANCH  47  48
ENDBRANCH  45  47
ENDBRANCH  42  43
BRANCH  42  53
ATOM     53  C   UNL     1      -0.106   8.555 133.721  0.00  0.00    +0.000 C 
BRANCH  53  54
ATOM     54  C   UNL     1       0.450   7.330 134.437  0.00  0.00    +0.000 C 
BRANCH  54  55
ATOM     55  C   UNL     1       0.827   7.553 135.873  0.00  0.00    +0.000 C 
BRANCH  55  56
ATOM     56  N   UNL     1       2.191   7.058 136.052  0.00  0.00    +0.000 NA
ATOM     57  C   UNL     1       2.354   6.153 136.945  0.00  0.00    +0.000 C 
ATOM     58  N   UNL     1       1.388   5.611 137.705  0.00  0.00    +0.000 N 
ATOM     59  N   UNL     1       3.573   5.646 137.181  0.00  0.00    +0.000 N 
ATOM     60  H   UNL     1       0.443   5.948 137.606  0.00  0.00    +0.000 HD
ATOM     61  H   UNL     1       1.561   4.901 138.391  0.00  0.00    +0.000 HD
ATOM     62  H   UNL     1       4.346   6.048 136.665  0.00  0.00    +0.000 HD
ATOM     63  H   UNL     1       3.770   4.950 137.877  0.00  0.00    +0.000 HD
ENDBRANCH  55  56
ENDBRANCH  54  55
ENDBRANCH  53  54
ENDBRANCH  42  53
ENDBRANCH  40  42
ENDBRANCH  37  38
ENDBRANCH  18  31
BRANCH   9  64
ATOM     64  C   UNL     1      -8.006  -1.025 130.665  0.00  0.00    +0.000 C 
BRANCH  64  65
ATOM     65  C   UNL     1      -8.599   0.362 130.655  0.00  0.00    +0.000 A 
ATOM     66  C   UNL     1      -9.324   0.583 131.747  0.00  0.00    +0.000 A 
ATOM     67  C   UNL     1      -9.803   1.817 132.101  0.00  0.00    +0.000 A 
ATOM     68  C   UNL     1      -9.752   2.935 131.346  0.00  0.00    +0.000 A 
ATOM     69  C   UNL     1      -9.231   2.710 130.111  0.00  0.00    +0.000 A 
ATOM     70  C   UNL     1      -8.602   1.453 129.783  0.00  0.00    +0.000 A 
BRANCH  68  71
ATOM     71  O   UNL     1     -10.518   4.029 131.640  0.00  0.00    +0.000 OA
ATOM     72  H   UNL     1     -10.829   4.026 132.583  0.00  0.00    +0.000 HD
ENDBRANCH  68  71
ENDBRANCH  64  65
ENDBRANCH   9  64
BRANCH   5  73
ATOM     73  C   UNL     1      -7.551  -1.798 125.901  0.00  0.00    +0.000 C 
BRANCH  73  74
ATOM     74  C   UNL     1      -6.826  -2.203 124.694  0.00  0.00    +0.000 A 
ATOM     75  C   UNL     1      -5.774  -3.139 124.644  0.00  0.00    +0.000 A 
ATOM     76  C   UNL     1      -4.911  -3.134 123.586  0.00  0.00    +0.000 A 
ATOM     77  C   UNL     1      -5.296  -2.420 122.468  0.00  0.00    +0.000 A 
ATOM     78  C   UNL     1      -6.426  -1.593 122.472  0.00  0.00    +0.000 A 
ATOM     79  C   UNL     1      -7.170  -1.440 123.608  0.00  0.00    +0.000 A 
ENDBRANCH  73  74
ENDBRANCH   5  73
BRANCH   1  80
ATOM     80  C   UNL     1      -5.753   3.731 125.466  0.00  0.00    +0.000 C 
BRANCH  80  81
ATOM     81  C   UNL     1      -6.258   4.550 124.335  0.00  0.00    +0.000 C 
BRANCH  81  82
ATOM     82  N   UNL     1      -7.661   4.280 124.133  0.00  0.00    +0.000 NA
ATOM     83  H   UNL     1      -8.110   4.207 125.042  0.00  0.00    +0.000 HD
ATOM     84  H   UNL     1      -7.791   3.381 123.664  0.00  0.00    +0.000 HD
ENDBRANCH  81  82
ENDBRANCH  80  81
ENDBRANCH   1  80
BRANCH  22  85
ATOM     85  C   UNL     1      -5.136   2.165 129.361  0.00  0.00    +0.000 C 
BRANCH  85  86
ATOM     86  C   UNL     1      -4.227   1.822 128.267  0.00  0.00    +0.000 C 
ATOM     87  N   UNL     1      -2.993   2.085 128.670  0.00  0.00    +0.000 N 
ATOM     88  O   UNL     1      -4.419   1.543 127.136  0.00  0.00    +0.000 OA
ATOM     89  H   UNL     1      -2.751   2.397 129.590  0.00  0.00    +0.000 HD
ATOM     90  H   UNL     1      -2.245   1.602 128.206  0.00  0.00    +0.000 HD
ENDBRANCH  85  86
ENDBRANCH  22  85
TORSDOF 20
ENDMDL
MODEL 5
REMARK VINA RESULT:      -8.6      1.725      2.463
REMARK  Name = CHEMBL2369834
REMARK  20 active torsions:
REMARK  status: ('A' for Active; 'I' for Inactive)
REMARK    1  A    between atoms: N_1  and  C_2
REMARK    2  A    between atoms: C_2  and  C_3
REMARK    3  A    between atoms: C_3  and  C_4
REMARK    4  A    between atoms: C_8  and  C_9
REMARK    5  A    between atoms: C_9  and  C_10
REMARK    6  A    between atoms: C_19  and  C_20
REMARK    7  A    between atoms: C_20  and  C_21
REMARK    8  A    between atoms: C_24  and  O_25
REMARK    9  A    between atoms: C_36  and  C_37
REMARK   10  A    between atoms: C_43  and  C_44
REMARK   11  A    between atoms: N_46  and  C_47
REMARK   12  A    between atoms: C_47  and  C_48
REMARK   13  A    between atoms: C_47  and  C_55
REMARK   14  A    between atoms: C_48  and  C_49
REMARK   15  A    between atoms: C_49  and  C_50
REMARK   16  A    between atoms: C_50  and  N_51
REMARK   17  A    between atoms: N_57  and  C_58
REMARK   18  A    between atoms: C_58  and  C_59
REMARK   19  A    between atoms: C_65  and  C_66
REMARK   20  A    between atoms: C_66  and  C_67
REMARK                            x       y       z     vdW  Elec       q    Type
REMARK                         _______ _______ _______ _____ _____    ______ ____
ROOT
ATOM      1  C   UNL     1      -7.075   3.574 125.848  0.00  0.00    +0.000 C 
ATOM      2  N   UNL     1      -8.233   2.274 125.858  0.00  0.00    +0.000 N 
ATOM      3  C   UNL     1      -8.424   0.872 126.321  0.00  0.00    +0.000 C 
ATOM      4  O   UNL     1      -9.422   0.569 126.993  0.00  0.00    +0.000 OA
ATOM      5  C   UNL     1      -7.315  -0.309 125.940  0.00  0.00    +0.000 C 
ATOM      6  N   UNL     1      -6.152  -0.633 126.750  0.00  0.00    +0.000 N 
ATOM      7  C   UNL     1      -6.013  -1.130 127.999  0.00  0.00    +0.000 C 
ATOM      8  O   UNL     1      -4.841  -1.458 128.233  0.00  0.00    +0.000 OA
ATOM      9  C   UNL     1      -7.280  -1.369 129.018  0.00  0.00    +0.000 C 
ATOM     10  N   UNL     1      -6.955  -2.709 129.394  0.00  0.00    +0.000 N 
ATOM     11  C   UNL     1      -5.898  -3.035 130.192  0.00  0.00    +0.000 C 
ATOM     12  O   UNL     1      -5.704  -4.247 130.343  0.00  0.00    +0.000 OA
ATOM     13  C   UNL     1      -4.971  -1.994 130.923  0.00  0.00    +0.000 C 
ATOM     14  C   UNL     1      -5.011  -0.462 130.781  0.00  0.00    +0.000 C 
ATOM     15  S   UNL     1      -3.780   0.603 131.601  0.00  0.00    +0.000 S 
ATOM     16  S   UNL     1      -4.952   2.324 131.761  0.00  0.00    +0.000 S 
ATOM     17  C   UNL     1      -3.856   3.749 131.435  0.00  0.00    +0.000 C 
ATOM     18  C   UNL     1      -4.327   5.154 131.025  0.00  0.00    +0.000 C 
ATOM     19  N   UNL     1      -4.103   5.407 129.581  0.00  0.00    +0.000 N 
ATOM     20  C   UNL     1      -4.620   4.761 128.515  0.00  0.00    +0.000 C 
ATOM     21  O   UNL     1      -4.263   4.964 127.358  0.00  0.00    +0.000 OA
ATOM     22  C   UNL     1      -5.729   3.828 128.789  0.00  0.00    +0.000 C 
ATOM     23  N   UNL     1      -6.848   4.558 128.122  0.00  0.00    +0.000 N 
ATOM     24  C   UNL     1      -7.511   4.564 126.896  0.00  0.00    +0.000 C 
ATOM     25  O   UNL     1      -8.659   5.020 126.857  0.00  0.00    +0.000 OA
ATOM     26  H   UNL     1      -9.131   2.727 126.073  0.00  0.00    +0.000 HD
ATOM     27  H   UNL     1      -5.244  -0.344 126.368  0.00  0.00    +0.000 HD
ATOM     28  H   UNL     1      -7.378  -3.466 128.868  0.00  0.00    +0.000 HD
ATOM     29  H   UNL     1      -3.485   6.173 129.320  0.00  0.00    +0.000 HD
ATOM     30  H   UNL     1      -7.359   5.065 128.840  0.00  0.00    +0.000 HD
ENDROOT
BRANCH  18  31
ATOM     31  C   UNL     1      -3.582   6.295 131.814  0.00  0.00    +0.000 C 
ATOM     32  O   UNL     1      -3.313   7.343 131.218  0.00  0.00    +0.000 OA
ATOM     33  N   UNL     1      -3.481   6.190 133.195  0.00  0.00    +0.000 N 
ATOM     34  C   UNL     1      -2.998   5.089 134.015  0.00  0.00    +0.000 C 
ATOM     35  C   UNL     1      -3.862   5.229 135.234  0.00  0.00    +0.000 C 
ATOM     36  C   UNL     1      -3.780   6.721 135.494  0.00  0.00    +0.000 C 
ATOM     37  C   UNL     1      -3.608   7.364 134.098  0.00  0.00    +0.000 C 
BRANCH  37  38
ATOM     38  C   UNL     1      -2.321   8.199 134.224  0.00  0.00    +0.000 C 
ATOM     39  O   UNL     1      -1.303   7.871 133.614  0.00  0.00    +0.000 OA
ATOM     40  N   UNL     1      -2.337   9.250 135.135  0.00  0.00    +0.000 N 
ATOM     41  H   UNL     1      -3.047   9.304 135.860  0.00  0.00    +0.000 HD
BRANCH  40  42
ATOM     42  C   UNL     1      -1.242  10.244 135.221  0.00  0.00    +0.000 C 
BRANCH  42  43
ATOM     43  C   UNL     1      -0.155   9.790 136.255  0.00  0.00    +0.000 C 
ATOM     44  O   UNL     1      -0.181  10.160 137.428  0.00  0.00    +0.000 OA
ATOM     45  N   UNL     1       0.830   8.946 135.769  0.00  0.00    +0.000 N 
ATOM     46  H   UNL     1       0.789   8.657 134.807  0.00  0.00    +0.000 HD
BRANCH  45  47
ATOM     47  C   UNL     1       1.931   8.458 136.605  0.00  0.00    +0.000 C 
BRANCH  47  48
ATOM     48  C   UNL     1       2.113   6.929 136.678  0.00  0.00    +0.000 C 
ATOM     49  N   UNL     1       1.060   6.172 137.106  0.00  0.00    +0.000 N 
ATOM     50  O   UNL     1       3.162   6.372 136.362  0.00  0.00    +0.000 OA
ATOM     51  H   UNL     1       0.163   6.514 137.394  0.00  0.00    +0.000 HD
ATOM     52  H   UNL     1       1.205   5.169 137.151  0.00  0.00    +0.000 HD
ENDBRANCH  47  48
ENDBRANCH  45  47
ENDBRANCH  42  43
BRANCH  42  53
ATOM     53  C   UNL     1      -1.797  11.625 135.637  0.00  0.00    +0.000 C 
BRANCH  53  54
ATOM     54  C   UNL     1      -1.581  12.685 134.563  0.00  0.00    +0.000 C 
BRANCH  54  55
ATOM     55  C   UNL     1      -0.471  12.390 133.596  0.00  0.00    +0.000 C 
BRANCH  55  56
ATOM     56  N   UNL     1       0.521  13.457 133.725  0.00  0.00    +0.000 NA
ATOM     57  C   UNL     1       1.741  13.086 133.848  0.00  0.00    +0.000 C 
ATOM     58  N   UNL     1       2.184  11.818 133.846  0.00  0.00    +0.000 N 
ATOM     59  N   UNL     1       2.717  13.997 133.976  0.00  0.00    +0.000 N 
ATOM     60  H   UNL     1       1.516  11.067 133.773  0.00  0.00    +0.000 HD
ATOM     61  H   UNL     1       3.153  11.573 133.943  0.00  0.00    +0.000 HD
ATOM     62  H   UNL     1       2.435  14.969 134.026  0.00  0.00    +0.000 HD
ATOM     63  H   UNL     1       3.688  13.773 134.095  0.00  0.00    +0.000 HD
ENDBRANCH  55  56
ENDBRANCH  54  55
ENDBRANCH  53  54
ENDBRANCH  42  53
ENDBRANCH  40  42
ENDBRANCH  37  38
ENDBRANCH  18  31
BRANCH   9  64
ATOM     64  C   UNL     1      -7.902  -0.658 130.370  0.00  0.00    +0.000 C 
BRANCH  64  65
ATOM     65  C   UNL     1      -8.553   0.701 130.321  0.00  0.00    +0.000 A 
ATOM     66  C   UNL     1      -9.334   0.899 131.379  0.00  0.00    +0.000 A 
ATOM     67  C   UNL     1      -9.882   2.113 131.700  0.00  0.00    +0.000 A 
ATOM     68  C   UNL     1      -9.848   3.226 130.937  0.00  0.00    +0.000 A 
ATOM     69  C   UNL     1      -9.265   3.014 129.727  0.00  0.00    +0.000 A 
ATOM     70  C   UNL     1      -8.567   1.784 129.439  0.00  0.00    +0.000 A 
BRANCH  68  71
ATOM     71  O   UNL     1     -10.672   4.287 131.187  0.00  0.00    +0.000 OA
ATOM     72  H   UNL     1     -10.291   5.143 130.861  0.00  0.00    +0.000 HD
ENDBRANCH  68  71
ENDBRANCH  64  65
ENDBRANCH   9  64
BRANCH   5  73
ATOM     73  C   UNL     1      -7.816  -1.661 125.628  0.00  0.00    +0.000 C 
BRANCH  73  74
ATOM     74  C   UNL     1      -6.983  -2.253 124.578  0.00  0.00    +0.000 A 
ATOM     75  C   UNL     1      -6.112  -3.348 124.741  0.00  0.00    +0.000 A 
ATOM     76  C   UNL     1      -5.099  -3.549 123.847  0.00  0.00    +0.000 A 
ATOM     77  C   UNL     1      -5.169  -2.853 122.656  0.00  0.00    +0.000 A 
ATOM     78  C   UNL     1      -6.127  -1.855 122.438  0.00  0.00    +0.000 A 
ATOM     79  C   UNL     1      -7.010  -1.513 123.423  0.00  0.00    +0.000 A 
ENDBRANCH  73  74
ENDBRANCH   5  73
BRANCH   1  80
ATOM     80  C   UNL     1      -5.999   3.815 124.793  0.00  0.00    +0.000 C 
BRANCH  80  81
ATOM     81  C   UNL     1      -6.538   3.472 123.452  0.00  0.00    +0.000 C 
BRANCH  81  82
ATOM     82  N   UNL     1      -7.938   3.817 123.394  0.00  0.00    +0.000 NA
ATOM     83  H   UNL     1      -8.082   4.458 122.619  0.00  0.00    +0.000 HD
ATOM     84  H   UNL     1      -8.224   4.308 124.243  0.00  0.00    +0.000 HD
ENDBRANCH  81  82
ENDBRANCH  80  81
ENDBRANCH   1  80
BRANCH  22  85
ATOM     85  C   UNL     1      -5.105   2.426 128.702  0.00  0.00    +0.000 C 
BRANCH  85  86
ATOM     86  C   UNL     1      -4.170   2.066 127.636  0.00  0.00    +0.000 C 
ATOM     87  N   UNL     1      -2.946   2.334 128.066  0.00  0.00    +0.000 N 
ATOM     88  O   UNL     1      -4.333   1.769 126.505  0.00  0.00    +0.000 OA
ATOM     89  H   UNL     1      -2.727   2.660 128.986  0.00  0.00    +0.000 HD
ATOM     90  H   UNL     1      -2.187   1.843 127.628  0.00  0.00    +0.000 HD
ENDBRANCH  85  86
ENDBRANCH  22  85
TORSDOF 20
ENDMDL
MODEL 6
REMARK VINA RESULT:      -8.6      1.698      3.082
REMARK  Name = CHEMBL2369834
REMARK  20 active torsions:
REMARK  status: ('A' for Active; 'I' for Inactive)
REMARK    1  A    between atoms: N_1  and  C_2
REMARK    2  A    between atoms: C_2  and  C_3
REMARK    3  A    between atoms: C_3  and  C_4
REMARK    4  A    between atoms: C_8  and  C_9
REMARK    5  A    between atoms: C_9  and  C_10
REMARK    6  A    between atoms: C_19  and  C_20
REMARK    7  A    between atoms: C_20  and  C_21
REMARK    8  A    between atoms: C_24  and  O_25
REMARK    9  A    between atoms: C_36  and  C_37
REMARK   10  A    between atoms: C_43  and  C_44
REMARK   11  A    between atoms: N_46  and  C_47
REMARK   12  A    between atoms: C_47  and  C_48
REMARK   13  A    between atoms: C_47  and  C_55
REMARK   14  A    between atoms: C_48  and  C_49
REMARK   15  A    between atoms: C_49  and  C_50
REMARK   16  A    between atoms: C_50  and  N_51
REMARK   17  A    between atoms: N_57  and  C_58
REMARK   18  A    between atoms: C_58  and  C_59
REMARK   19  A    between atoms: C_65  and  C_66
REMARK   20  A    between atoms: C_66  and  C_67
REMARK                            x       y       z     vdW  Elec       q    Type
REMARK                         _______ _______ _______ _____ _____    ______ ____
ROOT
ATOM      1  C   UNL     1      -6.802   3.109 126.122  0.00  0.00    +0.000 C 
ATOM      2  N   UNL     1      -7.818   1.695 126.115  0.00  0.00    +0.000 N 
ATOM      3  C   UNL     1      -7.905   0.305 126.643  0.00  0.00    +0.000 C 
ATOM      4  O   UNL     1      -8.921  -0.068 127.249  0.00  0.00    +0.000 OA
ATOM      5  C   UNL     1      -6.652  -0.768 126.422  0.00  0.00    +0.000 C 
ATOM      6  N   UNL     1      -5.537  -0.925 127.342  0.00  0.00    +0.000 N 
ATOM      7  C   UNL     1      -5.456  -1.341 128.625  0.00  0.00    +0.000 C 
ATOM      8  O   UNL     1      -4.282  -1.530 128.973  0.00  0.00    +0.000 OA
ATOM      9  C   UNL     1      -6.776  -1.663 129.551  0.00  0.00    +0.000 C 
ATOM     10  N   UNL     1      -6.350  -2.939 130.031  0.00  0.00    +0.000 N 
ATOM     11  C   UNL     1      -5.339  -3.111 130.929  0.00  0.00    +0.000 C 
ATOM     12  O   UNL     1      -5.035  -4.286 131.167  0.00  0.00    +0.000 OA
ATOM     13  C   UNL     1      -4.589  -1.942 131.670  0.00  0.00    +0.000 C 
ATOM     14  C   UNL     1      -4.772  -0.431 131.436  0.00  0.00    +0.000 C 
ATOM     15  S   UNL     1      -3.732   0.798 132.288  0.00  0.00    +0.000 S 
ATOM     16  S   UNL     1      -5.083   2.390 132.250  0.00  0.00    +0.000 S 
ATOM     17  C   UNL     1      -4.114   3.905 131.931  0.00  0.00    +0.000 C 
ATOM     18  C   UNL     1      -4.687   5.230 131.402  0.00  0.00    +0.000 C 
ATOM     19  N   UNL     1      -4.367   5.433 129.969  0.00  0.00    +0.000 N 
ATOM     20  C   UNL     1      -4.720   4.682 128.904  0.00  0.00    +0.000 C 
ATOM     21  O   UNL     1      -4.287   4.865 127.770  0.00  0.00    +0.000 OA
ATOM     22  C   UNL     1      -5.749   3.652 129.142  0.00  0.00    +0.000 C 
ATOM     23  N   UNL     1      -6.874   4.224 128.345  0.00  0.00    +0.000 N 
ATOM     24  C   UNL     1      -7.425   4.099 127.071  0.00  0.00    +0.000 C 
ATOM     25  O   UNL     1      -8.606   4.427 126.912  0.00  0.00    +0.000 OA
ATOM     26  H   UNL     1      -8.773   2.060 126.229  0.00  0.00    +0.000 HD
ATOM     27  H   UNL     1      -4.633  -0.561 127.018  0.00  0.00    +0.000 HD
ATOM     28  H   UNL     1      -6.646  -3.763 129.517  0.00  0.00    +0.000 HD
ATOM     29  H   UNL     1      -3.810   6.246 129.714  0.00  0.00    +0.000 HD
ATOM     30  H   UNL     1      -7.495   4.710 128.988  0.00  0.00    +0.000 HD
ENDROOT
BRANCH  18  31
ATOM     31  C   UNL     1      -4.135   6.483 132.180  0.00  0.00    +0.000 C 
ATOM     32  O   UNL     1      -4.898   7.088 132.940  0.00  0.00    +0.000 OA
ATOM     33  N   UNL     1      -2.765   6.710 132.182  0.00  0.00    +0.000 N 
ATOM     34  C   UNL     1      -1.829   6.788 131.070  0.00  0.00    +0.000 C 
ATOM     35  C   UNL     1      -0.583   6.232 131.694  0.00  0.00    +0.000 C 
ATOM     36  C   UNL     1      -0.554   6.968 133.019  0.00  0.00    +0.000 C 
ATOM     37  C   UNL     1      -2.038   7.210 133.378  0.00  0.00    +0.000 C 
BRANCH  37  38
ATOM     38  C   UNL     1      -2.134   8.734 133.579  0.00  0.00    +0.000 C 
ATOM     39  O   UNL     1      -2.561   9.455 132.677  0.00  0.00    +0.000 OA
ATOM     40  N   UNL     1      -1.614   9.249 134.762  0.00  0.00    +0.000 N 
ATOM     41  H   UNL     1      -0.977   8.703 135.335  0.00  0.00    +0.000 HD
BRANCH  40  42
ATOM     42  C   UNL     1      -1.808  10.660 135.167  0.00  0.00    +0.000 C 
BRANCH  42  43
ATOM     43  C   UNL     1      -0.693  11.576 134.553  0.00  0.00    +0.000 C 
ATOM     44  O   UNL     1      -0.169  12.481 135.199  0.00  0.00    +0.000 OA
ATOM     45  N   UNL     1      -0.332  11.299 133.244  0.00  0.00    +0.000 N 
ATOM     46  H   UNL     1      -0.777  10.532 132.771  0.00  0.00    +0.000 HD
BRANCH  45  47
ATOM     47  C   UNL     1       0.674  12.083 132.523  0.00  0.00    +0.000 C 
BRANCH  47  48
ATOM     48  C   UNL     1       0.180  12.876 131.298  0.00  0.00    +0.000 C 
ATOM     49  N   UNL     1      -1.129  13.265 131.264  0.00  0.00    +0.000 N 
ATOM     50  O   UNL     1       0.917  13.174 130.360  0.00  0.00    +0.000 OA
ATOM     51  H   UNL     1      -1.822  13.076 131.965  0.00  0.00    +0.000 HD
ATOM     52  H   UNL     1      -1.433  13.782 130.447  0.00  0.00    +0.000 HD
ENDBRANCH  47  48
ENDBRANCH  45  47
ENDBRANCH  42  43
BRANCH  42  53
ATOM     53  C   UNL     1      -1.784  10.790 136.706  0.00  0.00    +0.000 C 
BRANCH  53  54
ATOM     54  C   UNL     1      -2.721   9.799 137.387  0.00  0.00    +0.000 C 
BRANCH  54  55
ATOM     55  C   UNL     1      -2.039   8.752 138.219  0.00  0.00    +0.000 C 
BRANCH  55  56
ATOM     56  N   UNL     1      -2.741   7.488 137.998  0.00  0.00    +0.000 NA
ATOM     57  C   UNL     1      -2.084   6.573 137.386  0.00  0.00    +0.000 C 
ATOM     58  N   UNL     1      -0.815   6.667 136.955  0.00  0.00    +0.000 N 
ATOM     59  N   UNL     1      -2.651   5.384 137.136  0.00  0.00    +0.000 N 
ATOM     60  H   UNL     1      -0.318   7.534 137.085  0.00  0.00    +0.000 HD
ATOM     61  H   UNL     1      -0.338   5.922 136.481  0.00  0.00    +0.000 HD
ATOM     62  H   UNL     1      -3.622   5.272 137.403  0.00  0.00    +0.000 HD
ATOM     63  H   UNL     1      -2.198   4.633 136.646  0.00  0.00    +0.000 HD
ENDBRANCH  55  56
ENDBRANCH  54  55
ENDBRANCH  53  54
ENDBRANCH  42  53
ENDBRANCH  40  42
ENDBRANCH  37  38
ENDBRANCH  18  31
BRANCH   9  64
ATOM     64  C   UNL     1      -7.582  -0.955 130.804  0.00  0.00    +0.000 C 
BRANCH  64  65
ATOM     65  C   UNL     1      -8.344   0.334 130.627  0.00  0.00    +0.000 A 
ATOM     66  C   UNL     1      -9.191   0.534 131.632  0.00  0.00    +0.000 A 
ATOM     67  C   UNL     1      -9.856   1.714 131.839  0.00  0.00    +0.000 A 
ATOM     68  C   UNL     1      -9.879   2.770 130.999  0.00  0.00    +0.000 A 
ATOM     69  C   UNL     1      -9.220   2.529 129.835  0.00  0.00    +0.000 A 
ATOM     70  C   UNL     1      -8.406   1.348 129.668  0.00  0.00    +0.000 A 
BRANCH  68  71
ATOM     71  O   UNL     1     -10.803   3.768 131.135  0.00  0.00    +0.000 OA
ATOM     72  H   UNL     1     -11.452   3.581 131.863  0.00  0.00    +0.000 HD
ENDBRANCH  68  71
ENDBRANCH  64  65
ENDBRANCH   9  64
BRANCH   5  73
ATOM     73  C   UNL     1      -6.984  -2.180 126.152  0.00  0.00    +0.000 C 
BRANCH  73  74
ATOM     74  C   UNL     1      -7.831  -2.255 124.959  0.00  0.00    +0.000 A 
ATOM     75  C   UNL     1      -9.079  -2.904 124.879  0.00  0.00    +0.000 A 
ATOM     76  C   UNL     1      -9.575  -3.272 123.661  0.00  0.00    +0.000 A 
ATOM     77  C   UNL     1      -8.979  -2.712 122.547  0.00  0.00    +0.000 A 
ATOM     78  C   UNL     1      -7.810  -1.947 122.641  0.00  0.00    +0.000 A 
ATOM     79  C   UNL     1      -7.199  -1.757 123.848  0.00  0.00    +0.000 A 
ENDBRANCH  73  74
ENDBRANCH   5  73
BRANCH   1  80
ATOM     80  C   UNL     1      -5.668   3.410 125.145  0.00  0.00    +0.000 C 
BRANCH  80  81
ATOM     81  C   UNL     1      -5.908   4.727 124.502  0.00  0.00    +0.000 C 
BRANCH  81  82
ATOM     82  N   UNL     1      -5.600   4.639 123.095  0.00  0.00    +0.000 NA
ATOM     83  H   UNL     1      -5.225   3.714 122.903  0.00  0.00    +0.000 HD
ATOM     84  H   UNL     1      -4.874   5.312 122.843  0.00  0.00    +0.000 HD
ENDBRANCH  81  82
ENDBRANCH  80  81
ENDBRANCH   1  80
BRANCH  22  85
ATOM     85  C   UNL     1      -4.980   2.322 129.188  0.00  0.00    +0.000 C 
BRANCH  85  86
ATOM     86  C   UNL     1      -4.003   1.962 128.160  0.00  0.00    +0.000 C 
ATOM     87  N   UNL     1      -2.808   2.337 128.590  0.00  0.00    +0.000 N 
ATOM     88  O   UNL     1      -4.126   1.588 127.047  0.00  0.00    +0.000 OA
ATOM     89  H   UNL     1      -2.628   2.732 129.492  0.00  0.00    +0.000 HD
ATOM     90  H   UNL     1      -2.010   1.873 128.194  0.00  0.00    +0.000 HD
ENDBRANCH  85  86
ENDBRANCH  22  85
TORSDOF 20
ENDMDL
MODEL 7
REMARK VINA RESULT:      -8.5      2.316      3.759
REMARK  Name = CHEMBL2369834
REMARK  20 active torsions:
REMARK  status: ('A' for Active; 'I' for Inactive)
REMARK    1  A    between atoms: N_1  and  C_2
REMARK    2  A    between atoms: C_2  and  C_3
REMARK    3  A    between atoms: C_3  and  C_4
REMARK    4  A    between atoms: C_8  and  C_9
REMARK    5  A    between atoms: C_9  and  C_10
REMARK    6  A    between atoms: C_19  and  C_20
REMARK    7  A    between atoms: C_20  and  C_21
REMARK    8  A    between atoms: C_24  and  O_25
REMARK    9  A    between atoms: C_36  and  C_37
REMARK   10  A    between atoms: C_43  and  C_44
REMARK   11  A    between atoms: N_46  and  C_47
REMARK   12  A    between atoms: C_47  and  C_48
REMARK   13  A    between atoms: C_47  and  C_55
REMARK   14  A    between atoms: C_48  and  C_49
REMARK   15  A    between atoms: C_49  and  C_50
REMARK   16  A    between atoms: C_50  and  N_51
REMARK   17  A    between atoms: N_57  and  C_58
REMARK   18  A    between atoms: C_58  and  C_59
REMARK   19  A    between atoms: C_65  and  C_66
REMARK   20  A    between atoms: C_66  and  C_67
REMARK                            x       y       z     vdW  Elec       q    Type
REMARK                         _______ _______ _______ _____ _____    ______ ____
ROOT
ATOM      1  C   UNL     1      -6.780   3.318 126.440  0.00  0.00    +0.000 C 
ATOM      2  N   UNL     1      -7.763   1.892 126.254  0.00  0.00    +0.000 N 
ATOM      3  C   UNL     1      -7.830   0.453 126.629  0.00  0.00    +0.000 C 
ATOM      4  O   UNL     1      -8.853  -0.004 127.163  0.00  0.00    +0.000 OA
ATOM      5  C   UNL     1      -6.548  -0.565 126.330  0.00  0.00    +0.000 C 
ATOM      6  N   UNL     1      -5.453  -0.797 127.258  0.00  0.00    +0.000 N 
ATOM      7  C   UNL     1      -5.395  -1.347 128.491  0.00  0.00    +0.000 C 
ATOM      8  O   UNL     1      -4.226  -1.548 128.848  0.00  0.00    +0.000 OA
ATOM      9  C   UNL     1      -6.730  -1.793 129.340  0.00  0.00    +0.000 C 
ATOM     10  N   UNL     1      -6.286  -3.104 129.692  0.00  0.00    +0.000 N 
ATOM     11  C   UNL     1      -5.295  -3.351 130.594  0.00  0.00    +0.000 C 
ATOM     12  O   UNL     1      -4.970  -4.538 130.714  0.00  0.00    +0.000 OA
ATOM     13  C   UNL     1      -4.592  -2.253 131.477  0.00  0.00    +0.000 C 
ATOM     14  C   UNL     1      -4.804  -0.730 131.400  0.00  0.00    +0.000 C 
ATOM     15  S   UNL     1      -3.814   0.422 132.407  0.00  0.00    +0.000 S 
ATOM     16  S   UNL     1      -5.200   1.981 132.502  0.00  0.00    +0.000 S 
ATOM     17  C   UNL     1      -4.259   3.541 132.373  0.00  0.00    +0.000 C 
ATOM     18  C   UNL     1      -4.850   4.903 131.973  0.00  0.00    +0.000 C 
ATOM     19  N   UNL     1      -4.498   5.265 130.579  0.00  0.00    +0.000 N 
ATOM     20  C   UNL     1      -4.807   4.626 129.431  0.00  0.00    +0.000 C 
ATOM     21  O   UNL     1      -4.349   4.938 128.335  0.00  0.00    +0.000 OA
ATOM     22  C   UNL     1      -5.817   3.555 129.529  0.00  0.00    +0.000 C 
ATOM     23  N   UNL     1      -6.934   4.187 128.767  0.00  0.00    +0.000 N 
ATOM     24  C   UNL     1      -7.450   4.187 127.472  0.00  0.00    +0.000 C 
ATOM     25  O   UNL     1      -8.634   4.506 127.317  0.00  0.00    +0.000 OA
ATOM     26  H   UNL     1      -8.728   2.224 126.381  0.00  0.00    +0.000 HD
ATOM     27  H   UNL     1      -4.550  -0.382 126.999  0.00  0.00    +0.000 HD
ATOM     28  H   UNL     1      -6.551  -3.874 129.086  0.00  0.00    +0.000 HD
ATOM     29  H   UNL     1      -3.953   6.112 130.427  0.00  0.00    +0.000 HD
ATOM     30  H   UNL     1      -7.582   4.588 129.440  0.00  0.00    +0.000 HD
ENDROOT
BRANCH  18  31
ATOM     31  C   UNL     1      -4.346   6.076 132.895  0.00  0.00    +0.000 C 
ATOM     32  O   UNL     1      -5.013   6.369 133.892  0.00  0.00    +0.000 OA
ATOM     33  N   UNL     1      -3.060   6.565 132.703  0.00  0.00    +0.000 N 
ATOM     34  C   UNL     1      -2.409   7.028 131.486  0.00  0.00    +0.000 C 
ATOM     35  C   UNL     1      -0.987   6.623 131.741  0.00  0.00    +0.000 C 
ATOM     36  C   UNL     1      -0.790   7.095 133.169  0.00  0.00    +0.000 C 
ATOM     37  C   UNL     1      -2.181   6.970 133.831  0.00  0.00    +0.000 C 
BRANCH  37  38
ATOM     38  C   UNL     1      -2.469   8.382 134.373  0.00  0.00    +0.000 C 
ATOM     39  O   UNL     1      -2.098   9.377 133.751  0.00  0.00    +0.000 OA
ATOM     40  N   UNL     1      -3.054   8.466 135.633  0.00  0.00    +0.000 N 
ATOM     41  H   UNL     1      -3.048   7.673 136.267  0.00  0.00    +0.000 HD
BRANCH  40  42
ATOM     42  C   UNL     1      -3.556   9.743 136.192  0.00  0.00    +0.000 C 
BRANCH  42  43
ATOM     43  C   UNL     1      -2.376  10.746 136.441  0.00  0.00    +0.000 C 
ATOM     44  O   UNL     1      -1.589  10.602 137.375  0.00  0.00    +0.000 OA
ATOM     45  N   UNL     1      -2.272  11.796 135.543  0.00  0.00    +0.000 N 
ATOM     46  H   UNL     1      -2.930  11.851 134.785  0.00  0.00    +0.000 HD
BRANCH  45  47
ATOM     47  C   UNL     1      -1.240  12.831 135.658  0.00  0.00    +0.000 C 
BRANCH  47  48
ATOM     48  C   UNL     1      -0.043  12.718 134.696  0.00  0.00    +0.000 C 
ATOM     49  N   UNL     1      -0.056  11.723 133.760  0.00  0.00    +0.000 N 
ATOM     50  O   UNL     1       0.914  13.488 134.736  0.00  0.00    +0.000 OA
ATOM     51  H   UNL     1      -0.777  11.035 133.637  0.00  0.00    +0.000 HD
ATOM     52  H   UNL     1       0.744  11.665 133.140  0.00  0.00    +0.000 HD
ENDBRANCH  47  48
ENDBRANCH  45  47
ENDBRANCH  42  43
BRANCH  42  53
ATOM     53  C   UNL     1      -4.303   9.495 137.521  0.00  0.00    +0.000 C 
BRANCH  53  54
ATOM     54  C   UNL     1      -5.778   9.872 137.437  0.00  0.00    +0.000 C 
BRANCH  54  55
ATOM     55  C   UNL     1      -6.732   8.788 137.843  0.00  0.00    +0.000 C 
BRANCH  55  56
ATOM     56  N   UNL     1      -8.089   9.289 137.624  0.00  0.00    +0.000 NA
ATOM     57  C   UNL     1      -8.947   8.437 137.200  0.00  0.00    +0.000 C 
ATOM     58  N   UNL     1      -8.717   7.135 136.965  0.00  0.00    +0.000 N 
ATOM     59  N   UNL     1     -10.214   8.811 136.967  0.00  0.00    +0.000 N 
ATOM     60  H   UNL     1      -7.786   6.772 137.098  0.00  0.00    +0.000 HD
ATOM     61  H   UNL     1      -9.422   6.502 136.636  0.00  0.00    +0.000 HD
ATOM     62  H   UNL     1     -10.434   9.792 137.087  0.00  0.00    +0.000 HD
ATOM     63  H   UNL     1     -10.929   8.198 136.618  0.00  0.00    +0.000 HD
ENDBRANCH  55  56
ENDBRANCH  54  55
ENDBRANCH  53  54
ENDBRANCH  42  53
ENDBRANCH  40  42
ENDBRANCH  37  38
ENDBRANCH  18  31
BRANCH   9  64
ATOM     64  C   UNL     1      -7.584  -1.239 130.639  0.00  0.00    +0.000 C 
BRANCH  64  65
ATOM     65  C   UNL     1      -8.314   0.079 130.602  0.00  0.00    +0.000 A 
ATOM     66  C   UNL     1      -9.060   0.246 131.690  0.00  0.00    +0.000 A 
ATOM     67  C   UNL     1      -9.663   1.431 132.021  0.00  0.00    +0.000 A 
ATOM     68  C   UNL     1      -9.725   2.534 131.244  0.00  0.00    +0.000 A 
ATOM     69  C   UNL     1      -9.183   2.339 130.013  0.00  0.00    +0.000 A 
ATOM     70  C   UNL     1      -8.428   1.146 129.709  0.00  0.00    +0.000 A 
BRANCH  68  71
ATOM     71  O   UNL     1     -10.599   3.549 131.518  0.00  0.00    +0.000 OA
ATOM     72  H   UNL     1     -10.157   4.438 131.505  0.00  0.00    +0.000 HD
ENDBRANCH  68  71
ENDBRANCH  64  65
ENDBRANCH   9  64
BRANCH   5  73
ATOM     73  C   UNL     1      -6.840  -1.947 125.901  0.00  0.00    +0.000 C 
BRANCH  73  74
ATOM     74  C   UNL     1      -7.558  -1.912 124.625  0.00  0.00    +0.000 A 
ATOM     75  C   UNL     1      -7.495  -0.873 123.675  0.00  0.00    +0.000 A 
ATOM     76  C   UNL     1      -8.491  -0.738 122.750  0.00  0.00    +0.000 A 
ATOM     77  C   UNL     1      -9.347  -1.810 122.591  0.00  0.00    +0.000 A 
ATOM     78  C   UNL     1      -9.318  -2.913 123.453  0.00  0.00    +0.000 A 
ATOM     79  C   UNL     1      -8.453  -2.945 124.511  0.00  0.00    +0.000 A 
ENDBRANCH  73  74
ENDBRANCH   5  73
BRANCH   1  80
ATOM     80  C   UNL     1      -5.629   3.745 125.533  0.00  0.00    +0.000 C 
BRANCH  80  81
ATOM     81  C   UNL     1      -6.177   4.254 124.250  0.00  0.00    +0.000 C 
BRANCH  81  82
ATOM     82  N   UNL     1      -7.619   4.241 124.302  0.00  0.00    +0.000 NA
ATOM     83  H   UNL     1      -7.954   3.424 123.799  0.00  0.00    +0.000 HD
ATOM     84  H   UNL     1      -8.005   5.060 123.829  0.00  0.00    +0.000 HD
ENDBRANCH  81  82
ENDBRANCH  80  81
ENDBRANCH   1  80
BRANCH  22  85
ATOM     85  C   UNL     1      -5.019   2.244 129.454  0.00  0.00    +0.000 C 
BRANCH  85  86
ATOM     86  C   UNL     1      -4.022   2.008 128.409  0.00  0.00    +0.000 C 
ATOM     87  N   UNL     1      -2.847   2.403 128.876  0.00  0.00    +0.000 N 
ATOM     88  O   UNL     1      -4.123   1.715 127.270  0.00  0.00    +0.000 OA
ATOM     89  H   UNL     1      -2.689   2.735 129.806  0.00  0.00    +0.000 HD
ATOM     90  H   UNL     1      -2.027   2.008 128.452  0.00  0.00    +0.000 HD
ENDBRANCH  85  86
ENDBRANCH  22  85
TORSDOF 20
ENDMDL
MODEL 8
REMARK VINA RESULT:      -8.5      4.673     11.044
REMARK  Name = CHEMBL2369834
REMARK  20 active torsions:
REMARK  status: ('A' for Active; 'I' for Inactive)
REMARK    1  A    between atoms: N_1  and  C_2
REMARK    2  A    between atoms: C_2  and  C_3
REMARK    3  A    between atoms: C_3  and  C_4
REMARK    4  A    between atoms: C_8  and  C_9
REMARK    5  A    between atoms: C_9  and  C_10
REMARK    6  A    between atoms: C_19  and  C_20
REMARK    7  A    between atoms: C_20  and  C_21
REMARK    8  A    between atoms: C_24  and  O_25
REMARK    9  A    between atoms: C_36  and  C_37
REMARK   10  A    between atoms: C_43  and  C_44
REMARK   11  A    between atoms: N_46  and  C_47
REMARK   12  A    between atoms: C_47  and  C_48
REMARK   13  A    between atoms: C_47  and  C_55
REMARK   14  A    between atoms: C_48  and  C_49
REMARK   15  A    between atoms: C_49  and  C_50
REMARK   16  A    between atoms: C_50  and  N_51
REMARK   17  A    between atoms: N_57  and  C_58
REMARK   18  A    between atoms: C_58  and  C_59
REMARK   19  A    between atoms: C_65  and  C_66
REMARK   20  A    between atoms: C_66  and  C_67
REMARK                            x       y       z     vdW  Elec       q    Type
REMARK                         _______ _______ _______ _____ _____    ______ ____
ROOT
ATOM      1  C   UNL     1      -6.512  -0.840 127.114  0.00  0.00    +0.000 C 
ATOM      2  N   UNL     1      -5.497   0.358 126.362  0.00  0.00    +0.000 N 
ATOM      3  C   UNL     1      -5.117   1.796 126.442  0.00  0.00    +0.000 C 
ATOM      4  O   UNL     1      -3.922   2.121 126.505  0.00  0.00    +0.000 OA
ATOM      5  C   UNL     1      -6.282   2.984 126.436  0.00  0.00    +0.000 C 
ATOM      6  N   UNL     1      -6.921   3.510 127.631  0.00  0.00    +0.000 N 
ATOM      7  C   UNL     1      -6.453   4.197 128.697  0.00  0.00    +0.000 C 
ATOM      8  O   UNL     1      -7.374   4.641 129.397  0.00  0.00    +0.000 OA
ATOM      9  C   UNL     1      -4.855   4.491 128.945  0.00  0.00    +0.000 C 
ATOM     10  N   UNL     1      -4.970   5.892 129.202  0.00  0.00    +0.000 N 
ATOM     11  C   UNL     1      -5.522   6.410 130.336  0.00  0.00    +0.000 C 
ATOM     12  O   UNL     1      -5.629   7.642 130.357  0.00  0.00    +0.000 OA
ATOM     13  C   UNL     1      -5.983   5.561 131.579  0.00  0.00    +0.000 C 
ATOM     14  C   UNL     1      -6.006   4.026 131.691  0.00  0.00    +0.000 C 
ATOM     15  S   UNL     1      -6.692   3.188 133.157  0.00  0.00    +0.000 S 
ATOM     16  S   UNL     1      -5.575   1.429 133.030  0.00  0.00    +0.000 S 
ATOM     17  C   UNL     1      -6.685   0.056 133.499  0.00  0.00    +0.000 C 
ATOM     18  C   UNL     1      -6.458  -1.425 133.156  0.00  0.00    +0.000 C 
ATOM     19  N   UNL     1      -7.339  -1.873 132.052  0.00  0.00    +0.000 N 
ATOM     20  C   UNL     1      -7.396  -1.432 130.777  0.00  0.00    +0.000 C 
ATOM     21  O   UNL     1      -8.259  -1.779 129.976  0.00  0.00    +0.000 OA
ATOM     22  C   UNL     1      -6.295  -0.553 130.339  0.00  0.00    +0.000 C 
ATOM     23  N   UNL     1      -5.625  -1.455 129.355  0.00  0.00    +0.000 N 
ATOM     24  C   UNL     1      -5.625  -1.693 127.982  0.00  0.00    +0.000 C 
ATOM     25  O   UNL     1      -4.631  -2.233 127.484  0.00  0.00    +0.000 OA
ATOM     26  H   UNL     1      -4.602  -0.123 126.202  0.00  0.00    +0.000 HD
ATOM     27  H   UNL     1      -7.900   3.236 127.774  0.00  0.00    +0.000 HD
ATOM     28  H   UNL     1      -4.853   6.530 128.421  0.00  0.00    +0.000 HD
ATOM     29  H   UNL     1      -8.002  -2.621 132.243  0.00  0.00    +0.000 HD
ATOM     30  H   UNL     1      -4.830  -1.886 129.822  0.00  0.00    +0.000 HD
ENDROOT
BRANCH  18  31
ATOM     31  C   UNL     1      -6.730  -2.378 134.379  0.00  0.00    +0.000 C 
ATOM     32  O   UNL     1      -7.751  -2.198 135.050  0.00  0.00    +0.000 OA
ATOM     33  N   UNL     1      -5.961  -3.527 134.508  0.00  0.00    +0.000 N 
ATOM     34  C   UNL     1      -4.514  -3.690 134.500  0.00  0.00    +0.000 C 
ATOM     35  C   UNL     1      -4.373  -5.042 133.867  0.00  0.00    +0.000 C 
ATOM     36  C   UNL     1      -5.419  -5.840 134.622  0.00  0.00    +0.000 C 
ATOM     37  C   UNL     1      -6.526  -4.821 134.976  0.00  0.00    +0.000 C 
BRANCH  37  38
ATOM     38  C   UNL     1      -6.663  -4.928 136.505  0.00  0.00    +0.000 C 
ATOM     39  O   UNL     1      -6.458  -5.999 137.076  0.00  0.00    +0.000 OA
ATOM     40  N   UNL     1      -7.136  -3.805 137.177  0.00  0.00    +0.000 N 
ATOM     41  H   UNL     1      -7.611  -3.058 136.678  0.00  0.00    +0.000 HD
BRANCH  40  42
ATOM     42  C   UNL     1      -7.137  -3.705 138.654  0.00  0.00    +0.000 C 
BRANCH  42  43
ATOM     43  C   UNL     1      -8.599  -3.772 139.217  0.00  0.00    +0.000 C 
ATOM     44  O   UNL     1      -9.026  -4.771 139.794  0.00  0.00    +0.000 OA
ATOM     45  N   UNL     1      -9.375  -2.640 139.032  0.00  0.00    +0.000 N 
ATOM     46  H   UNL     1      -8.967  -1.843 138.574  0.00  0.00    +0.000 HD
BRANCH  45  47
ATOM     47  C   UNL     1     -10.769  -2.559 139.477  0.00  0.00    +0.000 C 
BRANCH  47  48
ATOM     48  C   UNL     1     -11.838  -3.053 138.483  0.00  0.00    +0.000 C 
ATOM     49  N   UNL     1     -12.335  -2.164 137.572  0.00  0.00    +0.000 N 
ATOM     50  O   UNL     1     -12.252  -4.210 138.477  0.00  0.00    +0.000 OA
ATOM     51  H   UNL     1     -12.078  -1.198 137.486  0.00  0.00    +0.000 HD
ATOM     52  H   UNL     1     -13.040  -2.510 136.932  0.00  0.00    +0.000 HD
ENDBRANCH  47  48
ENDBRANCH  45  47
ENDBRANCH  42  43
BRANCH  42  53
ATOM     53  C   UNL     1      -6.477  -2.384 139.108  0.00  0.00    +0.000 C 
BRANCH  53  54
ATOM     54  C   UNL     1      -6.399  -1.357 137.984  0.00  0.00    +0.000 C 
BRANCH  54  55
ATOM     55  C   UNL     1      -5.139  -0.542 137.958  0.00  0.00    +0.000 C 
BRANCH  55  56
ATOM     56  N   UNL     1      -4.353  -0.982 136.806  0.00  0.00    +0.000 NA
ATOM     57  C   UNL     1      -3.675  -0.078 136.202  0.00  0.00    +0.000 C 
ATOM     58  N   UNL     1      -3.607   1.219 136.545  0.00  0.00    +0.000 N 
ATOM     59  N   UNL     1      -2.929  -0.392 135.133  0.00  0.00    +0.000 N 
ATOM     60  H   UNL     1      -4.152   1.546 137.328  0.00  0.00    +0.000 HD
ATOM     61  H   UNL     1      -3.059   1.893 136.044  0.00  0.00    +0.000 HD
ATOM     62  H   UNL     1      -2.975  -1.349 134.804  0.00  0.00    +0.000 HD
ATOM     63  H   UNL     1      -2.390   0.271 134.605  0.00  0.00    +0.000 HD
ENDBRANCH  55  56
ENDBRANCH  54  55
ENDBRANCH  53  54
ENDBRANCH  42  53
ENDBRANCH  40  42
ENDBRANCH  37  38
ENDBRANCH  18  31
BRANCH   9  64
ATOM     64  C   UNL     1      -3.660   3.945 129.943  0.00  0.00    +0.000 C 
BRANCH  64  65
ATOM     65  C   UNL     1      -2.688   4.889 130.604  0.00  0.00    +0.000 A 
ATOM     66  C   UNL     1      -2.458   4.538 131.865  0.00  0.00    +0.000 A 
ATOM     67  C   UNL     1      -1.466   5.086 132.636  0.00  0.00    +0.000 A 
ATOM     68  C   UNL     1      -0.694   6.142 132.303  0.00  0.00    +0.000 A 
ATOM     69  C   UNL     1      -1.050   6.697 131.113  0.00  0.00    +0.000 A 
ATOM     70  C   UNL     1      -1.995   6.045 130.238  0.00  0.00    +0.000 A 
BRANCH  68  71
ATOM     71  O   UNL     1       0.045   6.808 133.240  0.00  0.00    +0.000 OA
ATOM     72  H   UNL     1       1.012   6.595 133.175  0.00  0.00    +0.000 HD
ENDBRANCH  68  71
ENDBRANCH  64  65
ENDBRANCH   9  64
BRANCH   5  73
ATOM     73  C   UNL     1      -5.998   4.235 125.706  0.00  0.00    +0.000 C 
BRANCH  73  74
ATOM     74  C   UNL     1      -6.329   4.052 124.291  0.00  0.00    +0.000 A 
ATOM     75  C   UNL     1      -7.465   3.383 123.794  0.00  0.00    +0.000 A 
ATOM     76  C   UNL     1      -7.467   2.910 122.513  0.00  0.00    +0.000 A 
ATOM     77  C   UNL     1      -6.482   3.383 121.669  0.00  0.00    +0.000 A 
ATOM     78  C   UNL     1      -5.421   4.168 122.138  0.00  0.00    +0.000 A 
ATOM     79  C   UNL     1      -5.312   4.464 123.467  0.00  0.00    +0.000 A 
ENDBRANCH  73  74
ENDBRANCH   5  73
BRANCH   1  80
ATOM     80  C   UNL     1      -7.960  -1.155 126.746  0.00  0.00    +0.000 C 
BRANCH  80  81
ATOM     81  C   UNL     1      -8.076  -2.594 126.394  0.00  0.00    +0.000 C 
BRANCH  81  82
ATOM     82  N   UNL     1      -8.807  -3.285 127.429  0.00  0.00    +0.000 NA
ATOM     83  H   UNL     1      -9.793  -3.285 127.184  0.00  0.00    +0.000 HD
ATOM     84  H   UNL     1      -8.722  -2.792 128.320  0.00  0.00    +0.000 HD
ENDBRANCH  81  82
ENDBRANCH  80  81
ENDBRANCH   1  80
BRANCH  22  85
ATOM     85  C   UNL     1      -6.894   0.861 130.323  0.00  0.00    +0.000 C 
BRANCH  85  86
ATOM     86  C   UNL     1      -8.341   1.085 130.329  0.00  0.00    +0.000 C 
ATOM     87  N   UNL     1      -8.716   1.328 129.082  0.00  0.00    +0.000 N 
ATOM     88  O   UNL     1      -9.115   1.240 131.207  0.00  0.00    +0.000 OA
ATOM     89  H   UNL     1      -8.108   1.291 128.289  0.00  0.00    +0.000 HD
ATOM     90  H   UNL     1      -9.679   1.161 128.851  0.00  0.00    +0.000 HD
ENDBRANCH  85  86
ENDBRANCH  22  85
TORSDOF 20
ENDMDL
MODEL 9
REMARK VINA RESULT:      -8.4      3.023      4.830
REMARK  Name = CHEMBL2369834
REMARK  20 active torsions:
REMARK  status: ('A' for Active; 'I' for Inactive)
REMARK    1  A    between atoms: N_1  and  C_2
REMARK    2  A    between atoms: C_2  and  C_3
REMARK    3  A    between atoms: C_3  and  C_4
REMARK    4  A    between atoms: C_8  and  C_9
REMARK    5  A    between atoms: C_9  and  C_10
REMARK    6  A    between atoms: C_19  and  C_20
REMARK    7  A    between atoms: C_20  and  C_21
REMARK    8  A    between atoms: C_24  and  O_25
REMARK    9  A    between atoms: C_36  and  C_37
REMARK   10  A    between atoms: C_43  and  C_44
REMARK   11  A    between atoms: N_46  and  C_47
REMARK   12  A    between atoms: C_47  and  C_48
REMARK   13  A    between atoms: C_47  and  C_55
REMARK   14  A    between atoms: C_48  and  C_49
REMARK   15  A    between atoms: C_49  and  C_50
REMARK   16  A    between atoms: C_50  and  N_51
REMARK   17  A    between atoms: N_57  and  C_58
REMARK   18  A    between atoms: C_58  and  C_59
REMARK   19  A    between atoms: C_65  and  C_66
REMARK   20  A    between atoms: C_66  and  C_67
REMARK                            x       y       z     vdW  Elec       q    Type
REMARK                         _______ _______ _______ _____ _____    ______ ____
ROOT
ATOM      1  C   UNL     1      -3.583   5.119 127.986  0.00  0.00    +0.000 C 
ATOM      2  N   UNL     1      -5.121   4.900 127.201  0.00  0.00    +0.000 N 
ATOM      3  C   UNL     1      -6.458   4.272 127.386  0.00  0.00    +0.000 C 
ATOM      4  O   UNL     1      -7.489   4.946 127.236  0.00  0.00    +0.000 OA
ATOM      5  C   UNL     1      -6.593   2.662 127.786  0.00  0.00    +0.000 C 
ATOM      6  N   UNL     1      -6.621   2.156 129.148  0.00  0.00    +0.000 N 
ATOM      7  C   UNL     1      -7.489   2.318 130.171  0.00  0.00    +0.000 C 
ATOM      8  O   UNL     1      -7.251   1.537 131.103  0.00  0.00    +0.000 OA
ATOM      9  C   UNL     1      -8.768   3.350 130.110  0.00  0.00    +0.000 C 
ATOM     10  N   UNL     1      -9.761   2.430 130.568  0.00  0.00    +0.000 N 
ATOM     11  C   UNL     1      -9.837   1.976 131.851  0.00  0.00    +0.000 C 
ATOM     12  O   UNL     1     -10.698   1.113 132.057  0.00  0.00    +0.000 OA
ATOM     13  C   UNL     1      -8.945   2.495 133.040  0.00  0.00    +0.000 C 
ATOM     14  C   UNL     1      -7.776   3.492 132.952  0.00  0.00    +0.000 C 
ATOM     15  S   UNL     1      -6.755   3.895 134.407  0.00  0.00    +0.000 S 
ATOM     16  S   UNL     1      -6.153   5.804 133.814  0.00  0.00    +0.000 S 
ATOM     17  C   UNL     1      -4.409   5.996 134.323  0.00  0.00    +0.000 C 
ATOM     18  C   UNL     1      -3.425   7.028 133.747  0.00  0.00    +0.000 C 
ATOM     19  N   UNL     1      -2.464   6.403 132.806  0.00  0.00    +0.000 N 
ATOM     20  C   UNL     1      -2.708   5.764 131.643  0.00  0.00    +0.000 C 
ATOM     21  O   UNL     1      -1.848   5.162 131.005  0.00  0.00    +0.000 OA
ATOM     22  C   UNL     1      -4.074   5.889 131.100  0.00  0.00    +0.000 C 
ATOM     23  N   UNL     1      -3.791   6.712 129.886  0.00  0.00    +0.000 N 
ATOM     24  C   UNL     1      -3.555   6.526 128.525  0.00  0.00    +0.000 C 
ATOM     25  O   UNL     1      -3.778   7.470 127.760  0.00  0.00    +0.000 OA
ATOM     26  H   UNL     1      -5.337   5.819 126.791  0.00  0.00    +0.000 HD
ATOM     27  H   UNL     1      -5.779   1.658 129.459  0.00  0.00    +0.000 HD
ATOM     28  H   UNL     1     -10.287   1.912 129.871  0.00  0.00    +0.000 HD
ATOM     29  H   UNL     1      -1.473   6.450 133.034  0.00  0.00    +0.000 HD
ATOM     30  H   UNL     1      -4.005   7.681 130.111  0.00  0.00    +0.000 HD
ENDROOT
BRANCH  18  31
ATOM     31  C   UNL     1      -2.577   7.745 134.863  0.00  0.00    +0.000 C 
ATOM     32  O   UNL     1      -2.451   7.185 135.957  0.00  0.00    +0.000 OA
ATOM     33  N   UNL     1      -1.803   8.841 134.506  0.00  0.00    +0.000 N 
ATOM     34  C   UNL     1      -2.172  10.051 133.786  0.00  0.00    +0.000 C 
ATOM     35  C   UNL     1      -0.900  10.355 133.051  0.00  0.00    +0.000 C 
ATOM     36  C   UNL     1       0.133  10.174 134.147  0.00  0.00    +0.000 C 
ATOM     37  C   UNL     1      -0.453   9.087 135.077  0.00  0.00    +0.000 C 
BRANCH  37  38
ATOM     38  C   UNL     1      -0.471   9.749 136.467  0.00  0.00    +0.000 C 
ATOM     39  O   UNL     1       0.361   9.435 137.318  0.00  0.00    +0.000 OA
ATOM     40  N   UNL     1      -1.527  10.613 136.740  0.00  0.00    +0.000 N 
ATOM     41  H   UNL     1      -2.369  10.607 136.173  0.00  0.00    +0.000 HD
BRANCH  40  42
ATOM     42  C   UNL     1      -1.567  11.458 137.956  0.00  0.00    +0.000 C 
BRANCH  42  43
ATOM     43  C   UNL     1      -2.819  11.111 138.836  0.00  0.00    +0.000 C 
ATOM     44  O   UNL     1      -3.001  11.629 139.936  0.00  0.00    +0.000 OA
ATOM     45  N   UNL     1      -3.706  10.194 138.296  0.00  0.00    +0.000 N 
ATOM     46  H   UNL     1      -3.518   9.820 137.382  0.00  0.00    +0.000 HD
BRANCH  45  47
ATOM     47  C   UNL     1      -4.906   9.748 139.007  0.00  0.00    +0.000 C 
BRANCH  47  48
ATOM     48  C   UNL     1      -6.216  10.491 138.681  0.00  0.00    +0.000 C 
ATOM     49  N   UNL     1      -7.158   9.843 137.933  0.00  0.00    +0.000 N 
ATOM     50  O   UNL     1      -6.444  11.634 139.070  0.00  0.00    +0.000 OA
ATOM     51  H   UNL     1      -7.081   8.916 137.557  0.00  0.00    +0.000 HD
ATOM     52  H   UNL     1      -8.009  10.353 137.726  0.00  0.00    +0.000 HD
ENDBRANCH  47  48
ENDBRANCH  45  47
ENDBRANCH  42  43
BRANCH  42  53
ATOM     53  C   UNL     1      -1.611  12.954 137.575  0.00  0.00    +0.000 C 
BRANCH  53  54
ATOM     54  C   UNL     1      -1.701  13.167 136.068  0.00  0.00    +0.000 C 
BRANCH  54  55
ATOM     55  C   UNL     1      -0.483  13.782 135.442  0.00  0.00    +0.000 C 
BRANCH  55  56
ATOM     56  N   UNL     1       0.248  14.484 136.497  0.00  0.00    +0.000 NA
ATOM     57  C   UNL     1       1.438  14.863 136.207  0.00  0.00    +0.000 C 
ATOM     58  N   UNL     1       2.055  14.693 135.026  0.00  0.00    +0.000 N 
ATOM     59  N   UNL     1       2.182  15.509 137.116  0.00  0.00    +0.000 N 
ATOM     60  H   UNL     1       1.574  14.199 134.291  0.00  0.00    +0.000 HD
ATOM     61  H   UNL     1       2.989  15.009 134.842  0.00  0.00    +0.000 HD
ATOM     62  H   UNL     1       1.782  15.628 138.038  0.00  0.00    +0.000 HD
ATOM     63  H   UNL     1       3.126  15.816 136.959  0.00  0.00    +0.000 HD
ENDBRANCH  55  56
ENDBRANCH  54  55
ENDBRANCH  53  54
ENDBRANCH  42  53
ENDBRANCH  40  42
ENDBRANCH  37  38
ENDBRANCH  18  31
BRANCH   9  64
ATOM     64  C   UNL     1      -9.178   4.814 130.749  0.00  0.00    +0.000 C 
BRANCH  64  65
ATOM     65  C   UNL     1     -10.262   5.667 130.141  0.00  0.00    +0.000 A 
ATOM     66  C   UNL     1      -9.772   6.816 129.686  0.00  0.00    +0.000 A 
ATOM     67  C   UNL     1     -10.485   7.686 128.904  0.00  0.00    +0.000 A 
ATOM     68  C   UNL     1     -11.800   7.598 128.612  0.00  0.00    +0.000 A 
ATOM     69  C   UNL     1     -12.410   6.566 129.253  0.00  0.00    +0.000 A 
ATOM     70  C   UNL     1     -11.644   5.569 129.963  0.00  0.00    +0.000 A 
BRANCH  68  71
ATOM     71  O   UNL     1     -12.487   8.659 128.092  0.00  0.00    +0.000 OA
ATOM     72  H   UNL     1     -12.756   9.310 128.791  0.00  0.00    +0.000 HD
ENDBRANCH  68  71
ENDBRANCH  64  65
ENDBRANCH   9  64
BRANCH   5  73
ATOM     73  C   UNL     1      -7.693   1.885 127.183  0.00  0.00    +0.000 C 
BRANCH  73  74
ATOM     74  C   UNL     1      -7.617   1.994 125.724  0.00  0.00    +0.000 A 
ATOM     75  C   UNL     1      -6.431   2.012 124.964  0.00  0.00    +0.000 A 
ATOM     76  C   UNL     1      -6.444   2.526 123.699  0.00  0.00    +0.000 A 
ATOM     77  C   UNL     1      -7.680   2.714 123.113  0.00  0.00    +0.000 A 
ATOM     78  C   UNL     1      -8.871   2.560 123.833  0.00  0.00    +0.000 A 
ATOM     79  C   UNL     1      -8.842   2.247 125.163  0.00  0.00    +0.000 A 
ENDBRANCH  73  74
ENDBRANCH   5  73
BRANCH   1  80
ATOM     80  C   UNL     1      -2.382   4.181 127.896  0.00  0.00    +0.000 C 
BRANCH  80  81
ATOM     81  C   UNL     1      -2.392   3.494 126.580  0.00  0.00    +0.000 C 
BRANCH  81  82
ATOM     82  N   UNL     1      -3.214   2.310 126.660  0.00  0.00    +0.000 NA
ATOM     83  H   UNL     1      -3.418   1.993 125.716  0.00  0.00    +0.000 HD
ATOM     84  H   UNL     1      -4.111   2.524 127.102  0.00  0.00    +0.000 HD
ENDBRANCH  81  82
ENDBRANCH  80  81
ENDBRANCH   1  80
BRANCH  22  85
ATOM     85  C   UNL     1      -4.749   4.542 131.399  0.00  0.00    +0.000 C 
BRANCH  85  86
ATOM     86  C   UNL     1      -3.973   3.356 131.762  0.00  0.00    +0.000 C 
ATOM     87  N   UNL     1      -3.812   2.628 130.667  0.00  0.00    +0.000 N 
ATOM     88  O   UNL     1      -3.653   2.907 132.806  0.00  0.00    +0.000 OA
ATOM     89  H   UNL     1      -4.119   2.901 129.755  0.00  0.00    +0.000 HD
ATOM     90  H   UNL     1      -3.039   1.987 130.649  0.00  0.00    +0.000 HD
ENDBRANCH  85  86
ENDBRANCH  22  85
TORSDOF 20
ENDMDL
